MODEL 1
REMARK VINA RESULT:      -5.0      0.000      0.000
REMARK  Name = *****
REMARK  2 active torsions:
REMARK  status: ('A' for Active; 'I' for Inactive)
REMARK    1  A    between atoms: C_3  and  C_8
REMARK    2  A    between atoms: C_9  and  C_10
REMARK                            x       y       z     vdW  Elec       q    Type
REMARK                         _______ _______ _______ _____ _____    ______ ____
ROOT
ATOM      1  C   UNL     1     102.947 126.166  81.201  0.00  0.00    +0.000 C 
ATOM      2  C   UNL     1     102.017 125.952  82.146  0.00  0.00    +0.000 C 
ENDROOT
BRANCH   1   5
ATOM      3  C   UNL     1     104.998 123.004  81.173  0.00  0.00    +0.000 A 
ATOM      4  C   UNL     1     104.063 123.982  81.530  0.00  0.00    +0.000 A 
ATOM      5  C   UNL     1     103.922 125.153  80.768  0.00  0.00    +0.000 A 
ATOM      6  C   UNL     1     104.754 125.339  79.659  0.00  0.00    +0.000 A 
ATOM      7  C   UNL     1     105.681 124.360  79.313  0.00  0.00    +0.000 A 
ATOM      8  C   UNL     1     105.808 123.193  80.057  0.00  0.00    +0.000 A 
ATOM      9  F   UNL     1     106.467 124.548  78.245  0.00  0.00    +0.000 F 
ENDBRANCH   1   5
BRANCH   2  10
ATOM     10  C   UNL     1     101.053 126.971  82.591  0.00  0.00    +0.000 A 
ATOM     11  C   UNL     1      99.671 126.812  82.436  0.00  0.00    +0.000 A 
ATOM     12  C   UNL     1      98.802 127.794  82.904  0.00  0.00    +0.000 A 
ATOM     13  C   UNL     1      99.278 128.935  83.538  0.00  0.00    +0.000 A 
ATOM     14  C   UNL     1     100.650 129.096  83.714  0.00  0.00    +0.000 A 
ATOM     15  C   UNL     1     101.532 128.115  83.247  0.00  0.00    +0.000 A 
ATOM     16  F   UNL     1      97.482 127.633  82.745  0.00  0.00    +0.000 F 
ENDBRANCH   2  10
TORSDOF 2
ENDMDL
