REMARK  Name = *****
REMARK  7 active torsions:
REMARK  status: ('A' for Active; 'I' for Inactive)
REMARK    1  A    between atoms: C_1  and  C_2
REMARK    2  A    between atoms: C_2  and  O_3
REMARK    3  A    between atoms: O_3  and  P_4
REMARK    4  A    between atoms: P_4  and  C_6
REMARK    5  A    between atoms: P_4  and  S_12
REMARK    6  A    between atoms: S_12  and  C_13
REMARK    7  A    between atoms: C_16  and  C_19
REMARK                            x       y       z     vdW  Elec       q    Type
REMARK                         _______ _______ _______ _____ _____    ______ ____
ROOT
ATOM      1  P   UNL     1       4.814   0.461   1.300  0.00  0.00    +0.000 P 
ATOM      2  O   UNL     1       4.839   1.021   2.728  0.00  0.00    +0.000 OA
ENDROOT
BRANCH   1   3
ATOM      3  C   UNL     1       4.732  -1.387   1.191  0.00  0.00    +0.000 A 
ATOM      4  C   UNL     1       4.925  -2.031  -0.041  0.00  0.00    +0.000 A 
ATOM      5  C   UNL     1       4.841  -3.422  -0.123  0.00  0.00    +0.000 A 
ATOM      6  C   UNL     1       4.554  -4.173   1.017  0.00  0.00    +0.000 A 
ATOM      7  C   UNL     1       4.342  -3.538   2.241  0.00  0.00    +0.000 A 
ATOM      8  C   UNL     1       4.423  -2.150   2.328  0.00  0.00    +0.000 A 
ENDBRANCH   1   3
BRANCH   1   9
ATOM      9  O   UNL     1       3.084   0.461   1.300  0.00  0.00    +0.000 OA
BRANCH   9  11
ATOM     10  C   UNL     1       1.023   1.590   0.903  0.00  0.00    +0.000 C 
ATOM     11  C   UNL     1       2.502   1.751   1.183  0.00  0.00    +0.000 C 
ENDBRANCH   9  11
ENDBRANCH   1   9
BRANCH   1  12
ATOM     12  S   UNL     1       6.934   0.461   1.300  0.00  0.00    +0.000 S 
BRANCH  12  13
ATOM     13  C   UNL     1       7.394  -0.616   2.641  0.00  0.00    +0.000 A 
ATOM     14  C   UNL     1       7.307  -0.205   3.973  0.00  0.00    +0.000 A 
ATOM     15  C   UNL     1       7.712  -1.053   5.008  0.00  0.00    +0.000 A 
ATOM     16  C   UNL     1       8.222  -2.325   4.725  0.00  0.00    +0.000 A 
ATOM     17  C   UNL     1       8.350  -2.721   3.390  0.00  0.00    +0.000 A 
ATOM     18  C   UNL     1       7.944  -1.871   2.357  0.00  0.00    +0.000 A 
ATOM     19  C   UNL     1       8.687  -3.221   5.833  0.00  0.00    +0.000 C 
ENDBRANCH  12  13
ENDBRANCH   1  12
TORSDOF 5
