MODEL 1
REMARK VINA RESULT:      -4.6      0.000      0.000
REMARK  Name = *****
REMARK  4 active torsions:
REMARK  status: ('A' for Active; 'I' for Inactive)
REMARK    1  A    between atoms: C_4  and  C_7
REMARK    2  A    between atoms: C_7  and  N_8
REMARK    3  A    between atoms: N_8  and  C_9
REMARK    4  A    between atoms: C_13  and  C_15
REMARK                            x       y       z     vdW  Elec       q    Type
REMARK                         _______ _______ _______ _____ _____    ______ ____
ROOT
ATOM      1  C   UNL     1     103.927 124.888  80.922  0.00  0.00    +0.000 A 
ATOM      2  C   UNL     1     104.677 125.405  79.872  0.00  0.00    +0.000 A 
ATOM      3  C   UNL     1     105.683 124.622  79.309  0.00  0.00    +0.000 A 
ATOM      4  C   UNL     1     105.925 123.335  79.803  0.00  0.00    +0.000 A 
ATOM      5  C   UNL     1     105.158 122.814  80.860  0.00  0.00    +0.000 A 
ATOM      6  C   UNL     1     104.153 123.612  81.426  0.00  0.00    +0.000 A 
ENDROOT
BRANCH   5   7
ATOM      7  C   UNL     1     105.430 121.437  81.408  0.00  0.00    +0.000 C 
ATOM      8  F   UNL     1     105.613 121.422  82.759  0.00  0.00    +0.000 F 
ATOM      9  F   UNL     1     104.411 120.569  81.160  0.00  0.00    +0.000 F 
ATOM     10  F   UNL     1     106.546 120.864  80.877  0.00  0.00    +0.000 F 
ENDBRANCH   5   7
BRANCH   1  11
ATOM     11  N   UNL     1     102.933 125.667  81.486  0.00  0.00    +0.000 NA
BRANCH  11  12
ATOM     12  C   UNL     1     102.132 126.295  81.941  0.00  0.00    +0.000 C 
BRANCH  12  16
ATOM     13  C   UNL     1      99.094 128.672  83.661  0.00  0.00    +0.000 A 
ATOM     14  C   UNL     1      98.758 127.533  82.928  0.00  0.00    +0.000 A 
ATOM     15  C   UNL     1      99.762 126.748  82.359  0.00  0.00    +0.000 A 
ATOM     16  C   UNL     1     101.103 127.100  82.524  0.00  0.00    +0.000 A 
ATOM     17  C   UNL     1     101.438 128.240  83.259  0.00  0.00    +0.000 A 
ATOM     18  C   UNL     1     100.433 129.025  83.826  0.00  0.00    +0.000 A 
ENDBRANCH  12  16
ENDBRANCH  11  12
ENDBRANCH   1  11
TORSDOF 4
ENDMDL
