MODEL 1
REMARK VINA RESULT:      -4.9      0.000      0.000
REMARK  Name = *****
REMARK  2 active torsions:
REMARK  status: ('A' for Active; 'I' for Inactive)
REMARK    1  A    between atoms: C_6  and  C_9
REMARK    2  A    between atoms: C_10  and  C_11
REMARK                            x       y       z     vdW  Elec       q    Type
REMARK                         _______ _______ _______ _____ _____    ______ ____
ROOT
ATOM      1  C   UNL     1     105.423 121.941  80.800  0.00  0.00    +0.000 C 
ATOM      2  C   UNL     1     106.169 121.982  82.132  0.00  0.00    +0.000 C 
ATOM      3  C   UNL     1     105.933 123.231  82.961  0.00  0.00    +0.000 C 
ATOM      4  C   UNL     1     104.470 123.600  83.034  0.00  0.00    +0.000 C 
ATOM      5  O   UNL     1     103.781 123.290  84.006  0.00  0.00    +0.000 OA
ATOM      6  C   UNL     1     103.896 124.397  81.899  0.00  0.00    +0.000 C 
ATOM      7  C   UNL     1     104.343 124.269  80.636  0.00  0.00    +0.000 C 
ATOM      8  C   UNL     1     105.335 123.285  80.074  0.00  0.00    +0.000 C 
ENDROOT
BRANCH   6   9
ATOM      9  C   UNL     1     102.857 125.332  82.183  0.00  0.00    +0.000 C 
ATOM     10  C   UNL     1     101.990 126.127  82.429  0.00  0.00    +0.000 C 
BRANCH  10  11
ATOM     11  C   UNL     1     100.969 127.081  82.730  0.00  0.00    +0.000 A 
ATOM     12  C   UNL     1      99.638 126.813  82.400  0.00  0.00    +0.000 A 
ATOM     13  C   UNL     1      98.644 127.749  82.695  0.00  0.00    +0.000 A 
ATOM     14  C   UNL     1      98.980 128.951  83.319  0.00  0.00    +0.000 A 
ATOM     15  C   UNL     1     100.308 129.219  83.649  0.00  0.00    +0.000 A 
ATOM     16  C   UNL     1     101.303 128.285  83.355  0.00  0.00    +0.000 A 
ENDBRANCH  10  11
ENDBRANCH   6   9
TORSDOF 2
ENDMDL
