MODEL 1
REMARK VINA RESULT:      -5.2      0.000      0.000
REMARK  Name = *****
REMARK  2 active torsions:
REMARK  status: ('A' for Active; 'I' for Inactive)
REMARK    1  A    between atoms: C_1  and  C_2
REMARK    2  A    between atoms: C_9  and  C_11
REMARK                            x       y       z     vdW  Elec       q    Type
REMARK                         _______ _______ _______ _____ _____    ______ ____
ROOT
ATOM      1  C   UNL     1      99.405 130.801  84.363  0.00  0.00    +0.000 C 
ATOM      2  C   UNL     1      99.829 129.492  83.759  0.00  0.00    +0.000 A 
ATOM      3  C   UNL     1     101.179 129.093  83.805  0.00  0.00    +0.000 A 
ATOM      4  C   UNL     1     101.534 127.863  83.234  0.00  0.00    +0.000 A 
ATOM      5  C   UNL     1     100.549 127.088  82.649  0.00  0.00    +0.000 A 
ATOM      6  C   UNL     1      99.207 127.433  82.578  0.00  0.00    +0.000 A 
ATOM      7  C   UNL     1      98.866 128.664  83.153  0.00  0.00    +0.000 A 
ATOM      8  O   UNL     1     101.139 125.956  82.173  0.00  0.00    +0.000 OA
ATOM      9  C   UNL     1     102.464 126.104  82.497  0.00  0.00    +0.000 A 
ATOM     10  N   UNL     1     102.746 127.230  83.132  0.00  0.00    +0.000 NA
ENDROOT
BRANCH   9  11
ATOM     11  C   UNL     1     103.374 125.029  82.113  0.00  0.00    +0.000 A 
ATOM     12  C   UNL     1     103.831 124.136  83.098  0.00  0.00    +0.000 A 
ATOM     13  C   UNL     1     104.703 123.091  82.777  0.00  0.00    +0.000 A 
ATOM     14  C   UNL     1     105.134 122.922  81.464  0.00  0.00    +0.000 A 
ATOM     15  C   UNL     1     104.692 123.798  80.475  0.00  0.00    +0.000 A 
ATOM     16  C   UNL     1     103.821 124.839  80.801  0.00  0.00    +0.000 A 
ATOM     17  F   UNL     1     103.430 125.651  79.808  0.00  0.00    +0.000 F 
ENDBRANCH   9  11
TORSDOF 1
ENDMDL
