MODEL 1
REMARK VINA RESULT:      -3.9      0.000      0.000
REMARK  Name = *****
REMARK  3 active torsions:
REMARK  status: ('A' for Active; 'I' for Inactive)
REMARK    1  A    between atoms: C_4  and  C_6
REMARK    2  A    between atoms: C_6  and  O_8
REMARK    3  A    between atoms: O_8  and  C_9
REMARK                            x       y       z     vdW  Elec       q    Type
REMARK                         _______ _______ _______ _____ _____    ______ ____
ROOT
ATOM      1  O   UNL     1     103.244 125.174  80.352  0.00  0.00    +0.000 OA
ENDROOT
BRANCH   1   2
ATOM      2  C   UNL     1     102.919 126.175  81.292  0.00  0.00    +0.000 A 
ATOM      3  C   UNL     1     103.734 127.300  81.391  0.00  0.00    +0.000 A 
ATOM      4  C   UNL     1     103.385 128.306  82.293  0.00  0.00    +0.000 A 
ATOM      5  C   UNL     1     102.226 128.177  83.062  0.00  0.00    +0.000 A 
ATOM      6  C   UNL     1     101.406 127.053  82.935  0.00  0.00    +0.000 A 
ATOM      7  C   UNL     1     101.748 126.043  82.037  0.00  0.00    +0.000 A 
ATOM      8 CL   UNL     1     101.797 129.422  84.171  0.00  0.00    +0.000 Cl
ENDBRANCH   1   2
BRANCH   1   9
ATOM      9  C   UNL     1     104.463 124.483  80.344  0.00  0.00    +0.000 C 
ATOM     10  S   UNL     1     105.720 124.829  79.301  0.00  0.00    +0.000 S 
BRANCH   9  14
ATOM     11  C   UNL     1     104.516 122.242  83.373  0.00  0.00    +0.000 A 
ATOM     12  C   UNL     1     104.744 121.225  82.478  0.00  0.00    +0.000 A 
ATOM     13  S   UNL     1     104.807 121.793  80.870  0.00  0.00    +0.000 S 
ATOM     14  C   UNL     1     104.527 123.427  81.343  0.00  0.00    +0.000 A 
ATOM     15  C   UNL     1     104.390 123.504  82.723  0.00  0.00    +0.000 A 
ENDBRANCH   9  14
ENDBRANCH   1   9
TORSDOF 3
ENDMDL
