MODEL 1
REMARK VINA RESULT:      -4.7      0.000      0.000
REMARK  Name = *****
REMARK  4 active torsions:
REMARK  status: ('A' for Active; 'I' for Inactive)
REMARK    1  A    between atoms: C_1  and  C_2
REMARK    2  A    between atoms: C_7  and  N_8
REMARK    3  A    between atoms: N_8  and  O_19
REMARK    4  A    between atoms: C_9  and  C_11
REMARK                            x       y       z     vdW  Elec       q    Type
REMARK                         _______ _______ _______ _____ _____    ______ ____
ROOT
ATOM      1  N   UNL     1     102.507 126.404  81.987  0.00  0.00    +0.000 N 
ATOM      2  C   UNL     1     103.216 125.353  82.562  0.00  0.00    +0.000 C 
ATOM      3  O   UNL     1     102.983 124.781  83.623  0.00  0.00    +0.000 OA
ENDROOT
BRANCH   2   4
ATOM      4  C   UNL     1     104.382 124.851  81.805  0.00  0.00    +0.000 A 
ATOM      5  C   UNL     1     105.637 125.465  81.884  0.00  0.00    +0.000 A 
ATOM      6  C   UNL     1     106.709 124.943  81.154  0.00  0.00    +0.000 A 
ATOM      7  C   UNL     1     106.523 123.808  80.366  0.00  0.00    +0.000 A 
ATOM      8  C   UNL     1     105.278 123.179  80.302  0.00  0.00    +0.000 A 
ATOM      9  C   UNL     1     104.205 123.696  81.028  0.00  0.00    +0.000 A 
ATOM     10 CL   UNL     1     107.843 123.168  79.469  0.00  0.00    +0.000 Cl
ATOM     11 CL   UNL     1     105.936 126.841  82.884  0.00  0.00    +0.000 Cl
ENDBRANCH   2   4
BRANCH   1  18
ATOM     12  C   UNL     1     102.733 128.881  83.711  0.00  0.00    +0.000 C 
ATOM     13  C   UNL     1     101.435 128.259  83.263  0.00  0.00    +0.000 A 
ATOM     14  C   UNL     1     100.250 128.903  83.680  0.00  0.00    +0.000 A 
ATOM     15  C   UNL     1      98.999 128.367  83.394  0.00  0.00    +0.000 A 
ATOM     16  C   UNL     1      98.911 127.176  82.690  0.00  0.00    +0.000 A 
ATOM     17  C   UNL     1     100.073 126.534  82.254  0.00  0.00    +0.000 A 
ATOM     18  C   UNL     1     101.352 127.065  82.505  0.00  0.00    +0.000 A 
ENDBRANCH   1  18
BRANCH   1  19
ATOM     19  O   UNL     1     102.885 126.748  80.666  0.00  0.00    +0.000 OA
ATOM     20  H   UNL     1     102.978 127.711  80.597  0.00  0.00    +0.000 HD
ENDBRANCH   1  19
TORSDOF 3
ENDMDL
