REMARK  Name = *****
REMARK  3 active torsions:
REMARK  status: ('A' for Active; 'I' for Inactive)
REMARK    1  A    between atoms: C_4  and  C_7
REMARK    2  A    between atoms: N_8  and  C_9
REMARK    3  A    between atoms: C_12  and  C_15
REMARK                            x       y       z     vdW  Elec       q    Type
REMARK                         _______ _______ _______ _____ _____    ______ ____
ROOT
ATOM      1  C   UNL     1      -5.005  -0.374  -0.840  0.00  0.00    +0.000 A 
ATOM      2  C   UNL     1      -5.533   0.366  -1.900  0.00  0.00    +0.000 A 
ATOM      3  C   UNL     1      -6.905   0.625  -1.970  0.00  0.00    +0.000 A 
ATOM      4  C   UNL     1      -7.772   0.141  -0.978  0.00  0.00    +0.000 A 
ATOM      5  C   UNL     1      -7.239  -0.624   0.071  0.00  0.00    +0.000 A 
ATOM      6  C   UNL     1      -5.866  -0.878   0.136  0.00  0.00    +0.000 A 
ENDROOT
BRANCH   4   7
ATOM      7  C   UNL     1      -9.256   0.399  -1.068  0.00  0.00    +0.000 C 
ATOM      8  F   UNL     1      -9.552   1.620  -1.594  0.00  0.00    +0.000 F 
ATOM      9  F   UNL     1      -9.895  -0.512  -1.853  0.00  0.00    +0.000 F 
ATOM     10  F   UNL     1      -9.883   0.356   0.141  0.00  0.00    +0.000 F 
ENDBRANCH   4   7
BRANCH   1  12
ATOM     11  C   UNL     1      -2.897   0.260  -0.220  0.00  0.00    +0.000 C 
ATOM     12  N   UNL     1      -3.633  -0.649  -0.778  0.00  0.00    +0.000 NA
BRANCH  11  16
ATOM     13  C   UNL     1       1.328  -0.135   0.194  0.00  0.00    +0.000 A 
ATOM     14  C   UNL     1       0.595  -1.161  -0.403  0.00  0.00    +0.000 A 
ATOM     15  C   UNL     1      -0.788  -1.042  -0.544  0.00  0.00    +0.000 A 
ATOM     16  C   UNL     1      -1.435   0.109  -0.084  0.00  0.00    +0.000 A 
ATOM     17  C   UNL     1      -0.704   1.138   0.515  0.00  0.00    +0.000 A 
ATOM     18  C   UNL     1       0.680   1.013   0.652  0.00  0.00    +0.000 A 
ENDBRANCH  11  16
ENDBRANCH   1  12
TORSDOF 3
