MODEL 1
REMARK VINA RESULT:      -4.0      0.000      0.000
REMARK  Name = *****
REMARK  2 active torsions:
REMARK  status: ('A' for Active; 'I' for Inactive)
REMARK    1  A    between atoms: C_5  and  S_8
REMARK    2  A    between atoms: S_8  and  C_9
REMARK                            x       y       z     vdW  Elec       q    Type
REMARK                         _______ _______ _______ _____ _____    ______ ____
ROOT
ATOM      1  C   UNL     1     106.015 127.424  80.551  0.00  0.00    +0.000 C 
ATOM      2  C   UNL     1     106.076 125.995  80.023  0.00  0.00    +0.000 C 
ATOM      3  C   UNL     1     105.336 124.954  80.857  0.00  0.00    +0.000 C 
ATOM      4  C   UNL     1     103.857 124.848  80.483  0.00  0.00    +0.000 C 
ATOM      5  C   UNL     1     102.940 125.982  80.960  0.00  0.00    +0.000 C 
ATOM      6  C   UNL     1     103.433 127.391  80.581  0.00  0.00    +0.000 C 
ATOM      7  C   UNL     1     104.729 127.864  81.242  0.00  0.00    +0.000 C 
ENDROOT
BRANCH   5   8
ATOM      8  S   UNL     1     102.599 125.876  82.775  0.00  0.00    +0.000 S 
BRANCH   8   9
ATOM      9  C   UNL     1     101.204 126.978  82.928  0.00  0.00    +0.000 A 
ATOM     10  C   UNL     1     101.381 128.220  83.545  0.00  0.00    +0.000 A 
ATOM     11  C   UNL     1     100.309 129.105  83.669  0.00  0.00    +0.000 A 
ATOM     12  C   UNL     1      99.056 128.757  83.168  0.00  0.00    +0.000 A 
ATOM     13  C   UNL     1      98.877 127.527  82.536  0.00  0.00    +0.000 A 
ATOM     14  C   UNL     1      99.949 126.642  82.411  0.00  0.00    +0.000 A 
ENDBRANCH   8   9
ENDBRANCH   5   8
TORSDOF 2
ENDMDL
