REMARK  Name = *****
REMARK  3 active torsions:
REMARK  status: ('A' for Active; 'I' for Inactive)
REMARK    1  A    between atoms: C_4  and  C_7
REMARK    2  A    between atoms: C_7  and  C_8
REMARK    3  A    between atoms: C_8  and  C_10
REMARK                            x       y       z     vdW  Elec       q    Type
REMARK                         _______ _______ _______ _____ _____    ______ ____
ROOT
ATOM      1  C   UNL     1       3.383  -1.972   0.361  0.00  0.00    +0.000 C 
ATOM      2  O   UNL     1       2.825  -2.602   1.257  0.00  0.00    +0.000 OA
ENDROOT
BRANCH   1   3
ATOM      3  C   UNL     1       4.714  -2.444  -0.132  0.00  0.00    +0.000 A 
ATOM      4  C   UNL     1       5.487  -1.703  -1.036  0.00  0.00    +0.000 A 
ATOM      5  C   UNL     1       6.731  -2.185  -1.458  0.00  0.00    +0.000 A 
ATOM      6  C   UNL     1       7.205  -3.406  -0.981  0.00  0.00    +0.000 A 
ATOM      7  C   UNL     1       6.447  -4.152  -0.082  0.00  0.00    +0.000 A 
ATOM      8  C   UNL     1       5.205  -3.671   0.342  0.00  0.00    +0.000 A 
ATOM      9 CL   UNL     1       8.735  -3.992  -1.502  0.00  0.00    +0.000 Cl
ENDBRANCH   1   3
BRANCH   1  10
ATOM     10  C   UNL     1       2.782  -0.716  -0.255  0.00  0.00    +0.000 C 
BRANCH  10  14
ATOM     11  C   UNL     1      -1.462   0.388  -0.272  0.00  0.00    +0.000 C 
ATOM     12  C   UNL     1      -1.096  -1.053   0.067  0.00  0.00    +0.000 C 
ATOM     13  C   UNL     1       0.329  -1.390  -0.368  0.00  0.00    +0.000 C 
ATOM     14  C   UNL     1       1.353  -0.411   0.232  0.00  0.00    +0.000 C 
ATOM     15  C   UNL     1       0.974   1.036  -0.127  0.00  0.00    +0.000 C 
ATOM     16  C   UNL     1      -0.451   1.373   0.304  0.00  0.00    +0.000 C 
ENDBRANCH  10  14
ENDBRANCH   1  10
TORSDOF 3
