MODEL 1
REMARK VINA RESULT:      -4.5      0.000      0.000
REMARK  Name = *****
REMARK  3 active torsions:
REMARK  status: ('A' for Active; 'I' for Inactive)
REMARK    1  A    between atoms: C_4  and  C_7
REMARK    2  A    between atoms: C_7  and  O_8
REMARK    3  A    between atoms: O_8  and  C_9
REMARK                            x       y       z     vdW  Elec       q    Type
REMARK                         _______ _______ _______ _____ _____    ______ ____
ROOT
ATOM      1  C   UNL     1      87.763  70.683  85.870  0.00  0.00    +0.000 C 
ATOM      2  F   UNL     1      87.477  69.729  84.939  0.00  0.00    +0.000 F 
ATOM      3  F   UNL     1      88.579  71.590  85.261  0.00  0.00    +0.000 F 
ENDROOT
BRANCH   1   7
ATOM      4  C   UNL     1      84.196  72.498  87.495  0.00  0.00    +0.000 A 
ATOM      5  C   UNL     1      85.166  71.982  88.350  0.00  0.00    +0.000 A 
ATOM      6  C   UNL     1      86.319  71.397  87.826  0.00  0.00    +0.000 A 
ATOM      7  C   UNL     1      86.517  71.326  86.437  0.00  0.00    +0.000 A 
ATOM      8  C   UNL     1      85.526  71.843  85.586  0.00  0.00    +0.000 A 
ATOM      9  C   UNL     1      84.373  72.428  86.113  0.00  0.00    +0.000 A 
ENDBRANCH   1   7
BRANCH   1  10
ATOM     10  O   UNL     1      88.474  70.072  86.950  0.00  0.00    +0.000 OA
BRANCH  10  11
ATOM     11  C   UNL     1      88.765  68.740  86.877  0.00  0.00    +0.000 A 
ATOM     12  C   UNL     1      89.907  68.170  86.314  0.00  0.00    +0.000 A 
ATOM     13  C   UNL     1      90.075  66.781  86.317  0.00  0.00    +0.000 A 
ATOM     14  C   UNL     1      89.103  65.956  86.881  0.00  0.00    +0.000 A 
ATOM     15  C   UNL     1      87.960  66.519  87.440  0.00  0.00    +0.000 A 
ATOM     16  C   UNL     1      87.793  67.904  87.436  0.00  0.00    +0.000 A 
ENDBRANCH  10  11
ENDBRANCH   1  10
TORSDOF 3
ENDMDL
