MODEL 1
REMARK VINA RESULT:      -4.7      0.000      0.000
REMARK  Name = *****
REMARK  3 active torsions:
REMARK  status: ('A' for Active; 'I' for Inactive)
REMARK    1  A    between atoms: C_4  and  C_7
REMARK    2  A    between atoms: C_7  and  C_8
REMARK    3  A    between atoms: C_8  and  C_10
REMARK                            x       y       z     vdW  Elec       q    Type
REMARK                         _______ _______ _______ _____ _____    ______ ____
ROOT
ATOM      1  C   UNL     1      88.146  64.267  86.563  0.00  0.00    +0.000 A 
ATOM      2  C   UNL     1      88.573  65.535  86.956  0.00  0.00    +0.000 A 
ATOM      3  C   UNL     1      89.733  66.079  86.413  0.00  0.00    +0.000 A 
ATOM      4  C   UNL     1      90.473  65.360  85.484  0.00  0.00    +0.000 A 
ATOM      5  C   UNL     1      90.052  64.096  85.094  0.00  0.00    +0.000 A 
ATOM      6  C   UNL     1      88.893  63.549  85.631  0.00  0.00    +0.000 A 
ATOM      7  F   UNL     1      88.509  62.321  85.256  0.00  0.00    +0.000 F 
ATOM      8  F   UNL     1      90.763  63.400  84.196  0.00  0.00    +0.000 F 
ATOM      9  F   UNL     1      91.588  65.887  84.958  0.00  0.00    +0.000 F 
ATOM     10  F   UNL     1      90.132  67.305  86.780  0.00  0.00    +0.000 F 
ATOM     11  F   UNL     1      87.859  66.261  87.827  0.00  0.00    +0.000 F 
ENDROOT
BRANCH   1  12
ATOM     12  C   UNL     1      86.943  63.677  87.171  0.00  0.00    +0.000 C 
ATOM     13  O   UNL     1      85.850  64.071  86.777  0.00  0.00    +0.000 OA
BRANCH  12  14
ATOM     14  C   UNL     1      87.128  62.655  88.279  0.00  0.00    +0.000 C 
BRANCH  14  18
ATOM     15  C   UNL     1      88.168  64.434  92.069  0.00  0.00    +0.000 A 
ATOM     16  C   UNL     1      89.171  64.056  91.178  0.00  0.00    +0.000 A 
ATOM     17  C   UNL     1      88.838  63.480  89.951  0.00  0.00    +0.000 A 
ATOM     18  C   UNL     1      87.494  63.281  89.602  0.00  0.00    +0.000 A 
ATOM     19  C   UNL     1      86.494  63.659  90.509  0.00  0.00    +0.000 A 
ATOM     20  C   UNL     1      86.831  64.233  91.735  0.00  0.00    +0.000 A 
ENDBRANCH  14  18
ENDBRANCH  12  14
ENDBRANCH   1  12
TORSDOF 3
ENDMDL
