MODEL 1
REMARK VINA RESULT:      -5.1      0.000      0.000
REMARK  Name = *****
REMARK  7 active torsions:
REMARK  status: ('A' for Active; 'I' for Inactive)
REMARK    1  A    between atoms: C_1  and  C_2
REMARK    2  A    between atoms: C_4  and  C_11
REMARK    3  A    between atoms: C_5  and  C_8
REMARK    4  A    between atoms: C_8  and  C_10
REMARK    5  A    between atoms: C_11  and  C_12
REMARK    6  A    between atoms: C_12  and  C_13
REMARK    7  A    between atoms: C_18  and  C_19
REMARK                            x       y       z     vdW  Elec       q    Type
REMARK                         _______ _______ _______ _____ _____    ______ ____
ROOT
ATOM      1  C   UNL     1      85.765  71.964  84.194  0.00  0.00    +0.000 C 
ATOM      2  C   UNL     1      86.224  71.642  85.586  0.00  0.00    +0.000 A 
ATOM      3  C   UNL     1      87.434  70.958  85.789  0.00  0.00    +0.000 A 
ATOM      4  C   UNL     1      87.880  70.599  87.074  0.00  0.00    +0.000 A 
ATOM      5  C   UNL     1      87.063  70.955  88.172  0.00  0.00    +0.000 A 
ATOM      6  C   UNL     1      85.843  71.621  87.971  0.00  0.00    +0.000 A 
ATOM      7  C   UNL     1      85.425  71.957  86.685  0.00  0.00    +0.000 A 
ENDROOT
BRANCH   5   8
ATOM      8  C   UNL     1      87.450  70.634  89.576  0.00  0.00    +0.000 C 
ATOM      9  O   UNL     1      86.989  69.650  90.145  0.00  0.00    +0.000 OA
ATOM     10  C   UNL     1      88.398  71.574  90.277  0.00  0.00    +0.000 C 
ENDBRANCH   5   8
BRANCH   4  11
ATOM     11  C   UNL     1      89.199  69.875  87.294  0.00  0.00    +0.000 C 
BRANCH  11  12
ATOM     12  C   UNL     1      89.541  68.655  86.415  0.00  0.00    +0.000 C 
BRANCH  12  13
ATOM     13  C   UNL     1      88.967  67.295  86.784  0.00  0.00    +0.000 A 
ATOM     14  C   UNL     1      87.787  67.174  87.539  0.00  0.00    +0.000 A 
ATOM     15  C   UNL     1      87.270  65.923  87.880  0.00  0.00    +0.000 A 
ATOM     16  C   UNL     1      87.925  64.765  87.481  0.00  0.00    +0.000 A 
ATOM     17  C   UNL     1      89.107  64.859  86.749  0.00  0.00    +0.000 A 
ATOM     18  C   UNL     1      89.646  66.111  86.406  0.00  0.00    +0.000 A 
ATOM     19  C   UNL     1      90.926  66.148  85.614  0.00  0.00    +0.000 C 
ENDBRANCH  12  13
ENDBRANCH  11  12
ENDBRANCH   4  11
TORSDOF 4
ENDMDL
