REMARK  Name = *****
REMARK  2 active torsions:
REMARK  status: ('A' for Active; 'I' for Inactive)
REMARK    1  A    between atoms: C_4  and  C_7
REMARK    2  A    between atoms: N_8  and  C_9
REMARK                            x       y       z     vdW  Elec       q    Type
REMARK                         _______ _______ _______ _____ _____    ______ ____
ROOT
ATOM      1  C   UNL     1      -2.828   0.335  -0.489  0.00  0.00    +0.000 C 
ATOM      2  N   UNL     1      -3.717  -0.517  -0.083  0.00  0.00    +0.000 NA
ENDROOT
BRANCH   2   3
ATOM      3  C   UNL     1      -5.056  -0.209  -0.392  0.00  0.00    +0.000 A 
ATOM      4  C   UNL     1      -5.867   0.303   0.628  0.00  0.00    +0.000 A 
ATOM      5  C   UNL     1      -7.209   0.611   0.392  0.00  0.00    +0.000 A 
ATOM      6  C   UNL     1      -7.760   0.401  -0.870  0.00  0.00    +0.000 A 
ATOM      7  C   UNL     1      -6.972  -0.123  -1.895  0.00  0.00    +0.000 A 
ATOM      8  C   UNL     1      -5.628  -0.432  -1.657  0.00  0.00    +0.000 A 
ATOM      9 CL   UNL     1      -4.703  -1.086  -2.964  0.00  0.00    +0.000 Cl
ENDBRANCH   2   3
BRANCH   1  13
ATOM     10  C   UNL     1       1.346  -0.197   0.197  0.00  0.00    +0.000 A 
ATOM     11  C   UNL     1       0.446  -1.166   0.642  0.00  0.00    +0.000 A 
ATOM     12  C   UNL     1      -0.922  -1.001   0.422  0.00  0.00    +0.000 A 
ATOM     13  C   UNL     1      -1.386   0.136  -0.244  0.00  0.00    +0.000 A 
ATOM     14  C   UNL     1      -0.487   1.108  -0.692  0.00  0.00    +0.000 A 
ATOM     15  C   UNL     1       0.881   0.939  -0.469  0.00  0.00    +0.000 A 
ENDBRANCH   1  13
TORSDOF 2
