REMARK  Name = *****
REMARK  6 active torsions:
REMARK  status: ('A' for Active; 'I' for Inactive)
REMARK    1  A    between atoms: C_1  and  C_2
REMARK    2  A    between atoms: C_4  and  C_8
REMARK    3  A    between atoms: C_8  and  O_9
REMARK    4  A    between atoms: O_9  and  C_10
REMARK    5  A    between atoms: C_10  and  C_12
REMARK    6  A    between atoms: C_16  and  C_18
REMARK                            x       y       z     vdW  Elec       q    Type
REMARK                         _______ _______ _______ _____ _____    ______ ____
ROOT
ATOM      1  O   UNL     1      -1.088   3.616   0.370  0.00  0.00    +0.000 OA
ENDROOT
BRANCH   1   2
ATOM      2  C   UNL     1      -1.391   4.827  -0.155  0.00  0.00    +0.000 C 
ATOM      3  O   UNL     1      -2.308   5.073  -0.922  0.00  0.00    +0.000 OA
BRANCH   2   4
ATOM      4  C   UNL     1      -0.447   5.862   0.350  0.00  0.00    +0.000 A 
ATOM      5  C   UNL     1       0.690   5.538   1.101  0.00  0.00    +0.000 A 
ATOM      6  C   UNL     1       1.549   6.546   1.540  0.00  0.00    +0.000 A 
ATOM      7  C   UNL     1       1.277   7.881   1.236  0.00  0.00    +0.000 A 
ATOM      8  C   UNL     1       0.139   8.223   0.497  0.00  0.00    +0.000 A 
ATOM      9  C   UNL     1      -0.712   7.205   0.044  0.00  0.00    +0.000 A 
ATOM     10  C   UNL     1      -0.137   9.654   0.137  0.00  0.00    +0.000 C 
ENDBRANCH   2   4
ENDBRANCH   1   2
BRANCH   1  11
ATOM     11  C   UNL     1      -1.906   2.524  -0.065  0.00  0.00    +0.000 C 
BRANCH  11  15
ATOM     12  C   UNL     1       1.351  -1.148  -1.235  0.00  0.00    +0.000 C 
ATOM     13  C   UNL     1       0.415  -0.056  -1.662  0.00  0.00    +0.000 A 
ATOM     14  C   UNL     1      -0.296   0.684  -0.708  0.00  0.00    +0.000 A 
ATOM     15  C   UNL     1      -1.153   1.724  -1.096  0.00  0.00    +0.000 A 
ATOM     16  C   UNL     1      -1.266   2.042  -2.455  0.00  0.00    +0.000 A 
ATOM     17  C   UNL     1      -0.548   1.322  -3.410  0.00  0.00    +0.000 A 
ATOM     18  C   UNL     1       0.290   0.280  -3.015  0.00  0.00    +0.000 A 
ENDBRANCH  11  15
ENDBRANCH   1  11
TORSDOF 4
