MODEL 1
REMARK VINA RESULT:      -4.6      0.000      0.000
REMARK  Name = *****
REMARK  6 active torsions:
REMARK  status: ('A' for Active; 'I' for Inactive)
REMARK    1  A    between atoms: C_2  and  C_3
REMARK    2  A    between atoms: C_3  and  C_4
REMARK    3  A    between atoms: C_4  and  C_5
REMARK    4  A    between atoms: C_8  and  C_10
REMARK    5  A    between atoms: C_10  and  C_11
REMARK    6  A    between atoms: C_11  and  C_12
REMARK                            x       y       z     vdW  Elec       q    Type
REMARK                         _______ _______ _______ _____ _____    ______ ____
ROOT
ATOM      1  C   UNL     1      88.692  66.433  86.928  0.00  0.00    +0.000 A 
ATOM      2  C   UNL     1      89.957  66.541  86.400  0.00  0.00    +0.000 A 
ATOM      3  N   UNL     1      90.314  67.860  86.300  0.00  0.00    +0.000 NA
ATOM      4  C   UNL     1      89.259  68.505  86.758  0.00  0.00    +0.000 A 
ATOM      5  O   UNL     1      88.231  67.698  87.163  0.00  0.00    +0.000 OA
ENDROOT
BRANCH   1   6
ATOM      6  C   UNL     1      87.797  65.303  87.268  0.00  0.00    +0.000 C 
BRANCH   6   7
ATOM      7  C   UNL     1      87.721  65.090  88.781  0.00  0.00    +0.000 C 
BRANCH   7   9
ATOM      8  C   UNL     1      89.109  63.809  90.436  0.00  0.00    +0.000 C 
ATOM      9  C   UNL     1      88.559  63.922  89.220  0.00  0.00    +0.000 C 
ENDBRANCH   7   9
ENDBRANCH   6   7
ENDBRANCH   1   6
BRANCH   4  10
ATOM     10  C   UNL     1      89.051  69.968  86.893  0.00  0.00    +0.000 C 
BRANCH  10  11
ATOM     11  C   UNL     1      88.195  70.287  88.117  0.00  0.00    +0.000 C 
BRANCH  11  12
ATOM     12  C   UNL     1      86.936  71.027  87.737  0.00  0.00    +0.000 A 
ATOM     13  C   UNL     1      86.037  71.456  88.725  0.00  0.00    +0.000 A 
ATOM     14  C   UNL     1      84.862  72.120  88.370  0.00  0.00    +0.000 A 
ATOM     15  C   UNL     1      84.573  72.358  87.027  0.00  0.00    +0.000 A 
ATOM     16  C   UNL     1      85.457  71.932  86.038  0.00  0.00    +0.000 A 
ATOM     17  C   UNL     1      86.632  71.267  86.391  0.00  0.00    +0.000 A 
ENDBRANCH  11  12
ENDBRANCH  10  11
ENDBRANCH   4  10
TORSDOF 6
ENDMDL
