MODEL 1
REMARK VINA RESULT:      -4.8      0.000      0.000
REMARK  Name = *****
REMARK  3 active torsions:
REMARK  status: ('A' for Active; 'I' for Inactive)
REMARK    1  A    between atoms: C_4  and  C_7
REMARK    2  A    between atoms: C_8  and  C_16
REMARK    3  A    between atoms: C_9  and  C_10
REMARK                            x       y       z     vdW  Elec       q    Type
REMARK                         _______ _______ _______ _____ _____    ______ ____
ROOT
ATOM      1  C   UNL     1     102.756 126.771  82.575  0.00  0.00    +0.000 C 
ATOM      2  C   UNL     1     103.323 125.771  83.477  0.00  0.00    +0.000 C 
ATOM      3  C   UNL     1     103.001 125.383  82.241  0.00  0.00    +0.000 C 
ENDROOT
BRANCH   1   7
ATOM      4  C   UNL     1      98.742 128.332  83.137  0.00  0.00    +0.000 A 
ATOM      5  C   UNL     1      99.852 129.027  83.602  0.00  0.00    +0.000 A 
ATOM      6  C   UNL     1     101.133 128.498  83.419  0.00  0.00    +0.000 A 
ATOM      7  C   UNL     1     101.345 127.270  82.764  0.00  0.00    +0.000 A 
ATOM      8  C   UNL     1     100.200 126.597  82.296  0.00  0.00    +0.000 A 
ATOM      9  C   UNL     1      98.915 127.115  82.486  0.00  0.00    +0.000 A 
ENDBRANCH   1   7
BRANCH   3  10
ATOM     10  C   UNL     1     103.952 124.818  81.290  0.00  0.00    +0.000 A 
ATOM     11  C   UNL     1     104.481 125.626  80.275  0.00  0.00    +0.000 A 
ATOM     12  C   UNL     1     105.399 125.104  79.360  0.00  0.00    +0.000 A 
ATOM     13  C   UNL     1     105.803 123.774  79.457  0.00  0.00    +0.000 A 
ATOM     14  C   UNL     1     105.295 122.966  80.472  0.00  0.00    +0.000 A 
ATOM     15  C   UNL     1     104.377 123.486  81.387  0.00  0.00    +0.000 A 
ENDBRANCH   3  10
BRANCH   2  16
ATOM     16  C   UNL     1     102.647 125.317  84.635  0.00  0.00    +0.000 C 
ATOM     17  N   UNL     1     102.113 124.922  85.587  0.00  0.00    +0.000 NA
ENDBRANCH   2  16
TORSDOF 3
ENDMDL
