REMARK  Name = *****
REMARK  1 active torsions:
REMARK  status: ('A' for Active; 'I' for Inactive)
REMARK    1  A    between atoms: C_5  and  C_6
REMARK                            x       y       z     vdW  Elec       q    Type
REMARK                         _______ _______ _______ _____ _____    ______ ____
ROOT
ATOM      1  C   UNL     1       4.756  -0.132   2.270  0.00  0.00    +0.000 C 
ATOM      2  C   UNL     1       4.129  -0.208   3.679  0.00  0.00    +0.000 C 
ATOM      3  C   UNL     1       3.317   1.099   3.701  0.00  0.00    +0.000 C 
ATOM      4  C   UNL     1       2.499   0.775   2.434  0.00  0.00    +0.000 C 
ATOM      5  C   UNL     1       3.619   0.497   1.387  0.00  0.00    +0.000 C 
ATOM      6  C   UNL     1       1.965  -0.574   2.870  0.00  0.00    +0.000 A 
ATOM      7  C   UNL     1       0.776  -1.217   2.603  0.00  0.00    +0.000 A 
ATOM      8  C   UNL     1       0.609  -2.500   3.130  0.00  0.00    +0.000 A 
ATOM      9  C   UNL     1       1.626  -3.111   3.893  0.00  0.00    +0.000 A 
ATOM     10  C   UNL     1       2.832  -2.451   4.146  0.00  0.00    +0.000 A 
ATOM     11  C   UNL     1       2.979  -1.183   3.630  0.00  0.00    +0.000 A 
ENDROOT
BRANCH   5  12
ATOM     12  C   UNL     1       4.126   1.668   0.566  0.00  0.00    +0.000 A 
ATOM     13  C   UNL     1       5.015   1.404  -0.492  0.00  0.00    +0.000 A 
ATOM     14  C   UNL     1       5.517   2.436  -1.287  0.00  0.00    +0.000 A 
ATOM     15  C   UNL     1       5.138   3.751  -1.037  0.00  0.00    +0.000 A 
ATOM     16  C   UNL     1       4.258   4.032   0.004  0.00  0.00    +0.000 A 
ATOM     17  C   UNL     1       3.754   2.998   0.800  0.00  0.00    +0.000 A 
ENDBRANCH   5  12
TORSDOF 1
