REMARK  Name = *****
REMARK  3 active torsions:
REMARK  status: ('A' for Active; 'I' for Inactive)
REMARK    1  A    between atoms: C_6  and  C_7
REMARK    2  A    between atoms: C_7  and  C_8
REMARK    3  A    between atoms: C_8  and  C_10
REMARK                            x       y       z     vdW  Elec       q    Type
REMARK                         _______ _______ _______ _____ _____    ______ ____
ROOT
ATOM      1  C   UNL     1       4.487   1.524   0.059  0.00  0.00    +0.000 C 
ATOM      2  O   UNL     1       4.696   2.167  -0.971  0.00  0.00    +0.000 OA
ENDROOT
BRANCH   1   3
ATOM      3  C   UNL     1       4.851   2.128   1.378  0.00  0.00    +0.000 A 
ATOM      4  C   UNL     1       4.464   1.573   2.603  0.00  0.00    +0.000 A 
ATOM      5  C   UNL     1       4.851   2.177   3.806  0.00  0.00    +0.000 A 
ATOM      6  C   UNL     1       5.621   3.340   3.787  0.00  0.00    +0.000 A 
ATOM      7  C   UNL     1       6.003   3.909   2.575  0.00  0.00    +0.000 A 
ATOM      8  C   UNL     1       5.617   3.304   1.375  0.00  0.00    +0.000 A 
ATOM      9  I   UNL     1       6.196   4.228   5.574  0.00  0.00    +0.000 I 
ENDBRANCH   1   3
BRANCH   1  10
ATOM     10  C   UNL     1       3.880   0.134  -0.001  0.00  0.00    +0.000 C 
BRANCH  10  16
ATOM     11  C   UNL     1       1.644  -0.560   0.965  0.00  0.00    +0.000 A 
ATOM     12  C   UNL     1       0.247  -0.571   0.936  0.00  0.00    +0.000 A 
ATOM     13  C   UNL     1      -0.432   0.106  -0.074  0.00  0.00    +0.000 A 
ATOM     14  C   UNL     1       0.273   0.793  -1.058  0.00  0.00    +0.000 A 
ATOM     15  C   UNL     1       1.669   0.806  -1.028  0.00  0.00    +0.000 A 
ATOM     16  C   UNL     1       2.370   0.136  -0.013  0.00  0.00    +0.000 A 
ATOM     17 CL   UNL     1      -2.152   0.085  -0.110  0.00  0.00    +0.000 Cl
ENDBRANCH  10  16
ENDBRANCH   1  10
TORSDOF 3
