REMARK  Name = *****
REMARK  5 active torsions:
REMARK  status: ('A' for Active; 'I' for Inactive)
REMARK    1  A    between atoms: C_1  and  C_2
REMARK    2  A    between atoms: C_5  and  C_8
REMARK    3  A    between atoms: C_8  and  C_10
REMARK    4  A    between atoms: C_10  and  C_11
REMARK    5  A    between atoms: C_16  and  C_17
REMARK                            x       y       z     vdW  Elec       q    Type
REMARK                         _______ _______ _______ _____ _____    ______ ____
ROOT
ATOM      1  C   UNL     1      -2.834   0.087  -0.190  0.00  0.00    +0.000 C 
ATOM      2  O   UNL     1      -2.562  -0.645  -1.143  0.00  0.00    +0.000 OA
ENDROOT
BRANCH   1   7
ATOM      3  C   UNL     1      -0.548  -1.295   4.976  0.00  0.00    +0.000 C 
ATOM      4  C   UNL     1      -1.171  -0.944   3.657  0.00  0.00    +0.000 A 
ATOM      5  C   UNL     1      -0.949  -1.744   2.532  0.00  0.00    +0.000 A 
ATOM      6  C   UNL     1      -1.499  -1.395   1.296  0.00  0.00    +0.000 A 
ATOM      7  C   UNL     1      -2.273  -0.234   1.161  0.00  0.00    +0.000 A 
ATOM      8  C   UNL     1      -2.482   0.575   2.283  0.00  0.00    +0.000 A 
ATOM      9  C   UNL     1      -1.929   0.224   3.519  0.00  0.00    +0.000 A 
ENDBRANCH   1   7
BRANCH   1  10
ATOM     10  C   UNL     1      -3.734   1.297  -0.372  0.00  0.00    +0.000 C 
BRANCH  10  11
ATOM     11  C   UNL     1      -3.018   2.633  -0.369  0.00  0.00    +0.000 A 
ATOM     12  C   UNL     1      -1.759   2.747  -0.988  0.00  0.00    +0.000 A 
ATOM     13  C   UNL     1      -1.075   3.962  -1.013  0.00  0.00    +0.000 A 
ATOM     14  C   UNL     1      -1.645   5.090  -0.435  0.00  0.00    +0.000 A 
ATOM     15  C   UNL     1      -2.906   5.006   0.153  0.00  0.00    +0.000 A 
ATOM     16  C   UNL     1      -3.612   3.792   0.179  0.00  0.00    +0.000 A 
ATOM     17  C   UNL     1      -4.981   3.769   0.805  0.00  0.00    +0.000 C 
ENDBRANCH  10  11
ENDBRANCH   1  10
TORSDOF 3
