MODEL 1
REMARK VINA RESULT:      -4.6      0.000      0.000
REMARK  Name = *****
REMARK  4 active torsions:
REMARK  status: ('A' for Active; 'I' for Inactive)
REMARK    1  A    between atoms: C_1  and  C_2
REMARK    2  A    between atoms: C_4  and  C_8
REMARK    3  A    between atoms: C_8  and  O_10
REMARK    4  A    between atoms: O_10  and  C_11
REMARK                            x       y       z     vdW  Elec       q    Type
REMARK                         _______ _______ _______ _____ _____    ______ ____
ROOT
ATOM      1  C   UNL     1     102.565 126.844  83.539  0.00  0.00    +0.000 C 
ATOM      2  O   UNL     1     103.559 127.465  83.886  0.00  0.00    +0.000 OA
ENDROOT
BRANCH   1   6
ATOM      3  C   UNL     1      99.401 130.772  83.938  0.00  0.00    +0.000 C 
ATOM      4  C   UNL     1      99.698 129.371  83.492  0.00  0.00    +0.000 A 
ATOM      5  C   UNL     1     100.963 128.808  83.718  0.00  0.00    +0.000 A 
ATOM      6  C   UNL     1     101.236 127.487  83.331  0.00  0.00    +0.000 A 
ATOM      7  C   UNL     1     100.228 126.727  82.722  0.00  0.00    +0.000 A 
ATOM      8  C   UNL     1      98.963 127.277  82.511  0.00  0.00    +0.000 A 
ATOM      9  C   UNL     1      98.698 128.590  82.898  0.00  0.00    +0.000 A 
ENDBRANCH   1   6
BRANCH   1  10
ATOM     10  O   UNL     1     102.472 125.488  83.282  0.00  0.00    +0.000 OA
BRANCH  10  11
ATOM     11  C   UNL     1     103.346 124.965  82.319  0.00  0.00    +0.000 A 
ATOM     12  C   UNL     1     103.367 125.446  81.011  0.00  0.00    +0.000 A 
ATOM     13  C   UNL     1     104.212 124.847  80.077  0.00  0.00    +0.000 A 
ATOM     14  C   UNL     1     105.012 123.765  80.450  0.00  0.00    +0.000 A 
ATOM     15  C   UNL     1     104.967 123.275  81.757  0.00  0.00    +0.000 A 
ATOM     16  C   UNL     1     104.125 123.871  82.695  0.00  0.00    +0.000 A 
ENDBRANCH  10  11
ENDBRANCH   1  10
TORSDOF 3
ENDMDL
