MODEL 1
REMARK VINA RESULT:      -3.8      0.000      0.000
REMARK  Name = *****
REMARK  4 active torsions:
REMARK  status: ('A' for Active; 'I' for Inactive)
REMARK    1  A    between atoms: C_3  and  C_7
REMARK    2  A    between atoms: C_7  and  O_8
REMARK    3  A    between atoms: O_8  and  C_9
REMARK    4  A    between atoms: C_9  and  C_10
REMARK                            x       y       z     vdW  Elec       q    Type
REMARK                         _______ _______ _______ _____ _____    ______ ____
ROOT
ATOM      1  O   UNL     1      95.426 119.036  80.581  0.00  0.00    +0.000 OA
ENDROOT
BRANCH   1   2
ATOM      2  C   UNL     1      95.796 118.952  81.958  0.00  0.00    +0.000 C 
BRANCH   2   5
ATOM      3  C   UNL     1      98.841 119.505  81.548  0.00  0.00    +0.000 C 
ATOM      4  C   UNL     1      97.709 120.529  81.411  0.00  0.00    +0.000 C 
ATOM      5  C   UNL     1      96.531 120.242  82.354  0.00  0.00    +0.000 C 
ATOM      6  C   UNL     1      97.023 120.196  83.815  0.00  0.00    +0.000 C 
ATOM      7  C   UNL     1      98.318 119.452  83.992  0.00  0.00    +0.000 C 
ATOM      8  C   UNL     1      99.126 119.131  82.971  0.00  0.00    +0.000 C 
ENDBRANCH   2   5
ENDBRANCH   1   2
BRANCH   1   9
ATOM      9  C   UNL     1      95.312 117.745  79.981  0.00  0.00    +0.000 C 
BRANCH   9  10
ATOM     10  C   UNL     1      96.553 116.912  80.343  0.00  0.00    +0.000 C 
ATOM     11  C   UNL     1      97.662 117.024  79.281  0.00  0.00    +0.000 C 
ATOM     12  C   UNL     1      97.260 116.391  77.945  0.00  0.00    +0.000 C 
ATOM     13  C   UNL     1      96.531 115.088  78.108  0.00  0.00    +0.000 C 
ATOM     14  C   UNL     1      96.060 114.650  79.285  0.00  0.00    +0.000 C 
ATOM     15  C   UNL     1      96.184 115.435  80.561  0.00  0.00    +0.000 C 
ENDBRANCH   9  10
ENDBRANCH   1   9
TORSDOF 4
ENDMDL
