MODEL 1
REMARK VINA RESULT:      -4.6      0.000      0.000
REMARK  Name = *****
REMARK  2 active torsions:
REMARK  status: ('A' for Active; 'I' for Inactive)
REMARK    1  A    between atoms: C_2  and  C_11
REMARK    2  A    between atoms: C_3  and  C_4
REMARK                            x       y       z     vdW  Elec       q    Type
REMARK                         _______ _______ _______ _____ _____    ______ ____
ROOT
ATOM      1  C   UNL     1      88.995  69.759  87.606  0.00  0.00    +0.000 C 
ATOM      2  C   UNL     1      88.228  68.750  86.792  0.00  0.00    +0.000 C 
ATOM      3  C   UNL     1      88.192  70.229  86.417  0.00  0.00    +0.000 C 
ATOM      4 CL   UNL     1      89.147  70.821  85.039  0.00  0.00    +0.000 Cl
ENDROOT
BRANCH   2   5
ATOM      5  C   UNL     1      88.955  67.716  85.959  0.00  0.00    +0.000 A 
ATOM      6  C   UNL     1      90.188  67.178  86.367  0.00  0.00    +0.000 A 
ATOM      7  C   UNL     1      90.846  66.203  85.610  0.00  0.00    +0.000 A 
ATOM      8  C   UNL     1      90.272  65.741  84.431  0.00  0.00    +0.000 A 
ATOM      9  C   UNL     1      89.046  66.242  84.008  0.00  0.00    +0.000 A 
ATOM     10  C   UNL     1      88.394  67.216  84.770  0.00  0.00    +0.000 A 
ATOM     11 CL   UNL     1      91.076  64.540  83.498  0.00  0.00    +0.000 Cl
ENDBRANCH   2   5
BRANCH   3  12
ATOM     12  C   UNL     1      86.909  71.009  86.630  0.00  0.00    +0.000 A 
ATOM     13  C   UNL     1      86.139  71.468  85.546  0.00  0.00    +0.000 A 
ATOM     14  C   UNL     1      84.955  72.186  85.744  0.00  0.00    +0.000 A 
ATOM     15  C   UNL     1      84.513  72.455  87.034  0.00  0.00    +0.000 A 
ATOM     16  C   UNL     1      85.247  72.005  88.126  0.00  0.00    +0.000 A 
ATOM     17  C   UNL     1      86.430  71.287  87.923  0.00  0.00    +0.000 A 
ENDBRANCH   3  12
TORSDOF 2
ENDMDL
