MODEL 1
REMARK VINA RESULT:      -4.2      0.000      0.000
REMARK  Name = *****
REMARK  5 active torsions:
REMARK  status: ('A' for Active; 'I' for Inactive)
REMARK    1  A    between atoms: C_2  and  C_3
REMARK    2  A    between atoms: C_3  and  O_4
REMARK    3  A    between atoms: O_4  and  C_5
REMARK    4  A    between atoms: C_5  and  C_13
REMARK    5  A    between atoms: N_6  and  C_7
REMARK                            x       y       z     vdW  Elec       q    Type
REMARK                         _______ _______ _______ _____ _____    ______ ____
ROOT
ATOM      1  C   UNL     1      88.026  64.057  87.731  0.00  0.00    +0.000 C 
ATOM      2  N   UNL     1      87.245  63.116  87.300  0.00  0.00    +0.000 NA
ENDROOT
BRANCH   2   3
ATOM      3  C   UNL     1      86.181  62.639  88.073  0.00  0.00    +0.000 A 
ATOM      4  C   UNL     1      86.352  61.589  88.982  0.00  0.00    +0.000 A 
ATOM      5  C   UNL     1      85.283  61.147  89.763  0.00  0.00    +0.000 A 
ATOM      6  C   UNL     1      84.038  61.764  89.651  0.00  0.00    +0.000 A 
ATOM      7  C   UNL     1      83.864  62.828  88.768  0.00  0.00    +0.000 A 
ATOM      8  C   UNL     1      84.936  63.268  87.988  0.00  0.00    +0.000 A 
ENDBRANCH   2   3
BRANCH   1   9
ATOM      9  C   UNL     1      89.070  64.681  86.870  0.00  0.00    +0.000 A 
ATOM     10  C   UNL     1      89.292  66.065  86.854  0.00  0.00    +0.000 A 
ATOM     11  C   UNL     1      90.284  66.612  86.033  0.00  0.00    +0.000 A 
ATOM     12  C   UNL     1      91.058  65.781  85.225  0.00  0.00    +0.000 A 
ATOM     13  C   UNL     1      90.845  64.404  85.234  0.00  0.00    +0.000 A 
ATOM     14  C   UNL     1      89.855  63.855  86.053  0.00  0.00    +0.000 A 
ENDBRANCH   1   9
BRANCH   1  15
ATOM     15  O   UNL     1      88.005  64.633  88.959  0.00  0.00    +0.000 OA
BRANCH  15  16
ATOM     16  C   UNL     1      88.831  64.020  89.959  0.00  0.00    +0.000 C 
BRANCH  16  18
ATOM     17  C   UNL     1      86.777  64.411  91.357  0.00  0.00    +0.000 C 
ATOM     18  C   UNL     1      88.064  64.059  91.247  0.00  0.00    +0.000 C 
ENDBRANCH  16  18
ENDBRANCH  15  16
ENDBRANCH   1  15
TORSDOF 5
ENDMDL
