REMARK  Name = *****
REMARK  4 active torsions:
REMARK  status: ('A' for Active; 'I' for Inactive)
REMARK    1  A    between atoms: C_4  and  C_8
REMARK    2  A    between atoms: C_8  and  O_10
REMARK    3  A    between atoms: O_10  and  C_11
REMARK    4  A    between atoms: C_11  and  C_12
REMARK                            x       y       z     vdW  Elec       q    Type
REMARK                         _______ _______ _______ _____ _____    ______ ____
ROOT
ATOM      1  C   UNL     1      -2.816   1.171  -0.070  0.00  0.00    +0.000 C 
ATOM      2  O   UNL     1      -3.523   2.023   0.454  0.00  0.00    +0.000 OA
ENDROOT
BRANCH   1   6
ATOM      3  C   UNL     1      -0.744   2.353   1.941  0.00  0.00    +0.000 C 
ATOM      4  C   UNL     1       0.444   1.854   1.113  0.00  0.00    +0.000 C 
ATOM      5  C   UNL     1      -0.272   1.224  -0.104  0.00  0.00    +0.000 C 
ATOM      6  C   UNL     1      -1.542   0.591   0.536  0.00  0.00    +0.000 C 
ATOM      7  C   UNL     1      -1.385   0.960   2.034  0.00  0.00    +0.000 C 
ATOM      8  C   UNL     1      -0.190   0.207   2.586  0.00  0.00    +0.000 C 
ATOM      9  C   UNL     1       0.905   0.738   2.020  0.00  0.00    +0.000 C 
ATOM     10  F   UNL     1      -1.506  -0.766   0.389  0.00  0.00    +0.000 F 
ENDBRANCH   1   6
BRANCH   1  11
ATOM     11  O   UNL     1      -3.032   0.626  -1.301  0.00  0.00    +0.000 OA
BRANCH  11  12
ATOM     12  C   UNL     1      -4.147   1.150  -2.030  0.00  0.00    +0.000 C 
BRANCH  12  13
ATOM     13  C   UNL     1      -3.671   2.255  -2.936  0.00  0.00    +0.000 A 
ATOM     14  C   UNL     1      -3.007   1.953  -4.134  0.00  0.00    +0.000 A 
ATOM     15  C   UNL     1      -2.545   2.976  -4.963  0.00  0.00    +0.000 A 
ATOM     16  C   UNL     1      -2.733   4.308  -4.599  0.00  0.00    +0.000 A 
ATOM     17  C   UNL     1      -3.380   4.619  -3.405  0.00  0.00    +0.000 A 
ATOM     18  C   UNL     1      -3.844   3.597  -2.574  0.00  0.00    +0.000 A 
ENDBRANCH  12  13
ENDBRANCH  11  12
ENDBRANCH   1  11
TORSDOF 4
