MODEL 1
REMARK VINA RESULT:      -4.4      0.000      0.000
REMARK  Name = *****
REMARK  6 active torsions:
REMARK  status: ('A' for Active; 'I' for Inactive)
REMARK    1  A    between atoms: C_1  and  C_2
REMARK    2  A    between atoms: C_2  and  O_3
REMARK    3  A    between atoms: O_3  and  C_4
REMARK    4  A    between atoms: C_8  and  C_10
REMARK    5  A    between atoms: C_10  and  C_11
REMARK    6  A    between atoms: C_11  and  C_12
REMARK                            x       y       z     vdW  Elec       q    Type
REMARK                         _______ _______ _______ _____ _____    ______ ____
ROOT
ATOM      1  C   UNL     1      88.640  65.615  87.190  0.00  0.00    +0.000 A 
ATOM      2  N   UNL     1      89.457  64.836  86.451  0.00  0.00    +0.000 NA
ATOM      3  C   UNL     1      90.323  65.476  85.636  0.00  0.00    +0.000 A 
ATOM      4  C   UNL     1      90.409  66.856  85.526  0.00  0.00    +0.000 A 
ATOM      5  C   UNL     1      89.555  67.644  86.301  0.00  0.00    +0.000 A 
ATOM      6  C   UNL     1      88.647  67.002  87.148  0.00  0.00    +0.000 A 
ENDROOT
BRANCH   1   7
ATOM      7  O   UNL     1      87.727  65.039  88.052  0.00  0.00    +0.000 OA
BRANCH   7   9
ATOM      8  C   UNL     1      88.742  63.911  89.890  0.00  0.00    +0.000 C 
ATOM      9  C   UNL     1      88.125  63.747  88.511  0.00  0.00    +0.000 C 
ENDBRANCH   7   9
ENDBRANCH   1   7
BRANCH   5  10
ATOM     10  C   UNL     1      89.599  69.148  86.214  0.00  0.00    +0.000 C 
BRANCH  10  11
ATOM     11  C   UNL     1      89.166  69.810  87.526  0.00  0.00    +0.000 C 
BRANCH  11  12
ATOM     12  C   UNL     1      87.866  70.560  87.369  0.00  0.00    +0.000 A 
ATOM     13  C   UNL     1      87.110  70.913  88.495  0.00  0.00    +0.000 A 
ATOM     14  C   UNL     1      85.897  71.589  88.349  0.00  0.00    +0.000 A 
ATOM     15  C   UNL     1      85.430  71.916  87.077  0.00  0.00    +0.000 A 
ATOM     16  C   UNL     1      86.173  71.567  85.951  0.00  0.00    +0.000 A 
ATOM     17  C   UNL     1      87.384  70.889  86.096  0.00  0.00    +0.000 A 
ENDBRANCH  11  12
ENDBRANCH  10  11
ENDBRANCH   5  10
TORSDOF 5
ENDMDL
