MODEL 1
REMARK VINA RESULT:      -4.7      0.000      0.000
REMARK  Name = *****
REMARK  3 active torsions:
REMARK  status: ('A' for Active; 'I' for Inactive)
REMARK    1  A    between atoms: C_4  and  S_7
REMARK    2  A    between atoms: S_7  and  C_9
REMARK    3  A    between atoms: C_9  and  C_10
REMARK                            x       y       z     vdW  Elec       q    Type
REMARK                         _______ _______ _______ _____ _____    ______ ____
ROOT
ATOM      1  C   UNL     1      88.771  70.250  86.722  0.00  0.00    +0.000 C 
ATOM      2  F   UNL     1      90.007  70.826  86.627  0.00  0.00    +0.000 F 
ENDROOT
BRANCH   1   3
ATOM      3  C   UNL     1      88.847  68.740  86.800  0.00  0.00    +0.000 A 
ATOM      4  C   UNL     1      89.954  68.062  86.265  0.00  0.00    +0.000 A 
ATOM      5  C   UNL     1      90.030  66.669  86.318  0.00  0.00    +0.000 A 
ATOM      6  C   UNL     1      88.997  65.943  86.905  0.00  0.00    +0.000 A 
ATOM      7  C   UNL     1      87.888  66.598  87.437  0.00  0.00    +0.000 A 
ATOM      8  C   UNL     1      87.810  67.993  87.383  0.00  0.00    +0.000 A 
ATOM      9 CL   UNL     1      89.088  64.226  86.973  0.00  0.00    +0.000 Cl
ENDBRANCH   1   3
BRANCH   1  10
ATOM     10  S   UNL     1      87.703  70.774  85.321  0.00  0.00    +0.000 S 
ATOM     11  O   UNL     1      88.333  71.962  84.647  0.00  0.00    +0.000 OA
BRANCH  10  15
ATOM     12  C   UNL     1      84.261  72.433  87.889  0.00  0.00    +0.000 A 
ATOM     13  C   UNL     1      84.183  72.506  86.499  0.00  0.00    +0.000 A 
ATOM     14  C   UNL     1      85.222  72.003  85.714  0.00  0.00    +0.000 A 
ATOM     15  C   UNL     1      86.347  71.430  86.317  0.00  0.00    +0.000 A 
ATOM     16  C   UNL     1      86.416  71.351  87.713  0.00  0.00    +0.000 A 
ATOM     17  C   UNL     1      85.375  71.855  88.497  0.00  0.00    +0.000 A 
ENDBRANCH  10  15
ENDBRANCH   1  10
TORSDOF 3
ENDMDL
