MODEL 1
REMARK VINA RESULT:      -4.2      0.000      0.000
REMARK  Name = *****
REMARK  6 active torsions:
REMARK  status: ('A' for Active; 'I' for Inactive)
REMARK    1  A    between atoms: C_1  and  C_2
REMARK    2  A    between atoms: C_5  and  O_8
REMARK    3  A    between atoms: O_8  and  C_9
REMARK    4  A    between atoms: C_9  and  O_11
REMARK    5  A    between atoms: O_11  and  N_12
REMARK    6  A    between atoms: C_13  and  C_18
REMARK                            x       y       z     vdW  Elec       q    Type
REMARK                         _______ _______ _______ _____ _____    ______ ____
ROOT
ATOM      1  C   UNL     1      89.700  68.496  85.604  0.00  0.00    +0.000 C 
ATOM      2  O   UNL     1      89.326  68.213  84.474  0.00  0.00    +0.000 OA
ENDROOT
BRANCH   1   3
ATOM      3  O   UNL     1      89.868  69.766  86.134  0.00  0.00    +0.000 OA
BRANCH   3   8
ATOM      4  C   UNL     1      85.390  71.943  88.873  0.00  0.00    +0.000 C 
ATOM      5  C   UNL     1      86.561  71.332  88.161  0.00  0.00    +0.000 A 
ATOM      6  C   UNL     1      87.699  70.941  88.879  0.00  0.00    +0.000 A 
ATOM      7  C   UNL     1      88.803  70.403  88.217  0.00  0.00    +0.000 A 
ATOM      8  C   UNL     1      88.760  70.250  86.833  0.00  0.00    +0.000 A 
ATOM      9  C   UNL     1      87.654  70.667  86.097  0.00  0.00    +0.000 A 
ATOM     10  C   UNL     1      86.554  71.207  86.764  0.00  0.00    +0.000 A 
ENDBRANCH   3   8
ENDBRANCH   1   3
BRANCH   1  11
ATOM     11  O   UNL     1      90.050  67.592  86.573  0.00  0.00    +0.000 OA
BRANCH  11  12
ATOM     12  N   UNL     1      89.420  66.346  86.404  0.00  0.00    +0.000 N 
ATOM     13  C   UNL     1      90.155  65.301  85.892  0.00  0.00    +0.000 A 
ATOM     14  C   UNL     1      89.515  64.129  86.001  0.00  0.00    +0.000 A 
ATOM     15  S   UNL     1      87.976  64.300  86.801  0.00  0.00    +0.000 S 
ATOM     16  C   UNL     1      88.239  66.043  87.040  0.00  0.00    +0.000 A 
ATOM     17  S   UNL     1      87.233  67.046  87.905  0.00  0.00    +0.000 S 
ATOM     18  C   UNL     1      91.501  65.516  85.290  0.00  0.00    +0.000 C 
ENDBRANCH  11  12
ENDBRANCH   1  11
TORSDOF 4
ENDMDL
