REMARK  Name = *****
REMARK  3 active torsions:
REMARK  status: ('A' for Active; 'I' for Inactive)
REMARK    1  A    between atoms: C_1  and  C_2
REMARK    2  A    between atoms: C_2  and  C_3
REMARK    3  A    between atoms: C_2  and  N_9
REMARK                            x       y       z     vdW  Elec       q    Type
REMARK                         _______ _______ _______ _____ _____    ______ ____
ROOT
ATOM      1  N   UNL     1       4.321   0.169   0.713  0.00  0.00    +0.000 N 
ATOM      2  C   UNL     1       4.820   0.736   1.839  0.00  0.00    +0.000 C 
ATOM      3  C   UNL     1       5.750   0.070   2.644  0.00  0.00    +0.000 C 
ATOM      4  C   UNL     1       6.280   0.656   3.806  0.00  0.00    +0.000 C 
ATOM      5  C   UNL     1       7.208  -0.034   4.587  0.00  0.00    +0.000 C 
ATOM      6  C   UNL     1       7.615  -1.312   4.217  0.00  0.00    +0.000 C 
ATOM      7  C   UNL     1       7.095  -1.906   3.067  0.00  0.00    +0.000 C 
ATOM      8  C   UNL     1       6.162  -1.223   2.272  0.00  0.00    +0.000 C 
ATOM      9  C   UNL     1       5.623  -1.795   1.121  0.00  0.00    +0.000 C 
ATOM     10  C   UNL     1       4.705  -1.083   0.361  0.00  0.00    +0.000 C 
ENDROOT
BRANCH   1  12
ATOM     11  C   UNL     1       3.482   2.389  -0.175  0.00  0.00    +0.000 C 
ATOM     12  C   UNL     1       3.321   0.871  -0.166  0.00  0.00    +0.000 C 
BRANCH  12  13
ATOM     13  C   UNL     1       1.914   0.420   0.173  0.00  0.00    +0.000 A 
ATOM     14  C   UNL     1       1.354   0.631   1.444  0.00  0.00    +0.000 A 
ATOM     15  C   UNL     1       0.058   0.197   1.730  0.00  0.00    +0.000 A 
ATOM     16  C   UNL     1      -0.696  -0.447   0.752  0.00  0.00    +0.000 A 
ATOM     17  C   UNL     1      -0.159  -0.656  -0.514  0.00  0.00    +0.000 A 
ATOM     18  C   UNL     1       1.137  -0.226  -0.804  0.00  0.00    +0.000 A 
ENDBRANCH  12  13
ENDBRANCH   1  12
TORSDOF 2
