MODEL 1
REMARK VINA RESULT:      -4.5      0.000      0.000
REMARK  Name = *****
REMARK  4 active torsions:
REMARK  status: ('A' for Active; 'I' for Inactive)
REMARK    1  A    between atoms: C_4  and  C_7
REMARK    2  A    between atoms: C_7  and  O_10
REMARK    3  A    between atoms: O_10  and  C_11
REMARK    4  A    between atoms: C_11  and  C_13
REMARK                            x       y       z     vdW  Elec       q    Type
REMARK                         _______ _______ _______ _____ _____    ______ ____
ROOT
ATOM      1  C   UNL     1      89.339  67.770  86.124  0.00  0.00    +0.000 C 
ATOM      2  C   UNL     1      89.744  67.460  84.924  0.00  0.00    +0.000 C 
ATOM      3  O   UNL     1      90.125  67.160  83.851  0.00  0.00    +0.000 OA
ENDROOT
BRANCH   1   7
ATOM      4  C   UNL     1      87.137  65.091  88.670  0.00  0.00    +0.000 A 
ATOM      5  C   UNL     1      86.706  66.405  88.505  0.00  0.00    +0.000 A 
ATOM      6  C   UNL     1      87.419  67.278  87.677  0.00  0.00    +0.000 A 
ATOM      7  C   UNL     1      88.574  66.852  86.995  0.00  0.00    +0.000 A 
ATOM      8  C   UNL     1      88.994  65.525  87.184  0.00  0.00    +0.000 A 
ATOM      9  C   UNL     1      88.281  64.651  88.012  0.00  0.00    +0.000 A 
ENDBRANCH   1   7
BRANCH   1  10
ATOM     10  O   UNL     1      90.036  68.806  86.773  0.00  0.00    +0.000 OA
BRANCH  10  11
ATOM     11  C   UNL     1      89.657  70.052  86.361  0.00  0.00    +0.000 C 
ATOM     12  O   UNL     1      90.140  70.693  85.441  0.00  0.00    +0.000 OA
BRANCH  11  13
ATOM     13  C   UNL     1      88.518  70.539  87.187  0.00  0.00    +0.000 A 
ATOM     14  C   UNL     1      88.587  70.655  88.582  0.00  0.00    +0.000 A 
ATOM     15  C   UNL     1      87.483  71.116  89.304  0.00  0.00    +0.000 A 
ATOM     16  C   UNL     1      86.308  71.464  88.639  0.00  0.00    +0.000 A 
ATOM     17  C   UNL     1      86.231  71.353  87.253  0.00  0.00    +0.000 A 
ATOM     18  C   UNL     1      87.331  70.892  86.527  0.00  0.00    +0.000 A 
ENDBRANCH  11  13
ENDBRANCH  10  11
ENDBRANCH   1  10
TORSDOF 4
ENDMDL
