MODEL 1
REMARK VINA RESULT:      -4.9      0.000      0.000
REMARK  Name = *****
REMARK  2 active torsions:
REMARK  status: ('A' for Active; 'I' for Inactive)
REMARK    1  A    between atoms: C_2  and  C_14
REMARK    2  A    between atoms: C_4  and  C_6
REMARK                            x       y       z     vdW  Elec       q    Type
REMARK                         _______ _______ _______ _____ _____    ______ ____
ROOT
ATOM      1  C   UNL     1     103.177 127.433  81.286  0.00  0.00    +0.000 C 
ATOM      2  C   UNL     1     102.609 127.510  82.664  0.00  0.00    +0.000 C 
ATOM      3  N   UNL     1     103.117 126.272  82.122  0.00  0.00    +0.000 N 
ATOM      4  C   UNL     1     104.301 125.723  82.602  0.00  0.00    +0.000 C 
ATOM      5  O   UNL     1     105.230 126.352  83.100  0.00  0.00    +0.000 OA
ENDROOT
BRANCH   4   6
ATOM      6  C   UNL     1     104.477 124.283  82.307  0.00  0.00    +0.000 A 
ATOM      7  C   UNL     1     104.793 123.777  81.043  0.00  0.00    +0.000 A 
ATOM      8  C   UNL     1     104.960 122.398  80.868  0.00  0.00    +0.000 A 
ATOM      9  C   UNL     1     104.804 121.533  81.949  0.00  0.00    +0.000 A 
ATOM     10  C   UNL     1     104.469 122.026  83.208  0.00  0.00    +0.000 A 
ATOM     11  C   UNL     1     104.299 123.400  83.386  0.00  0.00    +0.000 A 
ATOM     12 CL   UNL     1     105.015 119.841  81.726  0.00  0.00    +0.000 Cl
ATOM     13 CL   UNL     1     104.926 124.767  79.639  0.00  0.00    +0.000 Cl
ENDBRANCH   4   6
BRANCH   2  14
ATOM     14  C   UNL     1     101.121 127.652  82.864  0.00  0.00    +0.000 A 
ATOM     15  C   UNL     1     100.571 128.781  83.492  0.00  0.00    +0.000 A 
ATOM     16  C   UNL     1      99.192 128.924  83.667  0.00  0.00    +0.000 A 
ATOM     17  C   UNL     1      98.326 127.940  83.203  0.00  0.00    +0.000 A 
ATOM     18  C   UNL     1      98.839 126.820  82.559  0.00  0.00    +0.000 A 
ATOM     19  C   UNL     1     100.220 126.682  82.389  0.00  0.00    +0.000 A 
ENDBRANCH   2  14
TORSDOF 2
ENDMDL
