MODEL 1
REMARK VINA RESULT:      -4.5      0.000      0.000
REMARK  Name = *****
REMARK  6 active torsions:
REMARK  status: ('A' for Active; 'I' for Inactive)
REMARK    1  A    between atoms: C_1  and  C_2
REMARK    2  A    between atoms: C_2  and  N_3
REMARK    3  A    between atoms: N_3  and  C_4
REMARK    4  A    between atoms: N_3  and  C_12
REMARK    5  A    between atoms: C_4  and  C_5
REMARK    6  A    between atoms: C_5  and  C_6
REMARK                            x       y       z     vdW  Elec       q    Type
REMARK                         _______ _______ _______ _____ _____    ______ ____
ROOT
ATOM      1  N   UNL     1     102.664 126.889  82.654  0.00  0.00    +0.000 N 
ENDROOT
BRANCH   1   2
ATOM      2  C   UNL     1     101.377 127.429  82.842  0.00  0.00    +0.000 A 
ATOM      3  C   UNL     1     101.146 128.664  83.468  0.00  0.00    +0.000 A 
ATOM      4  C   UNL     1      99.850 129.166  83.638  0.00  0.00    +0.000 A 
ATOM      5  C   UNL     1      98.754 128.443  83.177  0.00  0.00    +0.000 A 
ATOM      6  C   UNL     1      98.955 127.221  82.545  0.00  0.00    +0.000 A 
ATOM      7  C   UNL     1     100.252 126.725  82.380  0.00  0.00    +0.000 A 
ENDBRANCH   1   2
BRANCH   1   9
ATOM      8  C   UNL     1     103.541 127.422  80.376  0.00  0.00    +0.000 C 
ATOM      9  C   UNL     1     103.569 127.747  81.864  0.00  0.00    +0.000 C 
ENDBRANCH   1   9
BRANCH   1  10
ATOM     10  C   UNL     1     102.761 125.426  82.476  0.00  0.00    +0.000 C 
BRANCH  10  11
ATOM     11  C   UNL     1     104.058 124.854  83.065  0.00  0.00    +0.000 C 
BRANCH  11  12
ATOM     12  C   UNL     1     104.376 123.490  82.501  0.00  0.00    +0.000 A 
ATOM     13  C   UNL     1     104.584 123.320  81.126  0.00  0.00    +0.000 A 
ATOM     14  C   UNL     1     104.856 122.055  80.604  0.00  0.00    +0.000 A 
ATOM     15  C   UNL     1     104.919 120.949  81.450  0.00  0.00    +0.000 A 
ATOM     16  C   UNL     1     104.709 121.106  82.818  0.00  0.00    +0.000 A 
ATOM     17  C   UNL     1     104.436 122.371  83.343  0.00  0.00    +0.000 A 
ENDBRANCH  11  12
ENDBRANCH  10  11
ENDBRANCH   1  10
TORSDOF 5
ENDMDL
