REMARK  Name = *****
REMARK  4 active torsions:
REMARK  status: ('A' for Active; 'I' for Inactive)
REMARK    1  A    between atoms: C_1  and  C_2
REMARK    2  A    between atoms: C_5  and  N_8
REMARK    3  A    between atoms: C_9  and  C_10
REMARK    4  A    between atoms: C_9  and  C_16
REMARK                            x       y       z     vdW  Elec       q    Type
REMARK                         _______ _______ _______ _____ _____    ______ ____
ROOT
ATOM      1  N   UNL     1      -3.219   0.190   0.295  0.00  0.00    +0.000 NA
ATOM      2  C   UNL     1      -3.869   1.249  -0.115  0.00  0.00    +0.000 C 
ENDROOT
BRANCH   1   7
ATOM      3  C   UNL     1       2.475  -0.091  -0.037  0.00  0.00    +0.000 C 
ATOM      4  C   UNL     1       0.981   0.012   0.040  0.00  0.00    +0.000 A 
ATOM      5  C   UNL     1       0.353   0.307   1.255  0.00  0.00    +0.000 A 
ATOM      6  C   UNL     1      -1.041   0.372   1.333  0.00  0.00    +0.000 A 
ATOM      7  C   UNL     1      -1.824   0.148   0.200  0.00  0.00    +0.000 A 
ATOM      8  C   UNL     1      -1.201  -0.185  -1.004  0.00  0.00    +0.000 A 
ATOM      9  C   UNL     1       0.192  -0.251  -1.087  0.00  0.00    +0.000 A 
ENDBRANCH   1   7
BRANCH   2  10
ATOM     10  C   UNL     1      -5.365   1.189  -0.054  0.00  0.00    +0.000 A 
ATOM     11  C   UNL     1      -5.970   0.404   0.938  0.00  0.00    +0.000 A 
ATOM     12  C   UNL     1      -7.361   0.316   1.018  0.00  0.00    +0.000 A 
ATOM     13  C   UNL     1      -8.156   1.003   0.103  0.00  0.00    +0.000 A 
ATOM     14  C   UNL     1      -7.562   1.773  -0.896  0.00  0.00    +0.000 A 
ATOM     15  C   UNL     1      -6.170   1.864  -0.980  0.00  0.00    +0.000 A 
ENDBRANCH   2  10
BRANCH   2  16
ATOM     16  C   UNL     1      -3.255   2.528  -0.698  0.00  0.00    +0.000 C 
ATOM     17  F   UNL     1      -4.028   3.631  -0.479  0.00  0.00    +0.000 F 
ATOM     18  F   UNL     1      -2.033   2.847  -0.192  0.00  0.00    +0.000 F 
ATOM     19  F   UNL     1      -3.106   2.439  -2.050  0.00  0.00    +0.000 F 
ENDBRANCH   2  16
TORSDOF 3
