REMARK  Name = *****
REMARK  4 active torsions:
REMARK  status: ('A' for Active; 'I' for Inactive)
REMARK    1  A    between atoms: C_4  and  C_7
REMARK    2  A    between atoms: C_7  and  C_8
REMARK    3  A    between atoms: C_8  and  C_9
REMARK    4  A    between atoms: C_12  and  C_15
REMARK                            x       y       z     vdW  Elec       q    Type
REMARK                         _______ _______ _______ _____ _____    ______ ____
ROOT
ATOM      1  C   UNL     1      -3.584  -0.642  -0.563  0.00  0.00    +0.000 C 
ENDROOT
BRANCH   1   2
ATOM      2  C   UNL     1      -5.076  -0.395  -0.616  0.00  0.00    +0.000 A 
ATOM      3  C   UNL     1      -5.610   0.693  -1.323  0.00  0.00    +0.000 A 
ATOM      4  C   UNL     1      -6.991   0.890  -1.387  0.00  0.00    +0.000 A 
ATOM      5  C   UNL     1      -7.852  -0.010  -0.757  0.00  0.00    +0.000 A 
ATOM      6  C   UNL     1      -7.339  -1.106  -0.061  0.00  0.00    +0.000 A 
ATOM      7  C   UNL     1      -5.956  -1.296   0.005  0.00  0.00    +0.000 A 
BRANCH   5   8
ATOM      8  C   UNL     1      -9.314   0.184  -0.828  0.00  0.00    +0.000 C 
ATOM      9  O   UNL     1      -9.820   1.129  -1.419  0.00  0.00    +0.000 OA
ENDBRANCH   5   8
ENDBRANCH   1   2
BRANCH   1  10
ATOM     10  C   UNL     1      -2.769   0.573  -0.101  0.00  0.00    +0.000 C 
BRANCH  10  14
ATOM     11  C   UNL     1       1.401  -0.433   0.353  0.00  0.00    +0.000 A 
ATOM     12  C   UNL     1       0.873  -0.203  -0.916  0.00  0.00    +0.000 A 
ATOM     13  C   UNL     1      -0.474   0.129  -1.064  0.00  0.00    +0.000 A 
ATOM     14  C   UNL     1      -1.307   0.234   0.059  0.00  0.00    +0.000 A 
ATOM     15  C   UNL     1      -0.767  -0.002   1.330  0.00  0.00    +0.000 A 
ATOM     16  C   UNL     1       0.582  -0.332   1.475  0.00  0.00    +0.000 A 
ENDBRANCH  10  14
ENDBRANCH   1  10
TORSDOF 4
