MODEL 1
REMARK VINA RESULT:      -4.3      0.000      0.000
REMARK  Name = *****
REMARK  3 active torsions:
REMARK  status: ('A' for Active; 'I' for Inactive)
REMARK    1  A    between atoms: C_2  and  O_8
REMARK    2  A    between atoms: O_8  and  C_9
REMARK    3  A    between atoms: C_9  and  C_11
REMARK                            x       y       z     vdW  Elec       q    Type
REMARK                         _______ _______ _______ _____ _____    ______ ____
ROOT
ATOM      1  O   UNL     1      89.257  65.828  87.176  0.00  0.00    +0.000 OA
ENDROOT
BRANCH   1   3
ATOM      2  C   UNL     1      89.553  67.894  85.862  0.00  0.00    +0.000 C 
ATOM      3  C   UNL     1      88.553  66.865  86.476  0.00  0.00    +0.000 C 
ATOM      4  C   UNL     1      87.733  67.680  87.522  0.00  0.00    +0.000 C 
ATOM      5  C   UNL     1      88.016  69.087  87.068  0.00  0.00    +0.000 C 
ATOM      6  C   UNL     1      89.563  68.938  86.952  0.00  0.00    +0.000 C 
ATOM      7  C   UNL     1      89.493  70.447  86.951  0.00  0.00    +0.000 C 
ATOM      8  C   UNL     1      88.408  70.358  87.786  0.00  0.00    +0.000 C 
ENDBRANCH   1   3
BRANCH   1   9
ATOM      9  C   UNL     1      88.923  64.561  86.829  0.00  0.00    +0.000 C 
ATOM     10  O   UNL     1      89.206  64.010  85.778  0.00  0.00    +0.000 OA
BRANCH   9  11
ATOM     11  C   UNL     1      88.148  63.906  87.919  0.00  0.00    +0.000 A 
ATOM     12  C   UNL     1      88.298  64.262  89.267  0.00  0.00    +0.000 A 
ATOM     13  C   UNL     1      87.549  63.612  90.251  0.00  0.00    +0.000 A 
ATOM     14  C   UNL     1      86.649  62.608  89.896  0.00  0.00    +0.000 A 
ATOM     15  C   UNL     1      86.494  62.248  88.558  0.00  0.00    +0.000 A 
ATOM     16  C   UNL     1      87.242  62.894  87.571  0.00  0.00    +0.000 A 
ENDBRANCH   9  11
ENDBRANCH   1   9
TORSDOF 3
ENDMDL
