MODEL 1
REMARK VINA RESULT:      -4.0      0.000      0.000
REMARK  Name = *****
REMARK  2 active torsions:
REMARK  status: ('A' for Active; 'I' for Inactive)
REMARK    1  A    between atoms: C_7  and  S_8
REMARK    2  A    between atoms: S_8  and  C_9
REMARK                            x       y       z     vdW  Elec       q    Type
REMARK                         _______ _______ _______ _____ _____    ______ ____
ROOT
ATOM      1  C   UNL     1      87.844  64.082  91.157  0.00  0.00    +0.000 C 
ATOM      2  C   UNL     1      89.087  63.890  90.275  0.00  0.00    +0.000 C 
ATOM      3  C   UNL     1      88.490  63.741  88.862  0.00  0.00    +0.000 C 
ATOM      4  C   UNL     1      87.217  62.947  89.160  0.00  0.00    +0.000 C 
ATOM      5  C   UNL     1      86.688  63.986  90.146  0.00  0.00    +0.000 C 
ATOM      6  C   UNL     1      86.666  65.260  89.280  0.00  0.00    +0.000 C 
ATOM      7  C   UNL     1      87.947  65.125  88.425  0.00  0.00    +0.000 C 
ENDROOT
BRANCH   7   8
ATOM      8  S   UNL     1      87.549  65.206  86.638  0.00  0.00    +0.000 S 
BRANCH   8   9
ATOM      9  C   UNL     1      89.161  64.910  85.934  0.00  0.00    +0.000 A 
ATOM     10  C   UNL     1      90.122  65.924  85.981  0.00  0.00    +0.000 A 
ATOM     11  C   UNL     1      91.393  65.717  85.442  0.00  0.00    +0.000 A 
ATOM     12  C   UNL     1      91.714  64.491  84.862  0.00  0.00    +0.000 A 
ATOM     13  C   UNL     1      90.765  63.470  84.826  0.00  0.00    +0.000 A 
ATOM     14  C   UNL     1      89.493  63.677  85.364  0.00  0.00    +0.000 A 
ENDBRANCH   8   9
ENDBRANCH   7   8
TORSDOF 2
ENDMDL
