MODEL 1
REMARK VINA RESULT:      -4.8      0.000      0.000
REMARK  Name = *****
REMARK  2 active torsions:
REMARK  status: ('A' for Active; 'I' for Inactive)
REMARK    1  A    between atoms: C_8  and  C_9
REMARK    2  A    between atoms: C_10  and  C_11
REMARK                            x       y       z     vdW  Elec       q    Type
REMARK                         _______ _______ _______ _____ _____    ______ ____
ROOT
ATOM      1  C   UNL     1      97.003 120.626  83.393  0.00  0.00    +0.000 C 
ATOM      2  C   UNL     1      96.559 120.586  81.914  0.00  0.00    +0.000 C 
ATOM      3  C   UNL     1      95.646 119.384  82.031  0.00  0.00    +0.000 C 
ATOM      4  C   UNL     1      96.223 118.532  82.897  0.00  0.00    +0.000 C 
ATOM      5  C   UNL     1      97.518 119.171  83.350  0.00  0.00    +0.000 C 
ATOM      6  C   UNL     1      98.567 119.298  82.232  0.00  0.00    +0.000 C 
ATOM      7  C   UNL     1      97.910 120.273  81.248  0.00  0.00    +0.000 C 
ATOM      8  C   UNL     1      98.470 118.957  80.762  0.00  0.00    +0.000 C 
ENDROOT
BRANCH   8   9
ATOM      9  C   UNL     1      97.632 117.877  80.247  0.00  0.00    +0.000 C 
ATOM     10  C   UNL     1      97.966 117.056  79.237  0.00  0.00    +0.000 C 
BRANCH  10  11
ATOM     11  C   UNL     1      97.114 115.976  78.719  0.00  0.00    +0.000 A 
ATOM     12  C   UNL     1      96.991 115.707  77.350  0.00  0.00    +0.000 A 
ATOM     13  C   UNL     1      96.146 114.690  76.898  0.00  0.00    +0.000 A 
ATOM     14  C   UNL     1      95.408 113.937  77.810  0.00  0.00    +0.000 A 
ATOM     15  C   UNL     1      95.511 114.205  79.173  0.00  0.00    +0.000 A 
ATOM     16  C   UNL     1      96.355 115.223  79.625  0.00  0.00    +0.000 A 
ENDBRANCH  10  11
ENDBRANCH   8   9
TORSDOF 2
ENDMDL
