MODEL 1
REMARK VINA RESULT:      -4.7      0.000      0.000
REMARK  Name = *****
REMARK  5 active torsions:
REMARK  status: ('A' for Active; 'I' for Inactive)
REMARK    1  A    between atoms: C_1  and  C_2
REMARK    2  A    between atoms: C_4  and  C_8
REMARK    3  A    between atoms: C_8  and  C_17
REMARK    4  A    between atoms: N_9  and  C_10
REMARK    5  A    between atoms: C_10  and  C_11
REMARK                            x       y       z     vdW  Elec       q    Type
REMARK                         _______ _______ _______ _____ _____    ______ ____
ROOT
ATOM      1  C   UNL     1      87.166  70.790  88.832  0.00  0.00    +0.000 C 
ATOM      2  N   UNL     1      87.431  69.542  89.020  0.00  0.00    +0.000 NA
ATOM      3  C   UNL     1      87.768  71.795  89.784  0.00  0.00    +0.000 C 
ENDROOT
BRANCH   1   7
ATOM      4  C   UNL     1      82.956  73.061  87.390  0.00  0.00    +0.000 C 
ATOM      5  C   UNL     1      84.269  72.414  87.060  0.00  0.00    +0.000 A 
ATOM      6  C   UNL     1      85.084  71.906  88.077  0.00  0.00    +0.000 A 
ATOM      7  C   UNL     1      86.321  71.342  87.755  0.00  0.00    +0.000 A 
ATOM      8  C   UNL     1      86.763  71.277  86.434  0.00  0.00    +0.000 A 
ATOM      9  C   UNL     1      85.960  71.796  85.422  0.00  0.00    +0.000 A 
ATOM     10  C   UNL     1      84.722  72.366  85.734  0.00  0.00    +0.000 A 
ENDBRANCH   1   7
BRANCH   2  11
ATOM     11  C   UNL     1      86.894  68.548  88.084  0.00  0.00    +0.000 C 
BRANCH  11  12
ATOM     12  C   UNL     1      87.969  67.729  87.400  0.00  0.00    +0.000 A 
ATOM     13  C   UNL     1      88.013  66.332  87.491  0.00  0.00    +0.000 A 
ATOM     14  C   UNL     1      89.037  65.608  86.875  0.00  0.00    +0.000 A 
ATOM     15  C   UNL     1      90.037  66.273  86.169  0.00  0.00    +0.000 A 
ATOM     16  C   UNL     1      90.014  67.664  86.081  0.00  0.00    +0.000 A 
ATOM     17  C   UNL     1      88.990  68.387  86.695  0.00  0.00    +0.000 A 
ENDBRANCH  11  12
ENDBRANCH   2  11
TORSDOF 3
ENDMDL
