MODEL 1
REMARK VINA RESULT:      -4.6      0.000      0.000
REMARK  Name = *****
REMARK  3 active torsions:
REMARK  status: ('A' for Active; 'I' for Inactive)
REMARK    1  A    between atoms: N_2  and  C_3
REMARK    2  A    between atoms: C_8  and  C_9
REMARK    3  A    between atoms: C_10  and  C_11
REMARK                            x       y       z     vdW  Elec       q    Type
REMARK                         _______ _______ _______ _____ _____    ______ ____
ROOT
ATOM      1  C   UNL     1     101.463 128.224  83.210  0.00  0.00    +0.000 A 
ATOM      2  C   UNL     1     100.437 128.976  83.789  0.00  0.00    +0.000 A 
ATOM      3  C   UNL     1      99.115 128.558  83.642  0.00  0.00    +0.000 A 
ATOM      4  C   UNL     1      98.827 127.397  82.920  0.00  0.00    +0.000 A 
ATOM      5  C   UNL     1      99.860 126.652  82.343  0.00  0.00    +0.000 A 
ATOM      6  C   UNL     1     101.190 127.061  82.484  0.00  0.00    +0.000 A 
ENDROOT
BRANCH   1   8
ATOM      7  C   UNL     1     103.864 129.061  83.529  0.00  0.00    +0.000 C 
ATOM      8  N   UNL     1     102.771 128.666  83.377  0.00  0.00    +0.000 NA
ENDBRANCH   1   8
BRANCH   6   9
ATOM      9  C   UNL     1     102.230 126.281  81.885  0.00  0.00    +0.000 C 
ATOM     10  C   UNL     1     103.105 125.632  81.379  0.00  0.00    +0.000 C 
BRANCH  10  11
ATOM     11  C   UNL     1     104.153 124.880  80.771  0.00  0.00    +0.000 C 
ATOM     12  C   UNL     1     104.298 123.581  81.088  0.00  0.00    +0.000 C 
ATOM     13  C   UNL     1     105.371 122.701  80.517  0.00  0.00    +0.000 C 
ATOM     14  C   UNL     1     106.464 123.476  79.780  0.00  0.00    +0.000 C 
ATOM     15  C   UNL     1     105.868 124.585  78.920  0.00  0.00    +0.000 C 
ATOM     16  C   UNL     1     105.054 125.564  79.771  0.00  0.00    +0.000 C 
ENDBRANCH  10  11
ENDBRANCH   6   9
TORSDOF 3
ENDMDL
