REMARK  Name = *****
REMARK  5 active torsions:
REMARK  status: ('A' for Active; 'I' for Inactive)
REMARK    1  A    between atoms: C_1  and  C_2
REMARK    2  A    between atoms: C_3  and  C_13
REMARK    3  A    between atoms: C_4  and  N_5
REMARK    4  A    between atoms: N_5  and  C_6
REMARK    5  A    between atoms: N_5  and  C_7
REMARK                            x       y       z     vdW  Elec       q    Type
REMARK                         _______ _______ _______ _____ _____    ______ ____
ROOT
ATOM      1  C   UNL     1       1.695  -1.259  -0.261  0.00  0.00    +0.000 C 
ATOM      2  C   UNL     1       2.371  -0.012   0.127  0.00  0.00    +0.000 C 
ATOM      3  C   UNL     1       2.030   0.982   0.921  0.00  0.00    +0.000 C 
ATOM      4  C   UNL     1       3.313   0.297   1.206  0.00  0.00    +0.000 C 
ENDROOT
BRANCH   3   5
ATOM      5  C   UNL     1       0.845   1.015   1.770  0.00  0.00    +0.000 A 
ATOM      6  C   UNL     1       0.562   0.016   2.717  0.00  0.00    +0.000 A 
ATOM      7  C   UNL     1      -0.568   0.108   3.532  0.00  0.00    +0.000 A 
ATOM      8  C   UNL     1      -1.418   1.204   3.419  0.00  0.00    +0.000 A 
ATOM      9  C   UNL     1      -1.142   2.207   2.492  0.00  0.00    +0.000 A 
ATOM     10  C   UNL     1      -0.015   2.114   1.671  0.00  0.00    +0.000 A 
ENDBRANCH   3   5
BRANCH   4  11
ATOM     11  N   UNL     1       4.498   0.769   1.044  0.00  0.00    +0.000 N 
ATOM     12  C   UNL     1       5.055   1.272  -0.239  0.00  0.00    +0.000 C 
BRANCH  11  13
ATOM     13  C   UNL     1       5.302   0.882   2.234  0.00  0.00    +0.000 A 
ATOM     14  C   UNL     1       4.758   0.598   3.504  0.00  0.00    +0.000 A 
ATOM     15  C   UNL     1       5.517   0.772   4.667  0.00  0.00    +0.000 A 
ATOM     16  C   UNL     1       6.832   1.215   4.582  0.00  0.00    +0.000 A 
ATOM     17  C   UNL     1       7.393   1.482   3.337  0.00  0.00    +0.000 A 
ATOM     18  C   UNL     1       6.636   1.320   2.171  0.00  0.00    +0.000 A 
ENDBRANCH  11  13
ENDBRANCH   4  11
TORSDOF 3
