REMARK  Name = *****
REMARK  3 active torsions:
REMARK  status: ('A' for Active; 'I' for Inactive)
REMARK    1  A    between atoms: C_4  and  C_7
REMARK    2  A    between atoms: C_7  and  C_8
REMARK    3  A    between atoms: C_8  and  C_9
REMARK                            x       y       z     vdW  Elec       q    Type
REMARK                         _______ _______ _______ _____ _____    ______ ____
ROOT
ATOM      1  C   UNL     1      -3.628  -0.864  -0.288  0.00  0.00    +0.000 C 
ENDROOT
BRANCH   1   2
ATOM      2  C   UNL     1      -5.093  -0.581  -0.414  0.00  0.00    +0.000 C 
ATOM      3  N   UNL     1      -5.639  -0.115  -1.488  0.00  0.00    +0.000 NA
ATOM      4  N   UNL     1      -7.011   0.019  -1.196  0.00  0.00    +0.000 NA
ATOM      5  N   UNL     1      -7.278  -0.343  -0.020  0.00  0.00    +0.000 NA
ATOM      6  C   UNL     1      -6.073  -0.798   0.671  0.00  0.00    +0.000 C 
ATOM      7 CL   UNL     1      -6.190  -2.505   1.080  0.00  0.00    +0.000 Cl
ATOM      8 CL   UNL     1      -5.716   0.219   2.059  0.00  0.00    +0.000 Cl
ENDBRANCH   1   2
BRANCH   1   9
ATOM      9  C   UNL     1      -2.829   0.433  -0.365  0.00  0.00    +0.000 C 
BRANCH   9  13
ATOM     10  C   UNL     1       1.360  -0.326   0.309  0.00  0.00    +0.000 A 
ATOM     11  C   UNL     1       0.826  -0.453  -0.972  0.00  0.00    +0.000 A 
ATOM     12  C   UNL     1      -0.529  -0.200  -1.192  0.00  0.00    +0.000 A 
ATOM     13  C   UNL     1      -1.361   0.185  -0.132  0.00  0.00    +0.000 A 
ATOM     14  C   UNL     1      -0.815   0.305   1.153  0.00  0.00    +0.000 A 
ATOM     15  C   UNL     1       0.540   0.052   1.371  0.00  0.00    +0.000 A 
ENDBRANCH   9  13
ENDBRANCH   1   9
TORSDOF 3
