MODEL 1
REMARK VINA RESULT:      -5.1      0.000      0.000
REMARK  Name = *****
REMARK  2 active torsions:
REMARK  status: ('A' for Active; 'I' for Inactive)
REMARK    1  A    between atoms: C_5  and  C_7
REMARK    2  A    between atoms: C_8  and  C_9
REMARK                            x       y       z     vdW  Elec       q    Type
REMARK                         _______ _______ _______ _____ _____    ______ ____
ROOT
ATOM      1  C   UNL     1     102.925 125.854  82.460  0.00  0.00    +0.000 C 
ATOM      2  C   UNL     1     101.589 125.949  82.354  0.00  0.00    +0.000 C 
ENDROOT
BRANCH   1   7
ATOM      3  C   UNL     1     104.938 122.630  82.494  0.00  0.00    +0.000 A 
ATOM      4  C   UNL     1     105.292 122.525  81.150  0.00  0.00    +0.000 A 
ATOM      5  C   UNL     1     104.876 123.500  80.247  0.00  0.00    +0.000 A 
ATOM      6  C   UNL     1     104.102 124.569  80.694  0.00  0.00    +0.000 A 
ATOM      7  C   UNL     1     103.717 124.687  82.036  0.00  0.00    +0.000 A 
ATOM      8  C   UNL     1     104.160 123.707  82.936  0.00  0.00    +0.000 A 
ATOM      9  F   UNL     1     103.722 125.497  79.799  0.00  0.00    +0.000 F 
ENDBRANCH   1   7
BRANCH   2  10
ATOM     10  C   UNL     1     100.800 127.117  82.783  0.00  0.00    +0.000 A 
ATOM     11  C   UNL     1     101.382 128.237  83.392  0.00  0.00    +0.000 A 
ATOM     12  C   UNL     1     100.599 129.339  83.756  0.00  0.00    +0.000 A 
ATOM     13  C   UNL     1      99.228 129.341  83.505  0.00  0.00    +0.000 A 
ATOM     14  C   UNL     1      98.639 128.243  82.883  0.00  0.00    +0.000 A 
ATOM     15  C   UNL     1      99.424 127.149  82.523  0.00  0.00    +0.000 A 
ATOM     16  F   UNL     1      98.827 126.109  81.917  0.00  0.00    +0.000 F 
ENDBRANCH   2  10
TORSDOF 2
ENDMDL
