REMARK  Name = *****
REMARK  2 active torsions:
REMARK  status: ('A' for Active; 'I' for Inactive)
REMARK    1  A    between atoms: C_3  and  C_7
REMARK    2  A    between atoms: C_8  and  C_9
REMARK                            x       y       z     vdW  Elec       q    Type
REMARK                         _______ _______ _______ _____ _____    ______ ____
ROOT
ATOM      1  C   UNL     1      -1.293   0.607  -1.858  0.00  0.00    +0.000 C 
ATOM      2  C   UNL     1      -2.334   1.065  -2.572  0.00  0.00    +0.000 C 
ENDROOT
BRANCH   2   3
ATOM      3  C   UNL     1      -2.320   1.251  -4.030  0.00  0.00    +0.000 A 
ATOM      4  C   UNL     1      -1.636   0.381  -4.891  0.00  0.00    +0.000 A 
ATOM      5  C   UNL     1      -1.674   0.574  -6.276  0.00  0.00    +0.000 A 
ATOM      6  C   UNL     1      -2.406   1.632  -6.808  0.00  0.00    +0.000 A 
ATOM      7  C   UNL     1      -3.105   2.496  -5.968  0.00  0.00    +0.000 A 
ATOM      8  C   UNL     1      -3.066   2.301  -4.584  0.00  0.00    +0.000 A 
ATOM      9 CL   UNL     1      -2.455   1.869  -8.511  0.00  0.00    +0.000 Cl
ENDBRANCH   2   3
BRANCH   1  12
ATOM     10  C   UNL     1       1.125   1.028   0.091  0.00  0.00    +0.000 C 
ATOM     11  C   UNL     1      -0.344   1.377   0.350  0.00  0.00    +0.000 C 
ATOM     12  C   UNL     1      -1.325   0.424  -0.353  0.00  0.00    +0.000 C 
ATOM     13  C   UNL     1      -1.033  -1.040   0.041  0.00  0.00    +0.000 C 
ATOM     14  C   UNL     1       0.431  -1.375   0.127  0.00  0.00    +0.000 C 
ATOM     15  C   UNL     1       1.399  -0.447   0.135  0.00  0.00    +0.000 C 
ENDBRANCH   1  12
TORSDOF 2
