MODEL 1
REMARK VINA RESULT:      -3.7      0.000      0.000
REMARK  Name = *****
REMARK  2 active torsions:
REMARK  status: ('A' for Active; 'I' for Inactive)
REMARK    1  A    between atoms: C_4  and  S_5
REMARK    2  A    between atoms: S_5  and  C_6
REMARK                            x       y       z     vdW  Elec       q    Type
REMARK                         _______ _______ _______ _____ _____    ______ ____
ROOT
ATOM      1  S   UNL     1     103.026 127.760  83.403  0.00  0.00    +0.000 S 
ENDROOT
BRANCH   1   5
ATOM      2  C   UNL     1     104.795 123.609  82.352  0.00  0.00    +0.000 C 
ATOM      3  C   UNL     1     103.839 124.685  82.859  0.00  0.00    +0.000 C 
ATOM      4  C   UNL     1     103.801 125.730  81.775  0.00  0.00    +0.000 C 
ATOM      5  C   UNL     1     103.496 127.032  81.901  0.00  0.00    +0.000 C 
ATOM      6  S   UNL     1     104.264 125.074  80.219  0.00  0.00    +0.000 S 
ATOM      7  C   UNL     1     104.497 123.393  80.876  0.00  0.00    +0.000 C 
ENDBRANCH   1   5
BRANCH   1   8
ATOM      8  C   UNL     1     101.263 127.831  83.146  0.00  0.00    +0.000 A 
ATOM      9  C   UNL     1     100.598 126.770  82.522  0.00  0.00    +0.000 A 
ATOM     10  C   UNL     1      99.217 126.825  82.325  0.00  0.00    +0.000 A 
ATOM     11  C   UNL     1      98.495 127.938  82.754  0.00  0.00    +0.000 A 
ATOM     12  C   UNL     1      99.151 128.995  83.382  0.00  0.00    +0.000 A 
ATOM     13  C   UNL     1     100.533 128.941  83.581  0.00  0.00    +0.000 A 
ENDBRANCH   1   8
TORSDOF 2
ENDMDL
