REMARK  Name = *****
REMARK  2 active torsions:
REMARK  status: ('A' for Active; 'I' for Inactive)
REMARK    1  A    between atoms: C_1  and  C_2
REMARK    2  A    between atoms: C_9  and  C_14
REMARK                            x       y       z     vdW  Elec       q    Type
REMARK                         _______ _______ _______ _____ _____    ______ ____
ROOT
ATOM      1  C   UNL     1       0.519   0.589  -0.366  0.00  0.00    +0.000 C 
ATOM      2  C   UNL     1       0.073  -0.830  -0.143  0.00  0.00    +0.000 A 
ATOM      3  C   UNL     1       0.990  -1.906  -0.201  0.00  0.00    +0.000 A 
ATOM      4  C   UNL     1       0.562  -3.251  -0.039  0.00  0.00    +0.000 A 
ATOM      5  C   UNL     1      -0.806  -3.453   0.241  0.00  0.00    +0.000 A 
ATOM      6  C   UNL     1      -1.707  -2.391   0.345  0.00  0.00    +0.000 A 
ATOM      7  C   UNL     1      -1.271  -1.087   0.150  0.00  0.00    +0.000 A 
ATOM      8  C   UNL     1       1.348  -4.524  -0.163  0.00  0.00    +0.000 C 
ATOM      9  C   UNL     1       2.668  -4.798  -0.029  0.00  0.00    +0.000 C 
ATOM     10  C   UNL     1       3.642  -3.750   0.203  0.00  0.00    +0.000 C 
ATOM     11  C   UNL     1       3.405  -2.851   1.175  0.00  0.00    +0.000 C 
ATOM     12  C   UNL     1       3.109  -1.460   0.700  0.00  0.00    +0.000 C 
ATOM     13  O   UNL     1       2.294  -1.552  -0.494  0.00  0.00    +0.000 OA
ENDROOT
BRANCH   9  14
ATOM     14  C   UNL     1       3.099  -6.193  -0.245  0.00  0.00    +0.000 A 
ATOM     15  C   UNL     1       3.435  -6.642  -1.528  0.00  0.00    +0.000 A 
ATOM     16  C   UNL     1       3.845  -7.962  -1.726  0.00  0.00    +0.000 A 
ATOM     17  C   UNL     1       3.922  -8.838  -0.643  0.00  0.00    +0.000 A 
ATOM     18  C   UNL     1       3.592  -8.396   0.638  0.00  0.00    +0.000 A 
ATOM     19  C   UNL     1       3.183  -7.077   0.838  0.00  0.00    +0.000 A 
ENDBRANCH   9  14
TORSDOF 1
