MODEL 1
REMARK VINA RESULT:      -3.2      0.000      0.000
REMARK  Name = *****
REMARK  3 active torsions:
REMARK  status: ('A' for Active; 'I' for Inactive)
REMARK    1  A    between atoms: C_4  and  P_6
REMARK    2  A    between atoms: P_6  and  P_7
REMARK    3  A    between atoms: P_7  and  C_8
REMARK                            x       y       z     vdW  Elec       q    Type
REMARK                         _______ _______ _______ _____ _____    ______ ____
ROOT
ATOM      1  P   UNL     1     103.704 127.656  82.280  0.00  0.00    +0.000 P 
ENDROOT
BRANCH   1   5
ATOM      2  C   UNL     1      99.747 126.839  82.857  0.00  0.00    +0.000 A 
ATOM      3  C   UNL     1      99.743 127.962  83.652  0.00  0.00    +0.000 A 
ATOM      4  S   UNL     1     101.283 128.700  83.722  0.00  0.00    +0.000 S 
ATOM      5  C   UNL     1     101.972 127.516  82.686  0.00  0.00    +0.000 A 
ATOM      6  C   UNL     1     101.038 126.580  82.298  0.00  0.00    +0.000 A 
ENDBRANCH   1   5
BRANCH   1   7
ATOM      7  P   UNL     1     103.801 127.271  80.351  0.00  0.00    +0.000 P 
BRANCH   7   8
ATOM      8  C   UNL     1     104.518 125.638  80.225  0.00  0.00    +0.000 A 
ATOM      9  C   UNL     1     103.961 124.590  80.935  0.00  0.00    +0.000 A 
ATOM     10  C   UNL     1     104.653 123.359  80.723  0.00  0.00    +0.000 A 
ATOM     11  C   UNL     1     105.713 123.511  79.858  0.00  0.00    +0.000 A 
ATOM     12  S   UNL     1     105.863 125.125  79.314  0.00  0.00    +0.000 S 
ENDBRANCH   7   8
ENDBRANCH   1   7
TORSDOF 3
ENDMDL
