MODEL 1
REMARK VINA RESULT:      -4.6      0.000      0.000
REMARK  Name = *****
REMARK  4 active torsions:
REMARK  status: ('A' for Active; 'I' for Inactive)
REMARK    1  A    between atoms: C_4  and  O_7
REMARK    2  A    between atoms: O_7  and  C_8
REMARK    3  A    between atoms: C_8  and  C_10
REMARK    4  A    between atoms: C_15  and  C_16
REMARK                            x       y       z     vdW  Elec       q    Type
REMARK                         _______ _______ _______ _____ _____    ______ ____
ROOT
ATOM      1  C   UNL     1     101.051 128.511  84.299  0.00  0.00    +0.000 A 
ATOM      2  C   UNL     1     101.491 129.720  84.866  0.00  0.00    +0.000 A 
ATOM      3  C   UNL     1     100.792 130.904  84.632  0.00  0.00    +0.000 A 
ATOM      4  C   UNL     1      99.658 130.892  83.826  0.00  0.00    +0.000 A 
ATOM      5  C   UNL     1      99.217 129.696  83.256  0.00  0.00    +0.000 A 
ATOM      6  C   UNL     1      99.902 128.486  83.487  0.00  0.00    +0.000 A 
ENDROOT
BRANCH   6   7
ATOM      7  C   UNL     1      99.382 127.209  82.872  0.00  0.00    +0.000 C 
ATOM      8  F   UNL     1      98.917 126.321  83.792  0.00  0.00    +0.000 F 
ATOM      9  F   UNL     1      98.324 127.432  82.037  0.00  0.00    +0.000 F 
ATOM     10  F   UNL     1     100.304 126.564  82.111  0.00  0.00    +0.000 F 
ENDBRANCH   6   7
BRANCH   1  11
ATOM     11  C   UNL     1     101.843 127.279  84.532  0.00  0.00    +0.000 C 
ATOM     12  O   UNL     1     101.413 126.313  85.136  0.00  0.00    +0.000 OA
BRANCH  11  13
ATOM     13  O   UNL     1     103.100 127.461  83.986  0.00  0.00    +0.000 OA
BRANCH  13  17
ATOM     14  C   UNL     1     103.638 125.881  80.156  0.00  0.00    +0.000 A 
ATOM     15  C   UNL     1     103.580 125.011  81.248  0.00  0.00    +0.000 A 
ATOM     16  C   UNL     1     103.415 125.517  82.537  0.00  0.00    +0.000 A 
ATOM     17  C   UNL     1     103.328 126.896  82.723  0.00  0.00    +0.000 A 
ATOM     18  C   UNL     1     103.364 127.771  81.638  0.00  0.00    +0.000 A 
ATOM     19  C   UNL     1     103.528 127.259  80.351  0.00  0.00    +0.000 A 
ENDBRANCH  13  17
ENDBRANCH  11  13
ENDBRANCH   1  11
TORSDOF 4
ENDMDL
