MODEL 1
REMARK VINA RESULT:      -4.1      0.000      0.000
REMARK  Name = *****
REMARK  3 active torsions:
REMARK  status: ('A' for Active; 'I' for Inactive)
REMARK    1  A    between atoms: C_4  and  S_8
REMARK    2  A    between atoms: S_8  and  C_9
REMARK    3  A    between atoms: C_9  and  C_11
REMARK                            x       y       z     vdW  Elec       q    Type
REMARK                         _______ _______ _______ _____ _____    ______ ____
ROOT
ATOM      1  S   UNL     1      94.645 116.419  80.648  0.00  0.00    +0.000 S 
ENDROOT
BRANCH   1   5
ATOM      2  C   UNL     1      96.658 115.221  77.326  0.00  0.00    +0.000 C 
ATOM      3  C   UNL     1      97.029 116.680  77.605  0.00  0.00    +0.000 C 
ATOM      4  C   UNL     1      95.702 117.236  78.171  0.00  0.00    +0.000 C 
ATOM      5  C   UNL     1      95.111 116.008  78.935  0.00  0.00    +0.000 C 
ATOM      6  C   UNL     1      96.238 114.947  78.778  0.00  0.00    +0.000 C 
ATOM      7  C   UNL     1      97.504 115.417  79.465  0.00  0.00    +0.000 C 
ATOM      8  C   UNL     1      97.972 116.462  78.765  0.00  0.00    +0.000 C 
ENDBRANCH   1   5
BRANCH   1   9
ATOM      9  C   UNL     1      95.164 118.100  80.708  0.00  0.00    +0.000 C 
ATOM     10  O   UNL     1      94.476 118.989  80.221  0.00  0.00    +0.000 OA
BRANCH   9  11
ATOM     11  C   UNL     1      96.473 118.420  81.355  0.00  0.00    +0.000 A 
ATOM     12  C   UNL     1      97.361 119.397  80.881  0.00  0.00    +0.000 A 
ATOM     13  C   UNL     1      98.569 119.637  81.543  0.00  0.00    +0.000 A 
ATOM     14  C   UNL     1      98.903 118.907  82.682  0.00  0.00    +0.000 A 
ATOM     15  C   UNL     1      98.031 117.934  83.163  0.00  0.00    +0.000 A 
ATOM     16  C   UNL     1      96.824 117.691  82.504  0.00  0.00    +0.000 A 
ENDBRANCH   9  11
ENDBRANCH   1   9
TORSDOF 3
ENDMDL
