MODEL 1
REMARK VINA RESULT:      -4.6      0.000      0.000
REMARK  Name = *****
REMARK  3 active torsions:
REMARK  status: ('A' for Active; 'I' for Inactive)
REMARK    1  A    between atoms: C_4  and  O_7
REMARK    2  A    between atoms: O_7  and  C_8
REMARK    3  A    between atoms: C_8  and  C_10
REMARK                            x       y       z     vdW  Elec       q    Type
REMARK                         _______ _______ _______ _____ _____    ______ ____
ROOT
ATOM      1  C   UNL     1     103.484 127.832  82.806  0.00  0.00    +0.000 C 
ATOM      2  O   UNL     1     104.016 128.888  82.494  0.00  0.00    +0.000 OA
ENDROOT
BRANCH   1   3
ATOM      3  C   UNL     1     103.771 126.564  82.101  0.00  0.00    +0.000 A 
ATOM      4  C   UNL     1     103.654 126.429  80.714  0.00  0.00    +0.000 A 
ATOM      5  C   UNL     1     103.927 125.214  80.091  0.00  0.00    +0.000 A 
ATOM      6  C   UNL     1     104.310 124.126  80.863  0.00  0.00    +0.000 A 
ATOM      7  C   UNL     1     104.419 124.230  82.245  0.00  0.00    +0.000 A 
ATOM      8  C   UNL     1     104.145 125.450  82.869  0.00  0.00    +0.000 A 
ATOM      9  F   UNL     1     104.571 122.955  80.268  0.00  0.00    +0.000 F 
ATOM     10  F   UNL     1     103.251 127.451  79.945  0.00  0.00    +0.000 F 
ENDBRANCH   1   3
BRANCH   1  11
ATOM     11  O   UNL     1     102.512 127.626  83.765  0.00  0.00    +0.000 OA
BRANCH  11  15
ATOM     12  C   UNL     1      98.492 128.075  82.722  0.00  0.00    +0.000 A 
ATOM     13  C   UNL     1      99.136 126.868  82.439  0.00  0.00    +0.000 A 
ATOM     14  C   UNL     1     100.482 126.699  82.766  0.00  0.00    +0.000 A 
ATOM     15  C   UNL     1     101.176 127.752  83.360  0.00  0.00    +0.000 A 
ATOM     16  C   UNL     1     100.536 128.953  83.667  0.00  0.00    +0.000 A 
ATOM     17  C   UNL     1      99.191 129.115  83.340  0.00  0.00    +0.000 A 
ENDBRANCH  11  15
ENDBRANCH   1  11
TORSDOF 3
ENDMDL
