MODEL 1
REMARK VINA RESULT:      -4.6      0.000      0.000
REMARK  Name = *****
REMARK  4 active torsions:
REMARK  status: ('A' for Active; 'I' for Inactive)
REMARK    1  A    between atoms: C_1  and  C_2
REMARK    2  A    between atoms: C_4  and  C_8
REMARK    3  A    between atoms: C_9  and  S_10
REMARK    4  A    between atoms: S_10  and  C_11
REMARK                            x       y       z     vdW  Elec       q    Type
REMARK                         _______ _______ _______ _____ _____    ______ ____
ROOT
ATOM      1  C   UNL     1     101.295 126.521  82.855  0.00  0.00    +0.000 C 
ATOM      2  C   UNL     1     100.049 126.891  82.527  0.00  0.00    +0.000 C 
ENDROOT
BRANCH   1   6
ATOM      3  C   UNL     1     104.853 128.972  80.271  0.00  0.00    +0.000 C 
ATOM      4  C   UNL     1     104.133 127.703  80.621  0.00  0.00    +0.000 A 
ATOM      5  C   UNL     1     103.081 127.717  81.549  0.00  0.00    +0.000 A 
ATOM      6  C   UNL     1     102.423 126.533  81.913  0.00  0.00    +0.000 A 
ATOM      7  C   UNL     1     102.821 125.329  81.321  0.00  0.00    +0.000 A 
ATOM      8  C   UNL     1     103.877 125.303  80.409  0.00  0.00    +0.000 A 
ATOM      9  C   UNL     1     104.536 126.483  80.067  0.00  0.00    +0.000 A 
ENDBRANCH   1   6
BRANCH   2  10
ATOM     10  S   UNL     1      98.772 126.863  83.701  0.00  0.00    +0.000 S 
BRANCH  10  11
ATOM     11  C   UNL     1      98.848 128.560  84.243  0.00  0.00    +0.000 A 
ATOM     12  C   UNL     1      98.372 128.913  85.510  0.00  0.00    +0.000 A 
ATOM     13  C   UNL     1      98.435 130.239  85.940  0.00  0.00    +0.000 A 
ATOM     14  C   UNL     1      98.976 131.218  85.108  0.00  0.00    +0.000 A 
ATOM     15  C   UNL     1      99.458 130.872  83.846  0.00  0.00    +0.000 A 
ATOM     16  C   UNL     1      99.398 129.545  83.415  0.00  0.00    +0.000 A 
ENDBRANCH  10  11
ENDBRANCH   2  10
TORSDOF 3
ENDMDL
