MODEL 1
REMARK VINA RESULT:      -4.7      0.000      0.000
REMARK  Name = *****
REMARK  2 active torsions:
REMARK  status: ('A' for Active; 'I' for Inactive)
REMARK    1  A    between atoms: C_2  and  C_11
REMARK    2  A    between atoms: C_3  and  C_4
REMARK                            x       y       z     vdW  Elec       q    Type
REMARK                         _______ _______ _______ _____ _____    ______ ____
ROOT
ATOM      1  C   UNL     1      89.681  65.671  85.949  0.00  0.00    +0.000 C 
ATOM      2  C   UNL     1      88.473  66.099  86.743  0.00  0.00    +0.000 C 
ATOM      3  C   UNL     1      89.738  66.948  86.746  0.00  0.00    +0.000 C 
ENDROOT
BRANCH   3   4
ATOM      4  C   UNL     1      89.744  68.284  86.041  0.00  0.00    +0.000 A 
ATOM      5  C   UNL     1      89.599  69.487  86.754  0.00  0.00    +0.000 A 
ATOM      6  C   UNL     1      89.619  70.727  86.107  0.00  0.00    +0.000 A 
ATOM      7  C   UNL     1      89.793  70.780  84.727  0.00  0.00    +0.000 A 
ATOM      8  C   UNL     1      89.949  69.607  83.995  0.00  0.00    +0.000 A 
ATOM      9  C   UNL     1      89.928  68.374  84.651  0.00  0.00    +0.000 A 
ATOM     10 BR   UNL     1      89.820  72.452  83.847  0.00  0.00    +0.000 Br
ENDBRANCH   3   4
BRANCH   2  11
ATOM     11  C   UNL     1      88.074  65.338  87.984  0.00  0.00    +0.000 A 
ATOM     12  C   UNL     1      87.061  65.808  88.837  0.00  0.00    +0.000 A 
ATOM     13  C   UNL     1      86.679  65.097  89.978  0.00  0.00    +0.000 A 
ATOM     14  C   UNL     1      87.301  63.890  90.286  0.00  0.00    +0.000 A 
ATOM     15  C   UNL     1      88.302  63.397  89.453  0.00  0.00    +0.000 A 
ATOM     16  C   UNL     1      88.679  64.113  88.315  0.00  0.00    +0.000 A 
ENDBRANCH   2  11
TORSDOF 2
ENDMDL
