MODEL 1
REMARK VINA RESULT:      -5.0      0.000      0.000
REMARK  Name = *****
REMARK  2 active torsions:
REMARK  status: ('A' for Active; 'I' for Inactive)
REMARK    1  A    between atoms: C_4  and  C_8
REMARK    2  A    between atoms: N_9  and  C_10
REMARK                            x       y       z     vdW  Elec       q    Type
REMARK                         _______ _______ _______ _____ _____    ______ ____
ROOT
ATOM      1  C   UNL     1     101.877 126.171  82.278  0.00  0.00    +0.000 C 
ATOM      2  N   UNL     1     102.864 126.436  81.481  0.00  0.00    +0.000 NA
ENDROOT
BRANCH   1   6
ATOM      3  C   UNL     1      99.124 129.169  83.545  0.00  0.00    +0.000 A 
ATOM      4  C   UNL     1      98.668 128.033  82.877  0.00  0.00    +0.000 A 
ATOM      5  C   UNL     1      99.582 127.063  82.469  0.00  0.00    +0.000 A 
ATOM      6  C   UNL     1     100.945 127.219  82.725  0.00  0.00    +0.000 A 
ATOM      7  C   UNL     1     101.405 128.355  83.396  0.00  0.00    +0.000 A 
ATOM      8  C   UNL     1     100.486 129.318  83.798  0.00  0.00    +0.000 A 
ATOM      9  F   UNL     1     100.917 130.411  84.441  0.00  0.00    +0.000 F 
ATOM     10  F   UNL     1      99.128 125.978  81.828  0.00  0.00    +0.000 F 
ENDBRANCH   1   6
BRANCH   2  11
ATOM     11  C   UNL     1     103.681 125.355  81.128  0.00  0.00    +0.000 A 
ATOM     12  C   UNL     1     104.404 125.387  79.933  0.00  0.00    +0.000 A 
ATOM     13  C   UNL     1     105.233 124.321  79.598  0.00  0.00    +0.000 A 
ATOM     14  C   UNL     1     105.365 123.222  80.435  0.00  0.00    +0.000 A 
ATOM     15  C   UNL     1     104.655 123.204  81.627  0.00  0.00    +0.000 A 
ATOM     16  C   UNL     1     103.821 124.261  81.984  0.00  0.00    +0.000 A 
ATOM     17  F   UNL     1     104.776 122.155  82.450  0.00  0.00    +0.000 F 
ATOM     18  F   UNL     1     105.917 124.356  78.447  0.00  0.00    +0.000 F 
ENDBRANCH   2  11
TORSDOF 2
ENDMDL
