MODEL 1
REMARK VINA RESULT:      -4.6      0.000      0.000
REMARK  Name = *****
REMARK  5 active torsions:
REMARK  status: ('A' for Active; 'I' for Inactive)
REMARK    1  A    between atoms: C_1  and  C_2
REMARK    2  A    between atoms: C_2  and  C_16
REMARK    3  A    between atoms: C_5  and  C_8
REMARK    4  A    between atoms: C_8  and  C_9
REMARK    5  A    between atoms: C_9  and  C_10
REMARK                            x       y       z     vdW  Elec       q    Type
REMARK                         _______ _______ _______ _____ _____    ______ ____
ROOT
ATOM      1  C   UNL     1      88.925  64.459  86.652  0.00  0.00    +0.000 C 
ATOM      2  C   UNL     1      88.705  65.907  86.184  0.00  0.00    +0.000 C 
ATOM      3  C   UNL     1      90.079  66.638  86.145  0.00  0.00    +0.000 C 
ATOM      4  C   UNL     1      89.995  68.131  86.333  0.00  0.00    +0.000 C 
ATOM      5  C   UNL     1      88.955  68.725  86.949  0.00  0.00    +0.000 C 
ATOM      6  C   UNL     1      87.873  67.897  87.460  0.00  0.00    +0.000 C 
ATOM      7  C   UNL     1      87.735  66.607  87.117  0.00  0.00    +0.000 C 
ATOM      8  C   UNL     1      88.081  65.883  84.776  0.00  0.00    +0.000 C 
ENDROOT
BRANCH   5   9
ATOM      9  C   UNL     1      88.801  70.213  87.199  0.00  0.00    +0.000 C 
BRANCH   9  10
ATOM     10  C   UNL     1      87.835  70.627  88.318  0.00  0.00    +0.000 C 
BRANCH  10  11
ATOM     11  C   UNL     1      86.591  71.281  87.767  0.00  0.00    +0.000 A 
ATOM     12  C   UNL     1      85.595  71.756  88.631  0.00  0.00    +0.000 A 
ATOM     13  C   UNL     1      84.436  72.344  88.120  0.00  0.00    +0.000 A 
ATOM     14  C   UNL     1      84.261  72.457  86.742  0.00  0.00    +0.000 A 
ATOM     15  C   UNL     1      85.242  71.983  85.874  0.00  0.00    +0.000 A 
ATOM     16  C   UNL     1      86.401  71.395  86.383  0.00  0.00    +0.000 A 
ENDBRANCH  10  11
ENDBRANCH   9  10
ENDBRANCH   5   9
TORSDOF 3
ENDMDL
