MODEL 1
REMARK VINA RESULT:      -4.9      0.000      0.000
REMARK  Name = *****
REMARK  6 active torsions:
REMARK  status: ('A' for Active; 'I' for Inactive)
REMARK    1  A    between atoms: C_1  and  C_2
REMARK    2  A    between atoms: C_7  and  C_8
REMARK    3  A    between atoms: C_9  and  C_10
REMARK    4  A    between atoms: C_13  and  O_16
REMARK    5  A    between atoms: O_16  and  C_17
REMARK    6  A    between atoms: C_17  and  C_19
REMARK                            x       y       z     vdW  Elec       q    Type
REMARK                         _______ _______ _______ _____ _____    ______ ____
ROOT
ATOM      1  C   UNL     1      84.870  60.893  90.105  0.00  0.00    +0.000 A 
ATOM      2  C   UNL     1      83.493  60.802  90.355  0.00  0.00    +0.000 A 
ATOM      3  C   UNL     1      82.958  59.684  91.002  0.00  0.00    +0.000 A 
ATOM      4  C   UNL     1      83.801  58.640  91.371  0.00  0.00    +0.000 A 
ATOM      5  C   UNL     1      85.172  58.709  91.135  0.00  0.00    +0.000 A 
ATOM      6  C   UNL     1      85.701  59.830  90.491  0.00  0.00    +0.000 A 
ENDROOT
BRANCH   1   8
ATOM      7  C   UNL     1      86.620  61.982  88.711  0.00  0.00    +0.000 C 
ATOM      8  C   UNL     1      85.470  62.038  89.403  0.00  0.00    +0.000 C 
BRANCH   7  15
ATOM      9  C   UNL     1      88.688  63.685  89.988  0.00  0.00    +0.000 C 
ATOM     10  C   UNL     1      88.156  63.967  88.608  0.00  0.00    +0.000 A 
ATOM     11  C   UNL     1      88.636  65.087  87.909  0.00  0.00    +0.000 A 
ATOM     12  C   UNL     1      88.167  65.388  86.631  0.00  0.00    +0.000 A 
ATOM     13  C   UNL     1      87.205  64.579  86.036  0.00  0.00    +0.000 A 
ATOM     14  C   UNL     1      86.714  63.467  86.719  0.00  0.00    +0.000 A 
ATOM     15  C   UNL     1      87.184  63.143  88.003  0.00  0.00    +0.000 A 
ENDBRANCH   7  15
ENDBRANCH   1   8
BRANCH   4  16
ATOM     16  O   UNL     1      83.323  57.527  92.074  0.00  0.00    +0.000 OA
BRANCH  16  17
ATOM     17  C   UNL     1      82.799  56.494  91.302  0.00  0.00    +0.000 C 
ATOM     18  O   UNL     1      82.974  56.303  90.107  0.00  0.00    +0.000 OA
ATOM     19  C   UNL     1      81.972  55.609  92.187  0.00  0.00    +0.000 C 
ENDBRANCH  16  17
ENDBRANCH   4  16
TORSDOF 4
ENDMDL
