MODEL 1
REMARK VINA RESULT:      -4.9      0.000      0.000
REMARK  Name = *****
REMARK  3 active torsions:
REMARK  status: ('A' for Active; 'I' for Inactive)
REMARK    1  A    between atoms: C_4  and  C_7
REMARK    2  A    between atoms: C_7  and  C_8
REMARK    3  A    between atoms: C_8  and  C_9
REMARK                            x       y       z     vdW  Elec       q    Type
REMARK                         _______ _______ _______ _____ _____    ______ ____
ROOT
ATOM      1  C   UNL     1      88.769  70.417  86.564  0.00  0.00    +0.000 C 
ATOM      2  F   UNL     1      89.995  70.980  86.818  0.00  0.00    +0.000 F 
ATOM      3  F   UNL     1      87.935  70.967  87.504  0.00  0.00    +0.000 F 
ENDROOT
BRANCH   1   4
ATOM      4  C   UNL     1      88.830  68.902  86.719  0.00  0.00    +0.000 A 
ATOM      5  C   UNL     1      89.943  68.181  86.253  0.00  0.00    +0.000 A 
ATOM      6  C   UNL     1      89.992  66.792  86.390  0.00  0.00    +0.000 A 
ATOM      7  C   UNL     1      88.932  66.124  86.990  0.00  0.00    +0.000 A 
ATOM      8  C   UNL     1      87.823  66.816  87.459  0.00  0.00    +0.000 A 
ATOM      9  C   UNL     1      87.770  68.204  87.324  0.00  0.00    +0.000 A 
ATOM     10  F   UNL     1      88.982  64.791  87.121  0.00  0.00    +0.000 F 
ENDBRANCH   1   4
BRANCH   1  11
ATOM     11  C   UNL     1      88.293  70.838  85.140  0.00  0.00    +0.000 C 
ATOM     12  F   UNL     1      87.271  71.747  85.258  0.00  0.00    +0.000 F 
ATOM     13  F   UNL     1      87.721  69.756  84.518  0.00  0.00    +0.000 F 
BRANCH  11  17
ATOM     14  C   UNL     1      91.537  72.459  82.780  0.00  0.00    +0.000 A 
ATOM     15  C   UNL     1      91.481  71.091  83.040  0.00  0.00    +0.000 A 
ATOM     16  C   UNL     1      90.433  70.566  83.798  0.00  0.00    +0.000 A 
ATOM     17  C   UNL     1      89.429  71.407  84.304  0.00  0.00    +0.000 A 
ATOM     18  C   UNL     1      89.497  72.782  84.033  0.00  0.00    +0.000 A 
ATOM     19  C   UNL     1      90.546  73.304  83.275  0.00  0.00    +0.000 A 
ENDBRANCH  11  17
ENDBRANCH   1  11
TORSDOF 3
ENDMDL
