REMARK  Name = *****
REMARK  5 active torsions:
REMARK  status: ('A' for Active; 'I' for Inactive)
REMARK    1  A    between atoms: C_1  and  C_2
REMARK    2  A    between atoms: C_5  and  S_8
REMARK    3  A    between atoms: S_8  and  C_9
REMARK    4  A    between atoms: C_9  and  O_11
REMARK    5  A    between atoms: O_11  and  C_12
REMARK                            x       y       z     vdW  Elec       q    Type
REMARK                         _______ _______ _______ _____ _____    ______ ____
ROOT
ATOM      1  C   UNL     1      -4.111   1.763  -0.092  0.00  0.00    +0.000 C 
ATOM      2  O   UNL     1      -3.889   2.816   0.497  0.00  0.00    +0.000 OA
ENDROOT
BRANCH   1   3
ATOM      3  S   UNL     1      -3.718   0.214   0.659  0.00  0.00    +0.000 S 
BRANCH   3   8
ATOM      4  C   UNL     1       2.293   0.050  -0.324  0.00  0.00    +0.000 C 
ATOM      5  C   UNL     1       0.811   0.114  -0.101  0.00  0.00    +0.000 A 
ATOM      6  C   UNL     1       0.268   1.042   0.794  0.00  0.00    +0.000 A 
ATOM      7  C   UNL     1      -1.110   1.080   1.026  0.00  0.00    +0.000 A 
ATOM      8  C   UNL     1      -1.962   0.188   0.369  0.00  0.00    +0.000 A 
ATOM      9  C   UNL     1      -1.419  -0.756  -0.507  0.00  0.00    +0.000 A 
ATOM     10  C   UNL     1      -0.041  -0.794  -0.739  0.00  0.00    +0.000 A 
ENDBRANCH   3   8
ENDBRANCH   1   3
BRANCH   1  11
ATOM     11  O   UNL     1      -4.685   1.650  -1.352  0.00  0.00    +0.000 OA
BRANCH  11  12
ATOM     12  C   UNL     1      -4.957   2.897  -1.906  0.00  0.00    +0.000 A 
ATOM     13  C   UNL     1      -4.010   3.520  -2.711  0.00  0.00    +0.000 A 
ATOM     14  C   UNL     1      -4.285   4.755  -3.293  0.00  0.00    +0.000 A 
ATOM     15  C   UNL     1      -5.522   5.366  -3.072  0.00  0.00    +0.000 A 
ATOM     16  C   UNL     1      -6.480   4.734  -2.273  0.00  0.00    +0.000 A 
ATOM     17  C   UNL     1      -6.193   3.499  -1.697  0.00  0.00    +0.000 A 
ATOM     18  F   UNL     1      -7.119   2.894  -0.941  0.00  0.00    +0.000 F 
ATOM     19  F   UNL     1      -2.825   2.935  -2.934  0.00  0.00    +0.000 F 
ENDBRANCH  11  12
ENDBRANCH   1  11
TORSDOF 4
