REMARK  Name = *****
REMARK  1 active torsions:
REMARK  status: ('A' for Active; 'I' for Inactive)
REMARK    1  A    between atoms: C_4  and  C_7
REMARK                            x       y       z     vdW  Elec       q    Type
REMARK                         _______ _______ _______ _____ _____    ______ ____
ROOT
ATOM      1  C   UNL     1      -1.943  -0.410  -0.643  0.00  0.00    +0.000 C 
ATOM      2  C   UNL     1      -3.307  -0.139  -0.041  0.00  0.00    +0.000 C 
ATOM      3  C   UNL     1      -2.651  -1.487   0.166  0.00  0.00    +0.000 C 
ATOM      4  C   UNL     1      -3.260  -2.679  -0.545  0.00  0.00    +0.000 A 
ATOM      5  C   UNL     1      -2.697  -3.960  -0.425  0.00  0.00    +0.000 A 
ATOM      6  C   UNL     1      -3.264  -5.061  -1.070  0.00  0.00    +0.000 A 
ATOM      7  C   UNL     1      -4.407  -4.900  -1.847  0.00  0.00    +0.000 A 
ATOM      8  C   UNL     1      -4.985  -3.637  -1.986  0.00  0.00    +0.000 A 
ATOM      9  C   UNL     1      -4.421  -2.529  -1.342  0.00  0.00    +0.000 A 
ATOM     10  C   UNL     1      -5.026  -1.195  -1.510  0.00  0.00    +0.000 C 
ATOM     11  C   UNL     1      -4.490  -0.115  -0.916  0.00  0.00    +0.000 C 
ENDROOT
BRANCH   1  15
ATOM     12  C   UNL     1       1.626   1.454   0.971  0.00  0.00    +0.000 A 
ATOM     13  C   UNL     1       1.597   0.083   0.733  0.00  0.00    +0.000 A 
ATOM     14  C   UNL     1       0.443  -0.511   0.216  0.00  0.00    +0.000 A 
ATOM     15  C   UNL     1      -0.707   0.245  -0.070  0.00  0.00    +0.000 A 
ATOM     16  C   UNL     1      -0.646   1.628   0.167  0.00  0.00    +0.000 A 
ATOM     17  C   UNL     1       0.505   2.228   0.686  0.00  0.00    +0.000 A 
ENDBRANCH   1  15
TORSDOF 1
