REMARK  Name = *****
REMARK  5 active torsions:
REMARK  status: ('A' for Active; 'I' for Inactive)
REMARK    1  A    between atoms: C_4  and  C_7
REMARK    2  A    between atoms: C_7  and  O_8
REMARK    3  A    between atoms: O_8  and  C_9
REMARK    4  A    between atoms: C_11  and  O_15
REMARK    5  A    between atoms: O_15  and  C_16
REMARK                            x       y       z     vdW  Elec       q    Type
REMARK                         _______ _______ _______ _____ _____    ______ ____
ROOT
ATOM      1  C   UNL     1      -4.722  -0.673  -1.072  0.00  0.00    +0.000 A 
ATOM      2  C   UNL     1      -5.295  -1.886  -1.445  0.00  0.00    +0.000 A 
ATOM      3  C   UNL     1      -6.674  -1.973  -1.536  0.00  0.00    +0.000 A 
ATOM      4  N   UNL     1      -7.496  -0.942  -1.278  0.00  0.00    +0.000 NA
ATOM      5  C   UNL     1      -6.919   0.223  -0.915  0.00  0.00    +0.000 A 
ATOM      6  C   UNL     1      -5.551   0.408  -0.798  0.00  0.00    +0.000 A 
ENDROOT
BRANCH   1   7
ATOM      7  O   UNL     1      -3.357  -0.679  -1.011  0.00  0.00    +0.000 OA
BRANCH   7   8
ATOM      8  C   UNL     1      -2.710   0.549  -0.672  0.00  0.00    +0.000 C 
BRANCH   8  12
ATOM      9  C   UNL     1       1.579   0.079  -0.844  0.00  0.00    +0.000 A 
ATOM     10  C   UNL     1       0.782  -0.421  -1.871  0.00  0.00    +0.000 A 
ATOM     11  C   UNL     1      -0.605  -0.278  -1.813  0.00  0.00    +0.000 A 
ATOM     12  C   UNL     1      -1.212   0.359  -0.720  0.00  0.00    +0.000 A 
ATOM     13  C   UNL     1      -0.398   0.867   0.303  0.00  0.00    +0.000 A 
ATOM     14  C   UNL     1       0.990   0.724   0.242  0.00  0.00    +0.000 A 
ENDBRANCH   8  12
ENDBRANCH   7   8
ENDBRANCH   1   7
BRANCH   3  15
ATOM     15  O   UNL     1      -7.182  -3.190  -1.910  0.00  0.00    +0.000 OA
BRANCH  15  16
ATOM     16  C   UNL     1      -8.593  -3.209  -1.998  0.00  0.00    +0.000 C 
ATOM     17  F   UNL     1      -9.056  -2.357  -2.938  0.00  0.00    +0.000 F 
ATOM     18  F   UNL     1      -8.960  -4.459  -2.381  0.00  0.00    +0.000 F 
ATOM     19  F   UNL     1      -9.181  -2.972  -0.806  0.00  0.00    +0.000 F 
ENDBRANCH  15  16
ENDBRANCH   3  15
TORSDOF 5
