REMARK  Name = *****
REMARK  4 active torsions:
REMARK  status: ('A' for Active; 'I' for Inactive)
REMARK    1  A    between atoms: C_4  and  O_10
REMARK    2  A    between atoms: C_5  and  C_7
REMARK    3  A    between atoms: O_10  and  C_11
REMARK    4  A    between atoms: C_11  and  C_13
REMARK                            x       y       z     vdW  Elec       q    Type
REMARK                         _______ _______ _______ _____ _____    ______ ____
ROOT
ATOM      1  O   UNL     1      -2.796   0.487  -0.355  0.00  0.00    +0.000 OA
ENDROOT
BRANCH   1   5
ATOM      2  C   UNL     1       1.328  -0.191  -0.052  0.00  0.00    +0.000 A 
ATOM      3  C   UNL     1       0.526  -1.051  -0.799  0.00  0.00    +0.000 A 
ATOM      4  C   UNL     1      -0.850  -0.834  -0.873  0.00  0.00    +0.000 A 
ATOM      5  C   UNL     1      -1.428   0.233  -0.174  0.00  0.00    +0.000 A 
ATOM      6  C   UNL     1      -0.633   1.109   0.574  0.00  0.00    +0.000 A 
ATOM      7  C   UNL     1       0.754   0.888   0.625  0.00  0.00    +0.000 A 
BRANCH   6   8
ATOM      8  C   UNL     1      -1.171   2.290   1.306  0.00  0.00    +0.000 C 
ATOM      9  O   UNL     1      -0.447   3.285   1.352  0.00  0.00    +0.000 OA
ATOM     10 CL   UNL     1      -2.729   2.204   2.096  0.00  0.00    +0.000 Cl
ENDBRANCH   6   8
ENDBRANCH   1   5
BRANCH   1  11
ATOM     11  C   UNL     1      -3.646  -0.484   0.147  0.00  0.00    +0.000 C 
ATOM     12  O   UNL     1      -3.323  -1.506   0.733  0.00  0.00    +0.000 OA
BRANCH  11  13
ATOM     13  C   UNL     1      -5.062  -0.112  -0.127  0.00  0.00    +0.000 A 
ATOM     14  C   UNL     1      -6.064  -1.023   0.239  0.00  0.00    +0.000 A 
ATOM     15  C   UNL     1      -7.410  -0.726   0.007  0.00  0.00    +0.000 A 
ATOM     16  C   UNL     1      -7.759   0.484  -0.590  0.00  0.00    +0.000 A 
ATOM     17  C   UNL     1      -6.773   1.400  -0.955  0.00  0.00    +0.000 A 
ATOM     18  C   UNL     1      -5.425   1.104  -0.725  0.00  0.00    +0.000 A 
ATOM     19 CL   UNL     1      -9.414   0.851  -0.876  0.00  0.00    +0.000 Cl
ENDBRANCH  11  13
ENDBRANCH   1  11
TORSDOF 4
