MODEL 1
REMARK VINA RESULT:      -4.1      0.000      0.000
REMARK  Name = *****
REMARK  6 active torsions:
REMARK  status: ('A' for Active; 'I' for Inactive)
REMARK    1  A    between atoms: C_1  and  C_2
REMARK    2  A    between atoms: C_2  and  O_4
REMARK    3  A    between atoms: O_4  and  C_5
REMARK    4  A    between atoms: C_10  and  S_11
REMARK    5  A    between atoms: S_11  and  C_12
REMARK    6  A    between atoms: C_12  and  C_13
REMARK                            x       y       z     vdW  Elec       q    Type
REMARK                         _______ _______ _______ _____ _____    ______ ____
ROOT
ATOM      1  C   UNL     1      88.563  69.774  85.782  0.00  0.00    +0.000 C 
ATOM      2  C   UNL     1      89.818  70.655  85.814  0.00  0.00    +0.000 C 
ATOM      3  C   UNL     1      90.062  71.479  84.557  0.00  0.00    +0.000 C 
ATOM      4  C   UNL     1      88.812  72.230  84.126  0.00  0.00    +0.000 C 
ATOM      5  C   UNL     1      87.655  71.274  83.858  0.00  0.00    +0.000 C 
ATOM      6  C   UNL     1      87.328  70.345  85.038  0.00  0.00    +0.000 C 
ENDROOT
BRANCH   1   7
ATOM      7  O   UNL     1      88.875  68.394  85.437  0.00  0.00    +0.000 OA
BRANCH   7   9
ATOM      8  C   UNL     1      88.230  66.929  87.134  0.00  0.00    +0.000 C 
ATOM      9  C   UNL     1      89.359  67.514  86.342  0.00  0.00    +0.000 C 
ATOM     10  O   UNL     1      90.530  67.213  86.503  0.00  0.00    +0.000 OA
ENDBRANCH   7   9
ENDBRANCH   1   7
BRANCH   6  11
ATOM     11  S   UNL     1      86.285  71.278  86.255  0.00  0.00    +0.000 S 
BRANCH  11  12
ATOM     12  C   UNL     1      86.525  70.226  87.722  0.00  0.00    +0.000 C 
BRANCH  12  13
ATOM     13  C   UNL     1      86.948  71.041  88.919  0.00  0.00    +0.000 A 
ATOM     14  C   UNL     1      88.294  71.082  89.311  0.00  0.00    +0.000 A 
ATOM     15  C   UNL     1      88.685  71.830  90.423  0.00  0.00    +0.000 A 
ATOM     16  C   UNL     1      87.737  72.540  91.156  0.00  0.00    +0.000 A 
ATOM     17  C   UNL     1      86.394  72.499  90.781  0.00  0.00    +0.000 A 
ATOM     18  C   UNL     1      86.001  71.751  89.671  0.00  0.00    +0.000 A 
ENDBRANCH  12  13
ENDBRANCH  11  12
ENDBRANCH   6  11
TORSDOF 5
ENDMDL
