MODEL 1
REMARK VINA RESULT:      -4.6      0.000      0.000
REMARK  Name = *****
REMARK  2 active torsions:
REMARK  status: ('A' for Active; 'I' for Inactive)
REMARK    1  A    between atoms: C_3  and  C_10
REMARK    2  A    between atoms: C_11  and  C_12
REMARK                            x       y       z     vdW  Elec       q    Type
REMARK                         _______ _______ _______ _____ _____    ______ ____
ROOT
ATOM      1  C   UNL     1      90.458  70.609  83.864  0.00  0.00    +0.000 C 
ATOM      2  C   UNL     1      89.783  70.971  85.182  0.00  0.00    +0.000 C 
ATOM      3  C   UNL     1      89.814  69.785  86.164  0.00  0.00    +0.000 C 
ATOM      4  C   UNL     1      89.165  68.513  85.569  0.00  0.00    +0.000 C 
ATOM      5  C   UNL     1      89.777  68.226  84.191  0.00  0.00    +0.000 C 
ATOM      6  O   UNL     1      90.162  67.116  83.817  0.00  0.00    +0.000 OA
ATOM      7  C   UNL     1      89.818  69.391  83.219  0.00  0.00    +0.000 C 
ATOM      8 CL   UNL     1      89.446  67.102  86.650  0.00  0.00    +0.000 Cl
ATOM      9 CL   UNL     1      87.390  68.678  85.317  0.00  0.00    +0.000 Cl
ENDROOT
BRANCH   3  10
ATOM     10  C   UNL     1      89.211  70.197  87.451  0.00  0.00    +0.000 C 
ATOM     11  C   UNL     1      88.726  70.545  88.493  0.00  0.00    +0.000 C 
BRANCH  11  12
ATOM     12  C   UNL     1      88.158  70.976  89.733  0.00  0.00    +0.000 A 
ATOM     13  C   UNL     1      87.109  70.258  90.312  0.00  0.00    +0.000 A 
ATOM     14  C   UNL     1      86.558  70.682  91.522  0.00  0.00    +0.000 A 
ATOM     15  C   UNL     1      87.056  71.820  92.156  0.00  0.00    +0.000 A 
ATOM     16  C   UNL     1      88.104  72.538  91.579  0.00  0.00    +0.000 A 
ATOM     17  C   UNL     1      88.656  72.116  90.367  0.00  0.00    +0.000 A 
ENDBRANCH  11  12
ENDBRANCH   3  10
TORSDOF 2
ENDMDL
