MODEL 1
REMARK VINA RESULT:      -4.3      0.000      0.000
REMARK  Name = *****
REMARK  3 active torsions:
REMARK  status: ('A' for Active; 'I' for Inactive)
REMARK    1  A    between atoms: C_4  and  C_7
REMARK    2  A    between atoms: C_7  and  C_16
REMARK    3  A    between atoms: C_8  and  C_9
REMARK                            x       y       z     vdW  Elec       q    Type
REMARK                         _______ _______ _______ _____ _____    ______ ____
ROOT
ATOM      1  C   UNL     1      89.636  68.320  85.780  0.00  0.00    +0.000 C 
ATOM      2  C   UNL     1      89.895  68.959  84.620  0.00  0.00    +0.000 C 
ENDROOT
BRANCH   2   3
ATOM      3  C   UNL     1      89.549  70.345  84.274  0.00  0.00    +0.000 A 
ATOM      4  C   UNL     1      88.215  70.751  84.127  0.00  0.00    +0.000 A 
ATOM      5  C   UNL     1      87.915  72.078  83.812  0.00  0.00    +0.000 A 
ATOM      6  C   UNL     1      88.946  72.997  83.655  0.00  0.00    +0.000 A 
ATOM      7  C   UNL     1      90.274  72.614  83.813  0.00  0.00    +0.000 A 
ATOM      8  C   UNL     1      90.575  71.288  84.128  0.00  0.00    +0.000 A 
ATOM      9  F   UNL     1      88.658  74.269  83.354  0.00  0.00    +0.000 F 
ENDBRANCH   2   3
BRANCH   1  13
ATOM     10  C   UNL     1      87.510  70.118  89.036  0.00  0.00    +0.000 A 
ATOM     11  C   UNL     1      88.747  70.628  88.648  0.00  0.00    +0.000 A 
ATOM     12  C   UNL     1      89.442  70.046  87.586  0.00  0.00    +0.000 A 
ATOM     13  C   UNL     1      88.908  68.942  86.906  0.00  0.00    +0.000 A 
ATOM     14  C   UNL     1      87.658  68.441  87.301  0.00  0.00    +0.000 A 
ATOM     15  C   UNL     1      86.965  69.026  88.363  0.00  0.00    +0.000 A 
ENDBRANCH   1  13
BRANCH   1  16
ATOM     16  C   UNL     1      90.084  66.969  85.933  0.00  0.00    +0.000 C 
ATOM     17  N   UNL     1      90.437  65.868  86.039  0.00  0.00    +0.000 NA
ENDBRANCH   1  16
TORSDOF 3
ENDMDL
