MODEL 1
REMARK VINA RESULT:      -4.5      0.000      0.000
REMARK  Name = *****
REMARK  3 active torsions:
REMARK  status: ('A' for Active; 'I' for Inactive)
REMARK    1  A    between atoms: C_4  and  C_6
REMARK    2  A    between atoms: C_6  and  N_8
REMARK    3  A    between atoms: N_8  and  C_9
REMARK                            x       y       z     vdW  Elec       q    Type
REMARK                         _______ _______ _______ _____ _____    ______ ____
ROOT
ATOM      1  N   UNL     1     101.300 125.897  82.023  0.00  0.00    +0.000 N 
ATOM      2  H   UNL     1     100.686 125.284  81.556  0.00  0.00    +0.000 HD
ENDROOT
BRANCH   1   3
ATOM      3  C   UNL     1     100.660 127.018  82.599  0.00  0.00    +0.000 A 
ATOM      4  C   UNL     1     101.302 128.071  83.247  0.00  0.00    +0.000 A 
ATOM      5  C   UNL     1     100.570 129.149  83.761  0.00  0.00    +0.000 A 
ATOM      6  C   UNL     1      99.186 129.189  83.624  0.00  0.00    +0.000 A 
ATOM      7  C   UNL     1      98.532 128.156  82.962  0.00  0.00    +0.000 A 
ATOM      8  C   UNL     1      99.265 127.083  82.448  0.00  0.00    +0.000 A 
ENDBRANCH   1   3
BRANCH   1   9
ATOM      9  C   UNL     1     102.627 125.490  81.988  0.00  0.00    +0.000 C 
ATOM     10  S   UNL     1     103.571 124.882  83.234  0.00  0.00    +0.000 S 
BRANCH   9  14
ATOM     11  C   UNL     1     105.422 126.629  80.142  0.00  0.00    +0.000 C 
ATOM     12  C   UNL     1     105.441 125.222  79.575  0.00  0.00    +0.000 C 
ATOM     13  C   UNL     1     104.350 124.510  80.361  0.00  0.00    +0.000 C 
ATOM     14  C   UNL     1     103.262 125.574  80.584  0.00  0.00    +0.000 C 
ATOM     15  C   UNL     1     103.938 126.931  80.311  0.00  0.00    +0.000 C 
ENDBRANCH   9  14
ENDBRANCH   1   9
TORSDOF 3
ENDMDL
