MODEL 1
REMARK VINA RESULT:      -5.1      0.000      0.000
REMARK  Name = *****
REMARK  6 active torsions:
REMARK  status: ('A' for Active; 'I' for Inactive)
REMARK    1  A    between atoms: C_1  and  C_2
REMARK    2  A    between atoms: C_4  and  C_18
REMARK    3  A    between atoms: C_5  and  C_9
REMARK    4  A    between atoms: C_7  and  C_8
REMARK    5  A    between atoms: C_9  and  C_10
REMARK    6  A    between atoms: C_10  and  C_12
REMARK                            x       y       z     vdW  Elec       q    Type
REMARK                         _______ _______ _______ _____ _____    ______ ____
ROOT
ATOM      1  C   UNL     1      83.979  72.550  87.205  0.00  0.00    +0.000 C 
ATOM      2  C   UNL     1      85.347  71.927  87.222  0.00  0.00    +0.000 A 
ATOM      3  C   UNL     1      85.932  71.583  88.452  0.00  0.00    +0.000 A 
ATOM      4  C   UNL     1      87.201  70.988  88.526  0.00  0.00    +0.000 A 
ATOM      5  C   UNL     1      87.916  70.747  87.337  0.00  0.00    +0.000 A 
ATOM      6  C   UNL     1      87.322  71.078  86.106  0.00  0.00    +0.000 A 
ATOM      7  C   UNL     1      86.049  71.665  86.034  0.00  0.00    +0.000 A 
ATOM      8  C   UNL     1      85.464  71.991  84.687  0.00  0.00    +0.000 C 
ATOM      9  C   UNL     1      87.763  70.638  89.876  0.00  0.00    +0.000 C 
ENDROOT
BRANCH   5  10
ATOM     10  C   UNL     1      89.297  70.124  87.335  0.00  0.00    +0.000 C 
BRANCH  10  11
ATOM     11  C   UNL     1      89.469  68.972  86.356  0.00  0.00    +0.000 C 
ATOM     12  O   UNL     1      90.007  69.093  85.256  0.00  0.00    +0.000 OA
BRANCH  11  13
ATOM     13  C   UNL     1      88.965  67.621  86.759  0.00  0.00    +0.000 A 
ATOM     14  C   UNL     1      87.782  67.444  87.489  0.00  0.00    +0.000 A 
ATOM     15  C   UNL     1      87.358  66.158  87.839  0.00  0.00    +0.000 A 
ATOM     16  C   UNL     1      88.109  65.045  87.464  0.00  0.00    +0.000 A 
ATOM     17  C   UNL     1      89.287  65.211  86.741  0.00  0.00    +0.000 A 
ATOM     18  C   UNL     1      89.714  66.494  86.390  0.00  0.00    +0.000 A 
ENDBRANCH  11  13
ENDBRANCH  10  11
ENDBRANCH   5  10
TORSDOF 3
ENDMDL
