MODEL 1
REMARK VINA RESULT:      -4.9      0.000      0.000
REMARK  Name = *****
REMARK  5 active torsions:
REMARK  status: ('A' for Active; 'I' for Inactive)
REMARK    1  A    between atoms: C_1  and  N_2
REMARK    2  A    between atoms: N_2  and  C_3
REMARK    3  A    between atoms: N_2  and  C_4
REMARK    4  A    between atoms: C_7  and  C_10
REMARK    5  A    between atoms: C_11  and  C_12
REMARK                            x       y       z     vdW  Elec       q    Type
REMARK                         _______ _______ _______ _____ _____    ______ ____
ROOT
ATOM      1  C   UNL     1     102.829 125.450  82.289  0.00  0.00    +0.000 C 
ATOM      2  C   UNL     1     102.052 126.314  82.594  0.00  0.00    +0.000 C 
ENDROOT
BRANCH   2   3
ATOM      3  C   UNL     1     101.172 127.373  82.978  0.00  0.00    +0.000 A 
ATOM      4  C   UNL     1      99.815 127.331  82.645  0.00  0.00    +0.000 A 
ATOM      5  C   UNL     1      98.961 128.374  82.988  0.00  0.00    +0.000 A 
ATOM      6  C   UNL     1      99.476 129.466  83.671  0.00  0.00    +0.000 A 
ATOM      7  C   UNL     1     100.823 129.530  84.017  0.00  0.00    +0.000 A 
ATOM      8  C   UNL     1     101.677 128.480  83.670  0.00  0.00    +0.000 A 
ATOM      9  F   UNL     1      98.666 130.480  84.001  0.00  0.00    +0.000 F 
ATOM     10  F   UNL     1      99.311 126.282  81.976  0.00  0.00    +0.000 F 
ENDBRANCH   2   3
BRANCH   1  14
ATOM     11  C   UNL     1     105.661 122.411  81.263  0.00  0.00    +0.000 A 
ATOM     12  C   UNL     1     105.214 122.602  82.584  0.00  0.00    +0.000 A 
ATOM     13  C   UNL     1     104.297 123.605  82.925  0.00  0.00    +0.000 A 
ATOM     14  C   UNL     1     103.804 124.462  81.947  0.00  0.00    +0.000 A 
ATOM     15  C   UNL     1     104.252 124.327  80.638  0.00  0.00    +0.000 A 
ATOM     16  C   UNL     1     105.173 123.321  80.308  0.00  0.00    +0.000 A 
BRANCH  11  18
ATOM     17  C   UNL     1     107.912 121.805  80.530  0.00  0.00    +0.000 C 
ATOM     18  N   UNL     1     106.569 121.391  80.945  0.00  0.00    +0.000 N 
ATOM     19  C   UNL     1     106.505 120.127  81.675  0.00  0.00    +0.000 C 
ENDBRANCH  11  18
ENDBRANCH   1  14
TORSDOF 3
ENDMDL
