MODEL 1
REMARK VINA RESULT:      -5.2      0.000      0.000
REMARK  Name = *****
REMARK  5 active torsions:
REMARK  status: ('A' for Active; 'I' for Inactive)
REMARK    1  A    between atoms: C_1  and  C_2
REMARK    2  A    between atoms: C_5  and  N_8
REMARK    3  A    between atoms: N_8  and  N_9
REMARK    4  A    between atoms: N_9  and  C_11
REMARK    5  A    between atoms: C_14  and  C_17
REMARK                            x       y       z     vdW  Elec       q    Type
REMARK                         _______ _______ _______ _____ _____    ______ ____
ROOT
ATOM      1  N   UNL     1      89.191  63.719  88.030  0.00  0.00    +0.000 N 
ATOM      2  H   UNL     1      90.042  63.251  88.192  0.00  0.00    +0.000 HD
ENDROOT
BRANCH   1   7
ATOM      3  C   UNL     1      85.207  62.847  92.073  0.00  0.00    +0.000 C 
ATOM      4  C   UNL     1      86.230  63.110  91.010  0.00  0.00    +0.000 A 
ATOM      5  C   UNL     1      86.152  62.479  89.767  0.00  0.00    +0.000 A 
ATOM      6  C   UNL     1      87.139  62.708  88.810  0.00  0.00    +0.000 A 
ATOM      7  C   UNL     1      88.236  63.554  89.047  0.00  0.00    +0.000 A 
ATOM      8  C   UNL     1      88.301  64.179  90.294  0.00  0.00    +0.000 A 
ATOM      9  C   UNL     1      87.316  63.955  91.266  0.00  0.00    +0.000 A 
ATOM     10  F   UNL     1      87.039  62.087  87.623  0.00  0.00    +0.000 F 
ENDBRANCH   1   7
BRANCH   1  11
ATOM     11  N   UNL     1      89.146  64.440  86.814  0.00  0.00    +0.000 N 
ATOM     12  O   UNL     1      89.148  63.856  85.746  0.00  0.00    +0.000 OA
BRANCH  11  13
ATOM     13  C   UNL     1      89.082  65.893  86.787  0.00  0.00    +0.000 A 
ATOM     14  C   UNL     1      90.141  66.654  86.299  0.00  0.00    +0.000 A 
ATOM     15  C   UNL     1      90.083  68.048  86.301  0.00  0.00    +0.000 A 
ATOM     16  C   UNL     1      88.951  68.705  86.797  0.00  0.00    +0.000 A 
ATOM     17  C   UNL     1      87.881  67.943  87.282  0.00  0.00    +0.000 A 
ATOM     18  C   UNL     1      87.944  66.546  87.278  0.00  0.00    +0.000 A 
ATOM     19  C   UNL     1      88.876  70.203  86.820  0.00  0.00    +0.000 C 
ATOM     20  F   UNL     1      91.249  66.071  85.819  0.00  0.00    +0.000 F 
ENDBRANCH  11  13
ENDBRANCH   1  11
TORSDOF 3
ENDMDL
