MODEL 1
REMARK VINA RESULT:      -4.8      0.000      0.000
REMARK  Name = *****
REMARK  2 active torsions:
REMARK  status: ('A' for Active; 'I' for Inactive)
REMARK    1  A    between atoms: C_4  and  C_7
REMARK    2  A    between atoms: C_8  and  C_9
REMARK                            x       y       z     vdW  Elec       q    Type
REMARK                         _______ _______ _______ _____ _____    ______ ____
ROOT
ATOM      1  C   UNL     1     102.844 126.097  81.197  0.00  0.00    +0.000 C 
ATOM      2  C   UNL     1     102.141 126.006  82.337  0.00  0.00    +0.000 C 
ENDROOT
BRANCH   2   3
ATOM      3  C   UNL     1     101.117 126.995  82.702  0.00  0.00    +0.000 A 
ATOM      4  C   UNL     1      99.780 126.720  82.373  0.00  0.00    +0.000 A 
ATOM      5  C   UNL     1      98.765 127.628  82.681  0.00  0.00    +0.000 A 
ATOM      6  C   UNL     1      99.073 128.826  83.321  0.00  0.00    +0.000 A 
ATOM      7  C   UNL     1     100.397 129.118  83.652  0.00  0.00    +0.000 A 
ATOM      8  C   UNL     1     101.417 128.209  83.342  0.00  0.00    +0.000 A 
ATOM      9  I   UNL     1     103.373 128.745  83.900  0.00  0.00    +0.000 I 
ENDBRANCH   2   3
BRANCH   1  13
ATOM     10  C   UNL     1     105.863 123.267  80.112  0.00  0.00    +0.000 A 
ATOM     11  C   UNL     1     105.719 124.435  79.368  0.00  0.00    +0.000 A 
ATOM     12  C   UNL     1     104.733 125.365  79.706  0.00  0.00    +0.000 A 
ATOM     13  C   UNL     1     103.873 125.131  80.787  0.00  0.00    +0.000 A 
ATOM     14  C   UNL     1     104.040 123.960  81.539  0.00  0.00    +0.000 A 
ATOM     15  C   UNL     1     105.026 123.029  81.200  0.00  0.00    +0.000 A 
ENDBRANCH   1  13
TORSDOF 2
ENDMDL
