MODEL 1
REMARK VINA RESULT:      -4.1      0.000      0.000
REMARK  Name = *****
REMARK  4 active torsions:
REMARK  status: ('A' for Active; 'I' for Inactive)
REMARK    1  A    between atoms: C_6  and  C_9
REMARK    2  A    between atoms: C_9  and  C_10
REMARK    3  A    between atoms: C_10  and  S_11
REMARK    4  A    between atoms: S_11  and  C_12
REMARK                            x       y       z     vdW  Elec       q    Type
REMARK                         _______ _______ _______ _____ _____    ______ ____
ROOT
ATOM      1  C   UNL     1      94.935 119.616  80.967  0.00  0.00    +0.000 C 
ENDROOT
BRANCH   1   7
ATOM      2  C   UNL     1      98.015 118.502  80.722  0.00  0.00    +0.000 C 
ATOM      3  C   UNL     1      98.589 119.780  81.365  0.00  0.00    +0.000 C 
ATOM      4  C   UNL     1      98.955 119.170  82.705  0.00  0.00    +0.000 C 
ATOM      5  C   UNL     1      97.996 118.274  83.008  0.00  0.00    +0.000 C 
ATOM      6  C   UNL     1      96.995 118.287  81.864  0.00  0.00    +0.000 C 
ATOM      7  C   UNL     1      96.209 119.627  81.787  0.00  0.00    +0.000 C 
ATOM      8  C   UNL     1      97.313 120.633  81.446  0.00  0.00    +0.000 C 
ATOM      9  C   UNL     1      96.483 120.820  82.688  0.00  0.00    +0.000 C 
ENDBRANCH   1   7
BRANCH   1  10
ATOM     10  C   UNL     1      94.100 118.345  81.142  0.00  0.00    +0.000 C 
BRANCH  10  11
ATOM     11  S   UNL     1      93.586 117.624  79.545  0.00  0.00    +0.000 S 
BRANCH  11  12
ATOM     12  C   UNL     1      95.111 116.830  79.078  0.00  0.00    +0.000 A 
ATOM     13  C   UNL     1      95.584 115.753  79.835  0.00  0.00    +0.000 A 
ATOM     14  C   UNL     1      96.775 115.114  79.482  0.00  0.00    +0.000 A 
ATOM     15  C   UNL     1      97.493 115.542  78.368  0.00  0.00    +0.000 A 
ATOM     16  C   UNL     1      97.021 116.608  77.602  0.00  0.00    +0.000 A 
ATOM     17  C   UNL     1      95.831 117.248  77.954  0.00  0.00    +0.000 A 
ENDBRANCH  11  12
ENDBRANCH  10  11
ENDBRANCH   1  10
TORSDOF 4
ENDMDL
