REMARK  Name = *****
REMARK  4 active torsions:
REMARK  status: ('A' for Active; 'I' for Inactive)
REMARK    1  A    between atoms: C_4  and  C_7
REMARK    2  A    between atoms: C_8  and  C_9
REMARK    3  A    between atoms: C_14  and  C_15
REMARK    4  A    between atoms: C_15  and  S_16
REMARK                            x       y       z     vdW  Elec       q    Type
REMARK                         _______ _______ _______ _____ _____    ______ ____
ROOT
ATOM      1  C   UNL     1      -5.202  -0.159  -0.494  0.00  0.00    +0.000 A 
ATOM      2  C   UNL     1      -5.905  -0.444   0.687  0.00  0.00    +0.000 A 
ATOM      3  C   UNL     1      -7.267  -0.163   0.790  0.00  0.00    +0.000 A 
ATOM      4  C   UNL     1      -7.940   0.406  -0.285  0.00  0.00    +0.000 A 
ATOM      5  C   UNL     1      -7.252   0.698  -1.464  0.00  0.00    +0.000 A 
ATOM      6  C   UNL     1      -5.875   0.429  -1.584  0.00  0.00    +0.000 A 
ENDROOT
BRANCH   1   8
ATOM      7  C   UNL     1      -2.848   0.394  -0.116  0.00  0.00    +0.000 C 
ATOM      8  C   UNL     1      -3.773  -0.483  -0.536  0.00  0.00    +0.000 C 
BRANCH   7  12
ATOM      9  C   UNL     1       1.379  -0.263  -0.109  0.00  0.00    +0.000 A 
ATOM     10  C   UNL     1       0.603  -0.806  -1.131  0.00  0.00    +0.000 A 
ATOM     11  C   UNL     1      -0.780  -0.606  -1.142  0.00  0.00    +0.000 A 
ATOM     12  C   UNL     1      -1.402   0.131  -0.125  0.00  0.00    +0.000 A 
ATOM     13  C   UNL     1      -0.608   0.686   0.887  0.00  0.00    +0.000 A 
ATOM     14  C   UNL     1       0.775   0.486   0.898  0.00  0.00    +0.000 A 
ENDBRANCH   7  12
ENDBRANCH   1   8
BRANCH   6  15
ATOM     15  C   UNL     1      -5.185   0.751  -2.888  0.00  0.00    +0.000 C 
BRANCH  15  16
ATOM     16  S   UNL     1      -5.305  -0.613  -4.079  0.00  0.00    +0.000 S 
ATOM     17  H   UNL     1      -4.698  -1.717  -3.566  0.00  0.00    +0.000 HD
ENDBRANCH  15  16
ENDBRANCH   6  15
TORSDOF 4
