REMARK  Name = *****
REMARK  4 active torsions:
REMARK  status: ('A' for Active; 'I' for Inactive)
REMARK    1  A    between atoms: C_4  and  C_7
REMARK    2  A    between atoms: C_7  and  S_8
REMARK    3  A    between atoms: S_8  and  C_9
REMARK    4  A    between atoms: C_11  and  C_14
REMARK                            x       y       z     vdW  Elec       q    Type
REMARK                         _______ _______ _______ _____ _____    ______ ____
ROOT
ATOM      1  C   UNL     1      -5.428  -0.607  -0.375  0.00  0.00    +0.000 A 
ATOM      2  C   UNL     1      -6.141   0.113  -1.317  0.00  0.00    +0.000 A 
ATOM      3  C   UNL     1      -7.491   0.375  -0.858  0.00  0.00    +0.000 A 
ATOM      4  N   UNL     1      -7.769  -0.128   0.356  0.00  0.00    +0.000 NA
ATOM      5  S   UNL     1      -6.453  -0.921   0.951  0.00  0.00    +0.000 S 
ATOM      6 CL   UNL     1      -5.510   0.621  -2.831  0.00  0.00    +0.000 Cl
ENDROOT
BRANCH   3   7
ATOM      7  C   UNL     1      -8.541   1.126  -1.589  0.00  0.00    +0.000 C 
ATOM      8  O   UNL     1      -8.298   1.673  -2.662  0.00  0.00    +0.000 OA
ATOM      9 CL   UNL     1     -10.144   1.209  -0.853  0.00  0.00    +0.000 Cl
ENDBRANCH   3   7
BRANCH   1  10
ATOM     10  S   UNL     1      -3.773  -1.184  -0.430  0.00  0.00    +0.000 S 
BRANCH  10  11
ATOM     11  C   UNL     1      -2.882   0.374  -0.135  0.00  0.00    +0.000 C 
BRANCH  11  15
ATOM     12  C   UNL     1       1.356  -0.310   0.283  0.00  0.00    +0.000 A 
ATOM     13  C   UNL     1       0.803  -0.110  -0.981  0.00  0.00    +0.000 A 
ATOM     14  C   UNL     1      -0.568   0.114  -1.117  0.00  0.00    +0.000 A 
ATOM     15  C   UNL     1      -1.400   0.144   0.012  0.00  0.00    +0.000 A 
ATOM     16  C   UNL     1      -0.833  -0.068   1.277  0.00  0.00    +0.000 A 
ATOM     17  C   UNL     1       0.538  -0.291   1.411  0.00  0.00    +0.000 A 
ENDBRANCH  11  15
ENDBRANCH  10  11
ENDBRANCH   1  10
TORSDOF 4
