MODEL 1
REMARK VINA RESULT:      -4.7      0.000      0.000
REMARK  Name = *****
REMARK  4 active torsions:
REMARK  status: ('A' for Active; 'I' for Inactive)
REMARK    1  A    between atoms: C_1  and  C_2
REMARK    2  A    between atoms: C_2  and  C_4
REMARK    3  A    between atoms: C_9  and  C_10
REMARK    4  A    between atoms: C_11  and  C_12
REMARK                            x       y       z     vdW  Elec       q    Type
REMARK                         _______ _______ _______ _____ _____    ______ ____
ROOT
ATOM      1  C   UNL     1      99.510 128.683  83.697  0.00  0.00    +0.000 A 
ATOM      2  C   UNL     1      98.823 129.796  84.205  0.00  0.00    +0.000 A 
ATOM      3  C   UNL     1      99.535 130.908  84.658  0.00  0.00    +0.000 A 
ATOM      4  C   UNL     1     100.928 130.912  84.606  0.00  0.00    +0.000 A 
ATOM      5  C   UNL     1     101.613 129.804  84.102  0.00  0.00    +0.000 A 
ATOM      6  C   UNL     1     100.911 128.682  83.644  0.00  0.00    +0.000 A 
ENDROOT
BRANCH   1   8
ATOM      7  C   UNL     1      98.316 126.497  84.270  0.00  0.00    +0.000 C 
ATOM      8  C   UNL     1      98.719 127.516  83.235  0.00  0.00    +0.000 C 
ATOM      9  O   UNL     1      98.447 127.377  82.047  0.00  0.00    +0.000 OA
ENDBRANCH   1   8
BRANCH   6  10
ATOM     10  C   UNL     1     101.656 127.585  83.103  0.00  0.00    +0.000 C 
ATOM     11  C   UNL     1     102.302 126.677  82.654  0.00  0.00    +0.000 C 
BRANCH  11  12
ATOM     12  C   UNL     1     103.107 125.623  82.121  0.00  0.00    +0.000 A 
ATOM     13  C   UNL     1     103.431 125.600  80.764  0.00  0.00    +0.000 A 
ATOM     14  C   UNL     1     104.218 124.566  80.251  0.00  0.00    +0.000 A 
ATOM     15  C   UNL     1     104.678 123.555  81.095  0.00  0.00    +0.000 A 
ATOM     16  C   UNL     1     104.355 123.577  82.452  0.00  0.00    +0.000 A 
ATOM     17  C   UNL     1     103.569 124.611  82.966  0.00  0.00    +0.000 A 
ENDBRANCH  11  12
ENDBRANCH   6  10
TORSDOF 3
ENDMDL
