MODEL 1
REMARK VINA RESULT:      -4.4      0.000      0.000
REMARK  Name = *****
REMARK  4 active torsions:
REMARK  status: ('A' for Active; 'I' for Inactive)
REMARK    1  A    between atoms: C_1  and  C_2
REMARK    2  A    between atoms: C_4  and  C_16
REMARK    3  A    between atoms: C_5  and  N_8
REMARK    4  A    between atoms: C_9  and  C_10
REMARK                            x       y       z     vdW  Elec       q    Type
REMARK                         _______ _______ _______ _____ _____    ______ ____
ROOT
ATOM      1  C   UNL     1      98.539 128.693  84.797  0.00  0.00    +0.000 C 
ATOM      2  C   UNL     1      99.653 128.151  83.953  0.00  0.00    +0.000 A 
ATOM      3  C   UNL     1     100.926 128.738  83.996  0.00  0.00    +0.000 A 
ATOM      4  C   UNL     1     101.972 128.258  83.192  0.00  0.00    +0.000 A 
ATOM      5  C   UNL     1     101.729 127.194  82.307  0.00  0.00    +0.000 A 
ATOM      6  C   UNL     1     100.459 126.609  82.269  0.00  0.00    +0.000 A 
ATOM      7  C   UNL     1      99.426 127.088  83.075  0.00  0.00    +0.000 A 
ATOM      8  C   UNL     1     103.332 128.894  83.270  0.00  0.00    +0.000 C 
ENDROOT
BRANCH   5   9
ATOM      9  N   UNL     1     102.748 126.686  81.483  0.00  0.00    +0.000 NA
ATOM     10  C   UNL     1     103.082 125.452  81.698  0.00  0.00    +0.000 C 
BRANCH  10  11
ATOM     11  C   UNL     1     104.133 124.780  80.911  0.00  0.00    +0.000 A 
ATOM     12  C   UNL     1     104.436 123.432  81.124  0.00  0.00    +0.000 A 
ATOM     13  C   UNL     1     105.435 122.819  80.368  0.00  0.00    +0.000 A 
ATOM     14  C   UNL     1     106.129 123.550  79.403  0.00  0.00    +0.000 A 
ATOM     15  C   UNL     1     105.826 124.896  79.192  0.00  0.00    +0.000 A 
ATOM     16  C   UNL     1     104.827 125.515  79.945  0.00  0.00    +0.000 A 
ENDBRANCH  10  11
ENDBRANCH   5   9
TORSDOF 2
ENDMDL
