MODEL 1
REMARK VINA RESULT:      -4.5      0.000      0.000
REMARK  Name = *****
REMARK  5 active torsions:
REMARK  status: ('A' for Active; 'I' for Inactive)
REMARK    1  A    between atoms: C_1  and  N_2
REMARK    2  A    between atoms: N_2  and  S_3
REMARK    3  A    between atoms: S_3  and  C_5
REMARK    4  A    between atoms: S_3  and  C_13
REMARK    5  A    between atoms: C_5  and  C_6
REMARK                            x       y       z     vdW  Elec       q    Type
REMARK                         _______ _______ _______ _____ _____    ______ ____
ROOT
ATOM      1  S   UNL     1     103.790 125.780  82.023  0.00  0.00    +0.000 S 
ATOM      2  O   UNL     1     104.934 126.455  82.615  0.00  0.00    +0.000 OA
ENDROOT
BRANCH   1   3
ATOM      3  C   UNL     1     104.253 124.058  81.890  0.00  0.00    +0.000 A 
ATOM      4  C   UNL     1     104.590 123.512  80.649  0.00  0.00    +0.000 A 
ATOM      5  C   UNL     1     104.940 122.165  80.562  0.00  0.00    +0.000 A 
ATOM      6  C   UNL     1     104.962 121.372  81.710  0.00  0.00    +0.000 A 
ATOM      7  C   UNL     1     104.641 121.924  82.951  0.00  0.00    +0.000 A 
ATOM      8  C   UNL     1     104.288 123.271  83.047  0.00  0.00    +0.000 A 
ENDBRANCH   1   3
BRANCH   1  10
ATOM      9  C   UNL     1     103.678 127.468  80.086  0.00  0.00    +0.000 C 
ATOM     10  N   UNL     1     103.214 126.208  80.648  0.00  0.00    +0.000 NA
ENDBRANCH   1  10
BRANCH   1  11
ATOM     11  C   UNL     1     102.491 125.787  83.260  0.00  0.00    +0.000 C 
BRANCH  11  12
ATOM     12  C   UNL     1     101.445 126.860  83.028  0.00  0.00    +0.000 C 
ATOM     13  C   UNL     1     100.182 126.521  82.706  0.00  0.00    +0.000 C 
ATOM     14  C   UNL     1      99.056 127.467  82.412  0.00  0.00    +0.000 C 
ATOM     15  C   UNL     1      98.715 128.420  83.553  0.00  0.00    +0.000 C 
ATOM     16  C   UNL     1      99.725 129.549  83.734  0.00  0.00    +0.000 C 
ATOM     17  C   UNL     1     101.095 129.097  84.228  0.00  0.00    +0.000 C 
ATOM     18  C   UNL     1     101.901 128.289  83.209  0.00  0.00    +0.000 C 
ENDBRANCH  11  12
ENDBRANCH   1  11
TORSDOF 4
ENDMDL
