REMARK  Name = *****
REMARK  3 active torsions:
REMARK  status: ('A' for Active; 'I' for Inactive)
REMARK    1  A    between atoms: N_4  and  C_7
REMARK    2  A    between atoms: C_7  and  S_9
REMARK    3  A    between atoms: S_9  and  N_10
REMARK                            x       y       z     vdW  Elec       q    Type
REMARK                         _______ _______ _______ _____ _____    ______ ____
ROOT
ATOM      1  C   UNL     1       2.583   0.164   1.399  0.00  0.00    +0.000 C 
ATOM      2  S   UNL     1       3.184   1.693   1.786  0.00  0.00    +0.000 S 
ENDROOT
BRANCH   1   6
ATOM      3  C   UNL     1      -1.191  -0.438  -0.636  0.00  0.00    +0.000 C 
ATOM      4  C   UNL     1      -0.643   0.945  -0.315  0.00  0.00    +0.000 C 
ATOM      5  C   UNL     1       0.882   0.937  -0.273  0.00  0.00    +0.000 C 
ATOM      6  N   UNL     1       1.416  -0.085   0.643  0.00  0.00    +0.000 N 
ATOM      7  C   UNL     1       0.878  -1.436   0.412  0.00  0.00    +0.000 C 
ATOM      8  C   UNL     1      -0.649  -1.455   0.357  0.00  0.00    +0.000 C 
ENDBRANCH   1   6
BRANCH   1   9
ATOM      9  S   UNL     1       3.479  -1.243   2.034  0.00  0.00    +0.000 S 
BRANCH   9  10
ATOM     10  N   UNL     1       4.055  -1.937   0.610  0.00  0.00    +0.000 NA
ATOM     11  C   UNL     1       5.247  -1.334  -0.019  0.00  0.00    +0.000 C 
ATOM     12  C   UNL     1       5.438  -1.803  -1.461  0.00  0.00    +0.000 C 
ATOM     13  C   UNL     1       5.510  -3.321  -1.547  0.00  0.00    +0.000 C 
ATOM     14  C   UNL     1       4.305  -3.940  -0.854  0.00  0.00    +0.000 C 
ATOM     15  C   UNL     1       4.149  -3.409   0.571  0.00  0.00    +0.000 C 
ENDBRANCH   9  10
ENDBRANCH   1   9
TORSDOF 3
