REMARK  Name = *****
REMARK  1 active torsions:
REMARK  status: ('A' for Active; 'I' for Inactive)
REMARK    1  A    between atoms: C_8  and  C_10
REMARK                            x       y       z     vdW  Elec       q    Type
REMARK                         _______ _______ _______ _____ _____    ______ ____
ROOT
ATOM      1  C   UNL     1      -3.708   0.147   0.045  0.00  0.00    +0.000 A 
ATOM      2  C   UNL     1      -4.481   1.147  -0.555  0.00  0.00    +0.000 A 
ATOM      3  C   UNL     1      -5.876   1.081  -0.545  0.00  0.00    +0.000 A 
ATOM      4  C   UNL     1      -6.536   0.023   0.063  0.00  0.00    +0.000 A 
ATOM      5  C   UNL     1      -5.778  -0.971   0.664  0.00  0.00    +0.000 A 
ATOM      6  C   UNL     1      -4.383  -0.914   0.658  0.00  0.00    +0.000 A 
ATOM      7  F   UNL     1      -3.707  -1.895   1.275  0.00  0.00    +0.000 F 
ATOM      8  F   UNL     1      -6.402  -1.996   1.260  0.00  0.00    +0.000 F 
ATOM      9  F   UNL     1      -6.596   2.046  -1.132  0.00  0.00    +0.000 F 
ATOM     10  F   UNL     1      -3.900   2.187  -1.172  0.00  0.00    +0.000 F 
ENDROOT
BRANCH   1  18
ATOM     11  C   UNL     1       2.187   0.620  -0.073  0.00  0.00    +0.000 A 
ATOM     12  C   UNL     1       2.093  -0.771   0.069  0.00  0.00    +0.000 A 
ATOM     13  C   UNL     1       0.852  -1.415   0.151  0.00  0.00    +0.000 A 
ATOM     14  C   UNL     1      -0.260  -0.585   0.083  0.00  0.00    +0.000 A 
ATOM     15  C   UNL     1      -0.212   0.791  -0.057  0.00  0.00    +0.000 A 
ATOM     16  C   UNL     1       1.036   1.421  -0.138  0.00  0.00    +0.000 A 
ATOM     17  N   UNL     1      -1.486   1.298  -0.091  0.00  0.00    +0.000 NA
ATOM     18  C   UNL     1      -2.257   0.233   0.032  0.00  0.00    +0.000 A 
ATOM     19  O   UNL     1      -1.572  -0.952   0.137  0.00  0.00    +0.000 OA
ENDBRANCH   1  18
TORSDOF 1
