REMARK  Name = *****
REMARK  2 active torsions:
REMARK  status: ('A' for Active; 'I' for Inactive)
REMARK    1  A    between atoms: C_5  and  C_7
REMARK    2  A    between atoms: C_8  and  C_9
REMARK                            x       y       z     vdW  Elec       q    Type
REMARK                         _______ _______ _______ _____ _____    ______ ____
ROOT
ATOM      1  C   UNL     1       1.535  -1.584  -1.363  0.00  0.00    +0.000 C 
ATOM      2  C   UNL     1       1.935  -1.949  -2.436  0.00  0.00    +0.000 C 
ENDROOT
BRANCH   2   3
ATOM      3  C   UNL     1       2.410  -2.384  -3.713  0.00  0.00    +0.000 A 
ATOM      4  C   UNL     1       2.530  -1.469  -4.764  0.00  0.00    +0.000 A 
ATOM      5  C   UNL     1       2.996  -1.896  -6.009  0.00  0.00    +0.000 A 
ATOM      6  C   UNL     1       3.337  -3.232  -6.193  0.00  0.00    +0.000 A 
ATOM      7  C   UNL     1       3.221  -4.150  -5.155  0.00  0.00    +0.000 A 
ATOM      8  C   UNL     1       2.756  -3.726  -3.909  0.00  0.00    +0.000 A 
ATOM      9  F   UNL     1       3.784  -3.640  -7.387  0.00  0.00    +0.000 F 
ENDBRANCH   2   3
BRANCH   1  14
ATOM     10  C   UNL     1       0.460   1.303  -0.457  0.00  0.00    +0.000 C 
ATOM     11  C   UNL     1      -0.984   1.063  -0.007  0.00  0.00    +0.000 C 
ATOM     12  C   UNL     1      -1.345  -0.391   0.070  0.00  0.00    +0.000 C 
ATOM     13  C   UNL     1      -0.434  -1.376   0.035  0.00  0.00    +0.000 C 
ATOM     14  C   UNL     1       1.053  -1.140  -0.043  0.00  0.00    +0.000 C 
ATOM     15  C   UNL     1       1.427   0.330   0.220  0.00  0.00    +0.000 C 
ENDBRANCH   1  14
TORSDOF 2
