MODEL 1
REMARK VINA RESULT:      -4.1      0.000      0.000
REMARK  Name = *****
REMARK  4 active torsions:
REMARK  status: ('A' for Active; 'I' for Inactive)
REMARK    1  A    between atoms: C_4  and  C_7
REMARK    2  A    between atoms: C_7  and  S_8
REMARK    3  A    between atoms: S_8  and  C_9
REMARK    4  A    between atoms: C_14  and  S_15
REMARK                            x       y       z     vdW  Elec       q    Type
REMARK                         _______ _______ _______ _____ _____    ______ ____
ROOT
ATOM      1  S   UNL     1     102.922 125.478  83.963  0.00  0.00    +0.000 S 
ENDROOT
BRANCH   1   2
ATOM      2  C   UNL     1     103.712 124.639  82.590  0.00  0.00    +0.000 A 
ATOM      3  C   UNL     1     103.633 125.249  81.329  0.00  0.00    +0.000 A 
ATOM      4  C   UNL     1     104.230 124.659  80.214  0.00  0.00    +0.000 A 
ATOM      5  C   UNL     1     104.909 123.452  80.347  0.00  0.00    +0.000 A 
ATOM      6  C   UNL     1     104.985 122.829  81.595  0.00  0.00    +0.000 A 
ATOM      7  C   UNL     1     104.385 123.408  82.722  0.00  0.00    +0.000 A 
BRANCH   7   8
ATOM      8  S   UNL     1     104.533 122.525  84.272  0.00  0.00    +0.000 S 
ATOM      9  H   UNL     1     104.999 123.369  85.232  0.00  0.00    +0.000 HD
ENDBRANCH   7   8
ENDBRANCH   1   2
BRANCH   1  10
ATOM     10  C   UNL     1     102.739 127.124  83.200  0.00  0.00    +0.000 C 
BRANCH  10  14
ATOM     11  C   UNL     1      98.584 128.243  82.898  0.00  0.00    +0.000 A 
ATOM     12  C   UNL     1      99.496 129.103  83.507  0.00  0.00    +0.000 A 
ATOM     13  C   UNL     1     100.841 128.742  83.604  0.00  0.00    +0.000 A 
ATOM     14  C   UNL     1     101.288 127.518  83.086  0.00  0.00    +0.000 A 
ATOM     15  C   UNL     1     100.360 126.657  82.482  0.00  0.00    +0.000 A 
ATOM     16  C   UNL     1      99.016 127.020  82.387  0.00  0.00    +0.000 A 
ENDBRANCH  10  14
ENDBRANCH   1  10
TORSDOF 4
ENDMDL
