MODEL 1
REMARK VINA RESULT:      -4.5      0.000      0.000
REMARK  Name = *****
REMARK  5 active torsions:
REMARK  status: ('A' for Active; 'I' for Inactive)
REMARK    1  A    between atoms: C_1  and  O_2
REMARK    2  A    between atoms: O_2  and  C_3
REMARK    3  A    between atoms: C_5  and  S_9
REMARK    4  A    between atoms: S_9  and  C_10
REMARK    5  A    between atoms: C_10  and  C_12
REMARK                            x       y       z     vdW  Elec       q    Type
REMARK                         _______ _______ _______ _____ _____    ______ ____
ROOT
ATOM      1  S   UNL     1     101.822 126.059  83.617  0.00  0.00    +0.000 S 
ENDROOT
BRANCH   1   4
ATOM      2  C   UNL     1     104.345 124.762  80.685  0.00  0.00    +0.000 A 
ATOM      3  C   UNL     1     103.551 124.810  81.832  0.00  0.00    +0.000 A 
ATOM      4  C   UNL     1     102.851 125.978  82.161  0.00  0.00    +0.000 A 
ATOM      5  C   UNL     1     102.931 127.094  81.321  0.00  0.00    +0.000 A 
ATOM      6  C   UNL     1     103.720 127.048  80.172  0.00  0.00    +0.000 A 
ATOM      7  C   UNL     1     104.425 125.886  79.859  0.00  0.00    +0.000 A 
BRANCH   2   9
ATOM      8  C   UNL     1     104.699 122.412  80.757  0.00  0.00    +0.000 C 
ATOM      9  O   UNL     1     105.082 123.689  80.261  0.00  0.00    +0.000 OA
ENDBRANCH   2   9
ENDBRANCH   1   4
BRANCH   1  10
ATOM     10  C   UNL     1     100.528 127.097  83.025  0.00  0.00    +0.000 C 
ATOM     11  O   UNL     1      99.701 126.664  82.231  0.00  0.00    +0.000 OA
BRANCH  10  12
ATOM     12  C   UNL     1     100.465 128.512  83.505  0.00  0.00    +0.000 A 
ATOM     13  C   UNL     1      99.340 129.337  83.356  0.00  0.00    +0.000 A 
ATOM     14  C   UNL     1      99.360 130.651  83.834  0.00  0.00    +0.000 A 
ATOM     15  C   UNL     1     100.498 131.153  84.462  0.00  0.00    +0.000 A 
ATOM     16  C   UNL     1     101.620 130.343  84.618  0.00  0.00    +0.000 A 
ATOM     17  C   UNL     1     101.604 129.030  84.143  0.00  0.00    +0.000 A 
ENDBRANCH  10  12
ENDBRANCH   1  10
TORSDOF 4
ENDMDL
