MODEL 1
REMARK VINA RESULT:      -4.6      0.000      0.000
REMARK  Name = *****
REMARK  2 active torsions:
REMARK  status: ('A' for Active; 'I' for Inactive)
REMARK    1  A    between atoms: C_5  and  C_6
REMARK    2  A    between atoms: C_7  and  C_8
REMARK                            x       y       z     vdW  Elec       q    Type
REMARK                         _______ _______ _______ _____ _____    ______ ____
ROOT
ATOM      1  C   UNL     1     102.957 126.175  81.337  0.00  0.00    +0.000 C 
ATOM      2  C   UNL     1     101.736 126.005  81.867  0.00  0.00    +0.000 C 
ENDROOT
BRANCH   1   7
ATOM      3  C   UNL     1     105.000 121.822  81.520  0.00  0.00    +0.000 C 
ATOM      4  C   UNL     1     105.155 122.542  82.851  0.00  0.00    +0.000 C 
ATOM      5  C   UNL     1     104.213 123.735  82.735  0.00  0.00    +0.000 C 
ATOM      6  C   UNL     1     104.218 124.049  81.260  0.00  0.00    +0.000 C 
ATOM      7  C   UNL     1     103.666 125.115  80.657  0.00  0.00    +0.000 C 
ATOM      8  C   UNL     1     104.928 122.954  80.505  0.00  0.00    +0.000 C 
ENDBRANCH   1   7
BRANCH   2   9
ATOM      9  C   UNL     1     100.994 127.061  82.572  0.00  0.00    +0.000 A 
ATOM     10  C   UNL     1     101.638 128.113  83.235  0.00  0.00    +0.000 A 
ATOM     11  C   UNL     1     100.897 129.115  83.868  0.00  0.00    +0.000 A 
ATOM     12  C   UNL     1      99.505 129.081  83.833  0.00  0.00    +0.000 A 
ATOM     13  C   UNL     1      98.853 128.049  83.163  0.00  0.00    +0.000 A 
ATOM     14  C   UNL     1      99.594 127.047  82.530  0.00  0.00    +0.000 A 
ENDBRANCH   2   9
TORSDOF 2
ENDMDL
