REMARK  Name = *****
REMARK  4 active torsions:
REMARK  status: ('A' for Active; 'I' for Inactive)
REMARK    1  A    between atoms: C_3  and  C_7
REMARK    2  A    between atoms: C_7  and  S_8
REMARK    3  A    between atoms: S_8  and  C_9
REMARK    4  A    between atoms: C_9  and  C_10
REMARK                            x       y       z     vdW  Elec       q    Type
REMARK                         _______ _______ _______ _____ _____    ______ ____
ROOT
ATOM      1  S   UNL     1       2.751   2.504   1.305  0.00  0.00    +0.000 S 
ENDROOT
BRANCH   1   2
ATOM      2  C   UNL     1       2.149   0.784   1.182  0.00  0.00    +0.000 C 
BRANCH   2   5
ATOM      3  C   UNL     1       1.634   1.993  -1.921  0.00  0.00    +0.000 C 
ATOM      4  C   UNL     1       1.567   0.579  -1.353  0.00  0.00    +0.000 C 
ATOM      5  C   UNL     1       1.100   0.454   0.099  0.00  0.00    +0.000 C 
ATOM      6  S   UNL     1      -0.517   1.255   0.381  0.00  0.00    +0.000 S 
ATOM      7  C   UNL     1      -0.430   2.662  -0.606  0.00  0.00    +0.000 C 
ATOM      8  C   UNL     1       0.498   2.889  -1.542  0.00  0.00    +0.000 C 
ENDBRANCH   2   5
ENDBRANCH   1   2
BRANCH   1   9
ATOM      9  C   UNL     1       3.871   2.302   2.738  0.00  0.00    +0.000 C 
BRANCH   9  10
ATOM     10  C   UNL     1       4.606   3.606   3.090  0.00  0.00    +0.000 C 
ATOM     11  C   UNL     1       5.628   4.025   2.026  0.00  0.00    +0.000 C 
ATOM     12  C   UNL     1       6.261   5.381   2.335  0.00  0.00    +0.000 C 
ATOM     13  C   UNL     1       6.716   5.566   3.750  0.00  0.00    +0.000 C 
ATOM     14  C   UNL     1       6.441   4.766   4.787  0.00  0.00    +0.000 C 
ATOM     15  S   UNL     1       5.482   3.338   4.682  0.00  0.00    +0.000 S 
ENDBRANCH   9  10
ENDBRANCH   1   9
TORSDOF 4
