REMARK  Name = *****
REMARK  4 active torsions:
REMARK  status: ('A' for Active; 'I' for Inactive)
REMARK    1  A    between atoms: C_6  and  C_7
REMARK    2  A    between atoms: C_7  and  O_8
REMARK    3  A    between atoms: O_8  and  C_9
REMARK    4  A    between atoms: C_9  and  C_10
REMARK                            x       y       z     vdW  Elec       q    Type
REMARK                         _______ _______ _______ _____ _____    ______ ____
ROOT
ATOM      1  O   UNL     1      -3.938   1.352   0.004  0.00  0.00    +0.000 OA
ENDROOT
BRANCH   1   2
ATOM      2  C   UNL     1      -3.443   0.016  -0.013  0.00  0.00    +0.000 C 
BRANCH   2   8
ATOM      3  C   UNL     1      -1.192   1.027  -0.618  0.00  0.00    +0.000 A 
ATOM      4  C   UNL     1       0.204   0.995  -0.612  0.00  0.00    +0.000 A 
ATOM      5  C   UNL     1       0.862  -0.053   0.019  0.00  0.00    +0.000 A 
ATOM      6  C   UNL     1       0.151  -1.072   0.641  0.00  0.00    +0.000 A 
ATOM      7  C   UNL     1      -1.245  -1.041   0.637  0.00  0.00    +0.000 A 
ATOM      8  C   UNL     1      -1.933   0.017   0.018  0.00  0.00    +0.000 A 
ATOM      9  F   UNL     1       2.201  -0.085   0.024  0.00  0.00    +0.000 F 
ENDBRANCH   2   8
ENDBRANCH   1   2
BRANCH   1  10
ATOM     10  C   UNL     1      -5.363   1.386   0.014  0.00  0.00    +0.000 C 
BRANCH  10  11
ATOM     11  C   UNL     1      -5.854   2.814  -0.008  0.00  0.00    +0.000 A 
ATOM     12  C   UNL     1      -7.074   3.125  -0.630  0.00  0.00    +0.000 A 
ATOM     13  C   UNL     1      -7.558   4.435  -0.627  0.00  0.00    +0.000 A 
ATOM     14  C   UNL     1      -6.828   5.434   0.007  0.00  0.00    +0.000 A 
ATOM     15  C   UNL     1      -5.627   5.148   0.641  0.00  0.00    +0.000 A 
ATOM     16  C   UNL     1      -5.143   3.839   0.639  0.00  0.00    +0.000 A 
ATOM     17  F   UNL     1      -7.295   6.690   0.010  0.00  0.00    +0.000 F 
ENDBRANCH  10  11
ENDBRANCH   1  10
TORSDOF 4
