MODEL 1
REMARK VINA RESULT:      -4.8      0.000      0.000
REMARK  Name = *****
REMARK  5 active torsions:
REMARK  status: ('A' for Active; 'I' for Inactive)
REMARK    1  A    between atoms: C_1  and  C_2
REMARK    2  A    between atoms: C_4  and  C_17
REMARK    3  A    between atoms: C_6  and  S_8
REMARK    4  A    between atoms: S_8  and  C_10
REMARK    5  A    between atoms: C_10  and  C_11
REMARK                            x       y       z     vdW  Elec       q    Type
REMARK                         _______ _______ _______ _____ _____    ______ ____
ROOT
ATOM      1  S   UNL     1      88.705  70.333  86.510  0.00  0.00    +0.000 S 
ATOM      2  O   UNL     1      90.058  70.909  86.816  0.00  0.00    +0.000 OA
ENDROOT
BRANCH   1   8
ATOM      3  C   UNL     1      87.030  65.648  88.288  0.00  0.00    +0.000 C 
ATOM      4  C   UNL     1      88.022  66.421  87.469  0.00  0.00    +0.000 A 
ATOM      5  C   UNL     1      89.095  65.764  86.853  0.00  0.00    +0.000 A 
ATOM      6  C   UNL     1      90.033  66.476  86.094  0.00  0.00    +0.000 A 
ATOM      7  C   UNL     1      89.909  67.866  85.985  0.00  0.00    +0.000 A 
ATOM      8  C   UNL     1      88.862  68.539  86.622  0.00  0.00    +0.000 A 
ATOM      9  C   UNL     1      87.919  67.813  87.358  0.00  0.00    +0.000 A 
ATOM     10  C   UNL     1      91.197  65.769  85.464  0.00  0.00    +0.000 C 
ENDBRANCH   1   8
BRANCH   1  11
ATOM     11  C   UNL     1      87.608  70.599  87.945  0.00  0.00    +0.000 C 
BRANCH  11  12
ATOM     12  C   UNL     1      86.316  71.320  87.655  0.00  0.00    +0.000 A 
ATOM     13  C   UNL     1      85.484  71.742  88.704  0.00  0.00    +0.000 A 
ATOM     14  C   UNL     1      84.286  72.404  88.438  0.00  0.00    +0.000 A 
ATOM     15  C   UNL     1      83.904  72.655  87.123  0.00  0.00    +0.000 A 
ATOM     16  C   UNL     1      84.719  72.240  86.071  0.00  0.00    +0.000 A 
ATOM     17  C   UNL     1      85.919  71.577  86.335  0.00  0.00    +0.000 A 
ENDBRANCH  11  12
ENDBRANCH   1  11
TORSDOF 3
ENDMDL
