REMARK  Name = *****
REMARK  1 active torsions:
REMARK  status: ('A' for Active; 'I' for Inactive)
REMARK    1  A    between atoms: C_6  and  C_7
REMARK                            x       y       z     vdW  Elec       q    Type
REMARK                         _______ _______ _______ _____ _____    ______ ____
ROOT
ATOM      1  C   UNL     1       0.797   1.242  -0.255  0.00  0.00    +0.000 C 
ATOM      2  C   UNL     1       1.465  -0.038   0.249  0.00  0.00    +0.000 C 
ATOM      3  C   UNL     1       0.670  -1.285  -0.140  0.00  0.00    +0.000 C 
ATOM      4  C   UNL     1      -0.772  -1.164   0.287  0.00  0.00    +0.000 C 
ATOM      5  C   UNL     1      -1.381  -2.085   0.983  0.00  0.00    +0.000 C 
ATOM      6  C   UNL     1      -1.978  -3.001   1.689  0.00  0.00    +0.000 C 
ATOM      7  C   UNL     1      -1.460   0.098  -0.170  0.00  0.00    +0.000 C 
ATOM      8  C   UNL     1      -0.653   1.338   0.217  0.00  0.00    +0.000 C 
ENDROOT
BRANCH   6   9
ATOM      9  C   UNL     1      -3.371  -3.432   1.494  0.00  0.00    +0.000 A 
ATOM     10  C   UNL     1      -4.174  -2.950   0.450  0.00  0.00    +0.000 A 
ATOM     11  C   UNL     1      -5.494  -3.386   0.303  0.00  0.00    +0.000 A 
ATOM     12  C   UNL     1      -6.028  -4.310   1.196  0.00  0.00    +0.000 A 
ATOM     13  C   UNL     1      -5.243  -4.801   2.236  0.00  0.00    +0.000 A 
ATOM     14  C   UNL     1      -3.923  -4.365   2.383  0.00  0.00    +0.000 A 
ENDBRANCH   6   9
TORSDOF 1
