MODEL 1
REMARK VINA RESULT:      -4.6      0.000      0.000
REMARK  Name = *****
REMARK  6 active torsions:
REMARK  status: ('A' for Active; 'I' for Inactive)
REMARK    1  A    between atoms: C_1  and  C_2
REMARK    2  A    between atoms: C_5  and  C_8
REMARK    3  A    between atoms: C_9  and  C_10
REMARK    4  A    between atoms: C_9  and  C_16
REMARK    5  A    between atoms: C_16  and  O_18
REMARK    6  A    between atoms: O_18  and  C_19
REMARK                            x       y       z     vdW  Elec       q    Type
REMARK                         _______ _______ _______ _____ _____    ______ ____
ROOT
ATOM      1  C   UNL     1     102.808 127.644  82.805  0.00  0.00    +0.000 C 
ATOM      2  C   UNL     1     101.551 127.833  83.257  0.00  0.00    +0.000 C 
ENDROOT
BRANCH   1   7
ATOM      3  C   UNL     1     104.989 122.739  80.667  0.00  0.00    +0.000 C 
ATOM      4  C   UNL     1     104.393 123.995  81.230  0.00  0.00    +0.000 A 
ATOM      5  C   UNL     1     103.899 124.988  80.375  0.00  0.00    +0.000 A 
ATOM      6  C   UNL     1     103.375 126.175  80.895  0.00  0.00    +0.000 A 
ATOM      7  C   UNL     1     103.343 126.386  82.276  0.00  0.00    +0.000 A 
ATOM      8  C   UNL     1     103.850 125.403  83.132  0.00  0.00    +0.000 A 
ATOM      9  C   UNL     1     104.375 124.217  82.611  0.00  0.00    +0.000 A 
ENDBRANCH   1   7
BRANCH   2  10
ATOM     10  C   UNL     1     101.126 129.140  83.796  0.00  0.00    +0.000 A 
ATOM     11  C   UNL     1      99.815 129.608  83.610  0.00  0.00    +0.000 A 
ATOM     12  C   UNL     1      99.416 130.837  84.141  0.00  0.00    +0.000 A 
ATOM     13  C   UNL     1     100.318 131.609  84.868  0.00  0.00    +0.000 A 
ATOM     14  C   UNL     1     101.620 131.155  85.066  0.00  0.00    +0.000 A 
ATOM     15  C   UNL     1     102.021 129.927  84.536  0.00  0.00    +0.000 A 
ENDBRANCH   2  10
BRANCH   2  16
ATOM     16  C   UNL     1     100.590 126.702  83.241  0.00  0.00    +0.000 C 
ATOM     17  O   UNL     1      99.925 126.378  82.268  0.00  0.00    +0.000 OA
BRANCH  16  18
ATOM     18  O   UNL     1     100.624 126.083  84.449  0.00  0.00    +0.000 OA
ATOM     19  C   UNL     1      99.386 126.135  85.154  0.00  0.00    +0.000 C 
ENDBRANCH  16  18
ENDBRANCH   2  16
TORSDOF 4
ENDMDL
