MODEL 1
REMARK VINA RESULT:      -4.8      0.000      0.000
REMARK  Name = *****
REMARK  4 active torsions:
REMARK  status: ('A' for Active; 'I' for Inactive)
REMARK    1  A    between atoms: C_1  and  C_2
REMARK    2  A    between atoms: C_3  and  C_15
REMARK    3  A    between atoms: C_5  and  C_7
REMARK    4  A    between atoms: C_8  and  C_9
REMARK                            x       y       z     vdW  Elec       q    Type
REMARK                         _______ _______ _______ _____ _____    ______ ____
ROOT
ATOM      1  C   UNL     1     102.780 125.692  81.580  0.00  0.00    +0.000 C 
ATOM      2  C   UNL     1     101.892 126.346  82.056  0.00  0.00    +0.000 C 
ENDROOT
BRANCH   1   7
ATOM      3  C   UNL     1     106.209 122.025  80.721  0.00  0.00    +0.000 C 
ATOM      4  C   UNL     1     105.420 123.274  80.563  0.00  0.00    +0.000 C 
ATOM      5  C   UNL     1     105.501 124.238  79.626  0.00  0.00    +0.000 C 
ATOM      6  C   UNL     1     104.508 125.258  79.911  0.00  0.00    +0.000 C 
ATOM      7  C   UNL     1     103.822 124.925  81.013  0.00  0.00    +0.000 C 
ATOM      8  C   UNL     1     104.330 123.618  81.552  0.00  0.00    +0.000 C 
ATOM      9  C   UNL     1     106.405 124.361  78.450  0.00  0.00    +0.000 C 
ENDBRANCH   1   7
BRANCH   2  10
ATOM     10  C   UNL     1     100.833 127.125  82.619  0.00  0.00    +0.000 A 
ATOM     11  C   UNL     1      99.502 126.775  82.379  0.00  0.00    +0.000 A 
ATOM     12  C   UNL     1      98.469 127.538  82.928  0.00  0.00    +0.000 A 
ATOM     13  C   UNL     1      98.765 128.650  83.716  0.00  0.00    +0.000 A 
ATOM     14  C   UNL     1     100.093 129.001  83.957  0.00  0.00    +0.000 A 
ATOM     15  C   UNL     1     101.127 128.240  83.408  0.00  0.00    +0.000 A 
ENDBRANCH   2  10
TORSDOF 2
ENDMDL
