MODEL 1
REMARK VINA RESULT:      -4.0      0.000      0.000
REMARK  Name = *****
REMARK  5 active torsions:
REMARK  status: ('A' for Active; 'I' for Inactive)
REMARK    1  A    between atoms: C_1  and  C_2
REMARK    2  A    between atoms: C_2  and  C_7
REMARK    3  A    between atoms: C_7  and  O_8
REMARK    4  A    between atoms: O_8  and  C_9
REMARK    5  A    between atoms: C_9  and  C_11
REMARK                            x       y       z     vdW  Elec       q    Type
REMARK                         _______ _______ _______ _____ _____    ______ ____
ROOT
ATOM      1  O   UNL     1     100.268 126.744  83.213  0.00  0.00    +0.000 OA
ENDROOT
BRANCH   1   2
ATOM      2  C   UNL     1      99.100 127.371  82.945  0.00  0.00    +0.000 C 
ATOM      3  O   UNL     1      98.273 127.038  82.112  0.00  0.00    +0.000 OA
BRANCH   2   4
ATOM      4  C   UNL     1      98.950 128.570  83.814  0.00  0.00    +0.000 A 
ATOM      5  C   UNL     1      98.303 128.523  85.056  0.00  0.00    +0.000 A 
ATOM      6  C   UNL     1      98.192 129.678  85.835  0.00  0.00    +0.000 A 
ATOM      7  C   UNL     1      98.724 130.883  85.378  0.00  0.00    +0.000 A 
ATOM      8  C   UNL     1      99.367 130.939  84.142  0.00  0.00    +0.000 A 
ATOM      9  C   UNL     1      99.480 129.786  83.362  0.00  0.00    +0.000 A 
ENDBRANCH   2   4
ENDBRANCH   1   2
BRANCH   1  10
ATOM     10  C   UNL     1     101.029 126.268  82.082  0.00  0.00    +0.000 C 
BRANCH  10  12
ATOM     11  C   UNL     1     102.850 127.837  82.857  0.00  0.00    +0.000 C 
ATOM     12  C   UNL     1     102.551 126.444  82.297  0.00  0.00    +0.000 C 
ATOM     13  S   UNL     1     103.457 126.262  80.702  0.00  0.00    +0.000 S 
ATOM     14  C   UNL     1     104.086 124.595  81.011  0.00  0.00    +0.000 C 
ATOM     15  C   UNL     1     104.537 124.550  82.455  0.00  0.00    +0.000 C 
ATOM     16  S   UNL     1     103.194 125.192  83.487  0.00  0.00    +0.000 S 
ENDBRANCH  10  12
ENDBRANCH   1  10
TORSDOF 4
ENDMDL
