MODEL 1
REMARK VINA RESULT:      -4.6      0.000      0.000
REMARK  Name = *****
REMARK  5 active torsions:
REMARK  status: ('A' for Active; 'I' for Inactive)
REMARK    1  A    between atoms: C_1  and  O_2
REMARK    2  A    between atoms: O_2  and  C_3
REMARK    3  A    between atoms: C_3  and  C_5
REMARK    4  A    between atoms: C_8  and  C_11
REMARK    5  A    between atoms: C_12  and  C_13
REMARK                            x       y       z     vdW  Elec       q    Type
REMARK                         _______ _______ _______ _____ _____    ______ ____
ROOT
ATOM      1  C   UNL     1      89.427  65.479  86.344  0.00  0.00    +0.000 C 
ATOM      2  C   UNL     1      88.768  65.691  87.498  0.00  0.00    +0.000 C 
ATOM      3  C   UNL     1      88.058  64.635  88.187  0.00  0.00    +0.000 C 
ATOM      4  C   UNL     1      87.681  63.473  87.624  0.00  0.00    +0.000 C 
ATOM      5  S   UNL     1      87.976  63.144  85.940  0.00  0.00    +0.000 S 
ATOM      6  C   UNL     1      89.465  64.151  85.645  0.00  0.00    +0.000 C 
ENDROOT
BRANCH   1   7
ATOM      7  C   UNL     1      90.205  66.556  85.677  0.00  0.00    +0.000 C 
ATOM      8  O   UNL     1      90.639  66.456  84.538  0.00  0.00    +0.000 OA
BRANCH   7  10
ATOM      9  C   UNL     1      89.828  68.848  85.935  0.00  0.00    +0.000 C 
ATOM     10  O   UNL     1      90.356  67.639  86.481  0.00  0.00    +0.000 OA
ENDBRANCH   7  10
ENDBRANCH   1   7
BRANCH   4  11
ATOM     11  C   UNL     1      86.923  62.469  88.350  0.00  0.00    +0.000 C 
ATOM     12  C   UNL     1      85.740  62.694  88.949  0.00  0.00    +0.000 C 
BRANCH  12  13
ATOM     13  C   UNL     1      84.977  61.675  89.684  0.00  0.00    +0.000 A 
ATOM     14  C   UNL     1      83.596  61.777  89.901  0.00  0.00    +0.000 A 
ATOM     15  C   UNL     1      82.905  60.770  90.580  0.00  0.00    +0.000 A 
ATOM     16  C   UNL     1      83.585  59.643  91.039  0.00  0.00    +0.000 A 
ATOM     17  C   UNL     1      84.954  59.521  90.815  0.00  0.00    +0.000 A 
ATOM     18  C   UNL     1      85.644  60.528  90.136  0.00  0.00    +0.000 A 
ENDBRANCH  12  13
ENDBRANCH   4  11
TORSDOF 4
ENDMDL
