MODEL 1
REMARK VINA RESULT:      -4.6      0.000      0.000
REMARK  Name = *****
REMARK  5 active torsions:
REMARK  status: ('A' for Active; 'I' for Inactive)
REMARK    1  A    between atoms: C_1  and  P_2
REMARK    2  A    between atoms: P_2  and  N_4
REMARK    3  A    between atoms: P_2  and  O_12
REMARK    4  A    between atoms: N_4  and  C_5
REMARK    5  A    between atoms: O_12  and  C_13
REMARK                            x       y       z     vdW  Elec       q    Type
REMARK                         _______ _______ _______ _____ _____    ______ ____
ROOT
ATOM      1  C   UNL     1      91.191  65.374  85.278  0.00  0.00    +0.000 C 
ATOM      2  P   UNL     1      89.655  66.280  85.687  0.00  0.00    +0.000 P 
ATOM      3  O   UNL     1      89.029  65.648  84.436  0.00  0.00    +0.000 OA
ENDROOT
BRANCH   2   4
ATOM      4  N   UNL     1      89.674  65.425  87.131  0.00  0.00    +0.000 N 
ATOM      5  H   UNL     1      90.448  65.581  87.718  0.00  0.00    +0.000 HD
BRANCH   4   6
ATOM      6  C   UNL     1      88.712  64.507  87.602  0.00  0.00    +0.000 A 
ATOM      7  C   UNL     1      87.980  63.659  86.768  0.00  0.00    +0.000 A 
ATOM      8  C   UNL     1      87.090  62.716  87.295  0.00  0.00    +0.000 A 
ATOM      9  C   UNL     1      86.941  62.597  88.672  0.00  0.00    +0.000 A 
ATOM     10  C   UNL     1      87.681  63.407  89.525  0.00  0.00    +0.000 A 
ATOM     11  C   UNL     1      88.568  64.347  88.991  0.00  0.00    +0.000 A 
ATOM     12 CL   UNL     1      85.851  61.436  89.322  0.00  0.00    +0.000 Cl
ENDBRANCH   4   6
ENDBRANCH   2   4
BRANCH   2  13
ATOM     13  O   UNL     1      88.203  67.137  86.073  0.00  0.00    +0.000 OA
BRANCH  13  14
ATOM     14  C   UNL     1      88.223  68.203  86.932  0.00  0.00    +0.000 A 
ATOM     15  C   UNL     1      89.281  69.100  86.761  0.00  0.00    +0.000 A 
ATOM     16  C   UNL     1      89.391  70.219  87.587  0.00  0.00    +0.000 A 
ATOM     17  C   UNL     1      88.446  70.426  88.584  0.00  0.00    +0.000 A 
ATOM     18  C   UNL     1      87.396  69.532  88.770  0.00  0.00    +0.000 A 
ATOM     19  C   UNL     1      87.284  68.412  87.942  0.00  0.00    +0.000 A 
ATOM     20  F   UNL     1      88.550  71.497  89.381  0.00  0.00    +0.000 F 
ENDBRANCH  13  14
ENDBRANCH   2  13
TORSDOF 4
ENDMDL
