MODEL 1
REMARK VINA RESULT:      -4.7      0.000      0.000
REMARK  Name = *****
REMARK  3 active torsions:
REMARK  status: ('A' for Active; 'I' for Inactive)
REMARK    1  A    between atoms: C_1  and  C_2
REMARK    2  A    between atoms: C_5  and  N_8
REMARK    3  A    between atoms: C_9  and  C_10
REMARK                            x       y       z     vdW  Elec       q    Type
REMARK                         _______ _______ _______ _____ _____    ______ ____
ROOT
ATOM      1  N   UNL     1     102.726 126.087  81.539  0.00  0.00    +0.000 NA
ATOM      2  C   UNL     1     101.871 125.982  82.510  0.00  0.00    +0.000 C 
ENDROOT
BRANCH   1   7
ATOM      3  C   UNL     1     106.414 121.758  80.977  0.00  0.00    +0.000 C 
ATOM      4  C   UNL     1     105.422 122.874  81.115  0.00  0.00    +0.000 A 
ATOM      5  C   UNL     1     105.148 123.717  80.030  0.00  0.00    +0.000 A 
ATOM      6  C   UNL     1     104.251 124.780  80.170  0.00  0.00    +0.000 A 
ATOM      7  C   UNL     1     103.616 125.015  81.392  0.00  0.00    +0.000 A 
ATOM      8  C   UNL     1     103.912 124.195  82.482  0.00  0.00    +0.000 A 
ATOM      9  C   UNL     1     104.810 123.132  82.348  0.00  0.00    +0.000 A 
ENDBRANCH   1   7
BRANCH   2  10
ATOM     10  C   UNL     1     100.871 127.040  82.782  0.00  0.00    +0.000 A 
ATOM     11  C   UNL     1      99.536 126.817  82.414  0.00  0.00    +0.000 A 
ATOM     12  C   UNL     1      98.564 127.791  82.652  0.00  0.00    +0.000 A 
ATOM     13  C   UNL     1      98.918 128.993  83.259  0.00  0.00    +0.000 A 
ATOM     14  C   UNL     1     100.244 129.223  83.628  0.00  0.00    +0.000 A 
ATOM     15  C   UNL     1     101.225 128.250  83.391  0.00  0.00    +0.000 A 
ATOM     16 CL   UNL     1     102.839 128.622  83.885  0.00  0.00    +0.000 Cl
ENDBRANCH   2  10
TORSDOF 2
ENDMDL
