REMARK  Name = *****
REMARK  5 active torsions:
REMARK  status: ('A' for Active; 'I' for Inactive)
REMARK    1  A    between atoms: C_1  and  C_2
REMARK    2  A    between atoms: C_7  and  C_8
REMARK    3  A    between atoms: C_8  and  O_10
REMARK    4  A    between atoms: O_10  and  C_11
REMARK    5  A    between atoms: C_11  and  C_12
REMARK                            x       y       z     vdW  Elec       q    Type
REMARK                         _______ _______ _______ _____ _____    ______ ____
ROOT
ATOM      1  C   UNL     1       0.786   2.513   0.618  0.00  0.00    +0.000 C 
ATOM      2  O   UNL     1       1.035   3.295  -0.290  0.00  0.00    +0.000 OA
ENDROOT
BRANCH   1   9
ATOM      3  C   UNL     1       2.162  -0.033  -0.052  0.00  0.00    +0.000 C 
ATOM      4  C   UNL     1       0.838  -0.024   0.722  0.00  0.00    +0.000 C 
ATOM      5  C   UNL     1       0.070  -1.281   0.380  0.00  0.00    +0.000 C 
ATOM      6  C   UNL     1      -1.047  -1.287  -0.362  0.00  0.00    +0.000 C 
ATOM      7  C   UNL     1      -1.653  -0.052  -0.961  0.00  0.00    +0.000 C 
ATOM      8  C   UNL     1      -0.742   1.174  -0.877  0.00  0.00    +0.000 C 
ATOM      9  C   UNL     1      -0.022   1.238   0.477  0.00  0.00    +0.000 C 
ENDBRANCH   1   9
BRANCH   1  10
ATOM     10  O   UNL     1       1.190   2.667   1.908  0.00  0.00    +0.000 OA
BRANCH  10  11
ATOM     11  C   UNL     1       1.965   3.848   2.133  0.00  0.00    +0.000 C 
BRANCH  11  12
ATOM     12  C   UNL     1       2.312   3.900   3.598  0.00  0.00    +0.000 A 
ATOM     13  C   UNL     1       3.342   3.099   4.112  0.00  0.00    +0.000 A 
ATOM     14  C   UNL     1       3.656   3.134   5.471  0.00  0.00    +0.000 A 
ATOM     15  C   UNL     1       2.940   3.965   6.331  0.00  0.00    +0.000 A 
ATOM     16  C   UNL     1       1.907   4.757   5.834  0.00  0.00    +0.000 A 
ATOM     17  C   UNL     1       1.591   4.723   4.475  0.00  0.00    +0.000 A 
ENDBRANCH  11  12
ENDBRANCH  10  11
ENDBRANCH   1  10
TORSDOF 4
