MODEL 1
REMARK VINA RESULT:      -4.4      0.000      0.000
REMARK  Name = *****
REMARK  3 active torsions:
REMARK  status: ('A' for Active; 'I' for Inactive)
REMARK    1  A    between atoms: C_1  and  C_2
REMARK    2  A    between atoms: C_5  and  C_8
REMARK    3  A    between atoms: C_9  and  C_11
REMARK                            x       y       z     vdW  Elec       q    Type
REMARK                         _______ _______ _______ _____ _____    ______ ____
ROOT
ATOM      1  C   UNL     1      89.281  65.538  86.840  0.00  0.00    +0.000 C 
ATOM      2  C   UNL     1      88.624  66.818  86.366  0.00  0.00    +0.000 C 
ATOM      3  O   UNL     1      89.014  65.795  85.447  0.00  0.00    +0.000 OA
ENDROOT
BRANCH   1   8
ATOM      4  C   UNL     1      86.009  61.508  89.522  0.00  0.00    +0.000 C 
ATOM      5  C   UNL     1      86.856  62.543  88.844  0.00  0.00    +0.000 A 
ATOM      6  C   UNL     1      87.644  63.427  89.585  0.00  0.00    +0.000 A 
ATOM      7  C   UNL     1      88.427  64.389  88.937  0.00  0.00    +0.000 A 
ATOM      8  C   UNL     1      88.449  64.497  87.538  0.00  0.00    +0.000 A 
ATOM      9  C   UNL     1      87.646  63.605  86.810  0.00  0.00    +0.000 A 
ATOM     10  C   UNL     1      86.860  62.641  87.450  0.00  0.00    +0.000 A 
ENDBRANCH   1   8
BRANCH   2  11
ATOM     11  C   UNL     1      89.412  68.093  86.258  0.00  0.00    +0.000 C 
ATOM     12  C   UNL     1      88.816  69.163  87.185  0.00  0.00    +0.000 C 
ATOM     13  C   UNL     1      89.546  70.498  87.051  0.00  0.00    +0.000 C 
ATOM     14  C   UNL     1      89.578  70.978  85.603  0.00  0.00    +0.000 C 
ATOM     15  C   UNL     1      90.169  69.922  84.674  0.00  0.00    +0.000 C 
ATOM     16  C   UNL     1      89.440  68.587  84.804  0.00  0.00    +0.000 C 
ENDBRANCH   2  11
TORSDOF 2
ENDMDL
