REMARK  Name = *****
REMARK  4 active torsions:
REMARK  status: ('A' for Active; 'I' for Inactive)
REMARK    1  A    between atoms: C_7  and  C_8
REMARK    2  A    between atoms: C_8  and  O_9
REMARK    3  A    between atoms: O_9  and  C_10
REMARK    4  A    between atoms: C_10  and  C_12
REMARK                            x       y       z     vdW  Elec       q    Type
REMARK                         _______ _______ _______ _____ _____    ______ ____
ROOT
ATOM      1  O   UNL     1       3.673   1.031  -0.651  0.00  0.00    +0.000 OA
ENDROOT
BRANCH   1   2
ATOM      2  C   UNL     1       3.947   1.769  -1.756  0.00  0.00    +0.000 C 
ATOM      3  O   UNL     1       3.302   2.725  -2.157  0.00  0.00    +0.000 OA
BRANCH   2   4
ATOM      4  C   UNL     1       5.160   1.250  -2.443  0.00  0.00    +0.000 A 
ATOM      5  C   UNL     1       5.577   1.888  -3.620  0.00  0.00    +0.000 A 
ATOM      6  C   UNL     1       6.709   1.438  -4.303  0.00  0.00    +0.000 A 
ATOM      7  C   UNL     1       7.431   0.350  -3.815  0.00  0.00    +0.000 A 
ATOM      8  C   UNL     1       7.024  -0.290  -2.644  0.00  0.00    +0.000 A 
ATOM      9  C   UNL     1       5.891   0.157  -1.959  0.00  0.00    +0.000 A 
ENDBRANCH   2   4
ENDBRANCH   1   2
BRANCH   1  10
ATOM     10  C   UNL     1       2.511   1.427   0.096  0.00  0.00    +0.000 C 
BRANCH  10  17
ATOM     11  C   UNL     1      -1.217  -0.781  -0.549  0.00  0.00    +0.000 C 
ATOM     12  C   UNL     1      -1.247   0.754  -0.554  0.00  0.00    +0.000 C 
ATOM     13  C   UNL     1      -0.026   1.127   0.308  0.00  0.00    +0.000 C 
ATOM     14  C   UNL     1      -0.071   0.030   1.374  0.00  0.00    +0.000 C 
ATOM     15  C   UNL     1      -0.010  -1.101   0.349  0.00  0.00    +0.000 C 
ATOM     16  C   UNL     1       1.288  -0.765  -0.409  0.00  0.00    +0.000 C 
ATOM     17  C   UNL     1       1.254   0.779  -0.488  0.00  0.00    +0.000 C 
ENDBRANCH  10  17
ENDBRANCH   1  10
TORSDOF 4
