REMARK  Name = *****
REMARK  3 active torsions:
REMARK  status: ('A' for Active; 'I' for Inactive)
REMARK    1  A    between atoms: C_4  and  C_7
REMARK    2  A    between atoms: C_8  and  O_9
REMARK    3  A    between atoms: O_9  and  C_10
REMARK                            x       y       z     vdW  Elec       q    Type
REMARK                         _______ _______ _______ _____ _____    ______ ____
ROOT
ATOM      1  C   UNL     1      -2.852   0.464  -0.016  0.00  0.00    +0.000 C 
ATOM      2  C   UNL     1      -3.792  -0.488  -0.050  0.00  0.00    +0.000 C 
ENDROOT
BRANCH   1   6
ATOM      3  C   UNL     1       1.375  -0.182  -0.098  0.00  0.00    +0.000 A 
ATOM      4  C   UNL     1       0.538  -1.036  -0.813  0.00  0.00    +0.000 A 
ATOM      5  C   UNL     1      -0.846  -0.841  -0.791  0.00  0.00    +0.000 A 
ATOM      6  C   UNL     1      -1.407   0.204  -0.045  0.00  0.00    +0.000 A 
ATOM      7  C   UNL     1      -0.552   1.066   0.655  0.00  0.00    +0.000 A 
ATOM      8  C   UNL     1       0.831   0.871   0.633  0.00  0.00    +0.000 A 
ENDBRANCH   1   6
BRANCH   2   9
ATOM      9  O   UNL     1      -5.134  -0.177  -0.017  0.00  0.00    +0.000 OA
BRANCH   9  10
ATOM     10  C   UNL     1      -6.010  -1.224   0.136  0.00  0.00    +0.000 A 
ATOM     11  C   UNL     1      -5.955  -2.073   1.243  0.00  0.00    +0.000 A 
ATOM     12  C   UNL     1      -6.892  -3.099   1.374  0.00  0.00    +0.000 A 
ATOM     13  C   UNL     1      -7.887  -3.263   0.409  0.00  0.00    +0.000 A 
ATOM     14  C   UNL     1      -7.951  -2.397  -0.684  0.00  0.00    +0.000 A 
ATOM     15  C   UNL     1      -7.016  -1.371  -0.817  0.00  0.00    +0.000 A 
ENDBRANCH   9  10
ENDBRANCH   2   9
TORSDOF 3
