REMARK  Name = *****
REMARK  3 active torsions:
REMARK  status: ('A' for Active; 'I' for Inactive)
REMARK    1  A    between atoms: C_6  and  C_7
REMARK    2  A    between atoms: C_7  and  O_8
REMARK    3  A    between atoms: O_8  and  C_9
REMARK                            x       y       z     vdW  Elec       q    Type
REMARK                         _______ _______ _______ _____ _____    ______ ____
ROOT
ATOM      1  C   UNL     1      -3.470   0.014  -0.008  0.00  0.00    +0.000 C 
ENDROOT
BRANCH   1   7
ATOM      2  C   UNL     1      -1.235  -0.554  -1.059  0.00  0.00    +0.000 A 
ATOM      3  C   UNL     1       0.161  -0.517  -1.062  0.00  0.00    +0.000 A 
ATOM      4  C   UNL     1       0.832   0.139  -0.036  0.00  0.00    +0.000 A 
ATOM      5  C   UNL     1       0.135   0.759   0.993  0.00  0.00    +0.000 A 
ATOM      6  C   UNL     1      -1.260   0.723   0.998  0.00  0.00    +0.000 A 
ATOM      7  C   UNL     1      -1.959   0.067  -0.030  0.00  0.00    +0.000 A 
ATOM      8  F   UNL     1       2.171   0.172  -0.041  0.00  0.00    +0.000 F 
ENDBRANCH   1   7
BRANCH   1   9
ATOM      9  O   UNL     1      -3.975   1.348  -0.002  0.00  0.00    +0.000 OA
BRANCH   9  10
ATOM     10  C   UNL     1      -5.332   1.502   0.051  0.00  0.00    +0.000 A 
ATOM     11  C   UNL     1      -6.276   0.475   0.092  0.00  0.00    +0.000 A 
ATOM     12  C   UNL     1      -7.642   0.778   0.146  0.00  0.00    +0.000 A 
ATOM     13  C   UNL     1      -8.061   2.107   0.157  0.00  0.00    +0.000 A 
ATOM     14  C   UNL     1      -7.127   3.138   0.116  0.00  0.00    +0.000 A 
ATOM     15  C   UNL     1      -5.765   2.832   0.062  0.00  0.00    +0.000 A 
ATOM     16 CL   UNL     1      -9.740   2.473   0.224  0.00  0.00    +0.000 Cl
ENDBRANCH   9  10
ENDBRANCH   1   9
TORSDOF 3
