MODEL 1
REMARK VINA RESULT:      -4.3      0.000      0.000
REMARK  Name = *****
REMARK  5 active torsions:
REMARK  status: ('A' for Active; 'I' for Inactive)
REMARK    1  A    between atoms: C_4  and  C_7
REMARK    2  A    between atoms: C_7  and  N_8
REMARK    3  A    between atoms: N_8  and  C_9
REMARK    4  A    between atoms: C_14  and  C_15
REMARK    5  A    between atoms: C_15  and  C_16
REMARK                            x       y       z     vdW  Elec       q    Type
REMARK                         _______ _______ _______ _____ _____    ______ ____
ROOT
ATOM      1  C   UNL     1     101.092 127.078  82.628  0.00  0.00    +0.000 A 
ATOM      2  C   UNL     1      99.773 126.741  82.315  0.00  0.00    +0.000 A 
ATOM      3  C   UNL     1      98.738 127.585  82.704  0.00  0.00    +0.000 A 
ATOM      4  C   UNL     1      99.027 128.756  83.402  0.00  0.00    +0.000 A 
ATOM      5  C   UNL     1     100.352 129.084  83.713  0.00  0.00    +0.000 A 
ATOM      6  C   UNL     1     101.417 128.250  83.331  0.00  0.00    +0.000 A 
ENDROOT
BRANCH   1   7
ATOM      7  N   UNL     1     102.079 126.193  82.214  0.00  0.00    +0.000 NA
BRANCH   7   8
ATOM      8  C   UNL     1     102.861 125.471  81.880  0.00  0.00    +0.000 C 
BRANCH   8  12
ATOM      9  C   UNL     1     105.828 122.746  80.614  0.00  0.00    +0.000 A 
ATOM     10  C   UNL     1     105.231 122.595  81.866  0.00  0.00    +0.000 A 
ATOM     11  C   UNL     1     104.250 123.496  82.286  0.00  0.00    +0.000 A 
ATOM     12  C   UNL     1     103.866 124.548  81.452  0.00  0.00    +0.000 A 
ATOM     13  C   UNL     1     104.464 124.697  80.198  0.00  0.00    +0.000 A 
ATOM     14  C   UNL     1     105.445 123.796  79.780  0.00  0.00    +0.000 A 
ENDBRANCH   8  12
ENDBRANCH   7   8
ENDBRANCH   1   7
BRANCH   6  15
ATOM     15  C   UNL     1     102.815 128.591  83.652  0.00  0.00    +0.000 C 
BRANCH  15  16
ATOM     16  C   UNL     1     103.225 129.768  84.026  0.00  0.00    +0.000 C 
ATOM     17  N   UNL     1     103.627 130.903  84.378  0.00  0.00    +0.000 NA
ENDBRANCH  15  16
ENDBRANCH   6  15
TORSDOF 5
ENDMDL
