MODEL 1
REMARK VINA RESULT:      -4.9      0.000      0.000
REMARK  Name = *****
REMARK  5 active torsions:
REMARK  status: ('A' for Active; 'I' for Inactive)
REMARK    1  A    between atoms: C_4  and  C_17
REMARK    2  A    between atoms: C_5  and  C_7
REMARK    3  A    between atoms: C_7  and  C_8
REMARK    4  A    between atoms: C_8  and  C_9
REMARK    5  A    between atoms: C_14  and  N_15
REMARK                            x       y       z     vdW  Elec       q    Type
REMARK                         _______ _______ _______ _____ _____    ______ ____
ROOT
ATOM      1  C   UNL     1     102.748 125.955  82.882  0.00  0.00    +0.000 C 
ENDROOT
BRANCH   1   6
ATOM      2  C   UNL     1     104.789 123.224  81.202  0.00  0.00    +0.000 A 
ATOM      3  C   UNL     1     105.190 123.821  80.012  0.00  0.00    +0.000 A 
ATOM      4  C   UNL     1     104.797 125.128  79.724  0.00  0.00    +0.000 A 
ATOM      5  C   UNL     1     103.999 125.848  80.629  0.00  0.00    +0.000 A 
ATOM      6  C   UNL     1     103.599 125.258  81.844  0.00  0.00    +0.000 A 
ATOM      7  C   UNL     1     104.001 123.935  82.108  0.00  0.00    +0.000 A 
BRANCH   5   8
ATOM      8  C   UNL     1     103.624 127.225  80.209  0.00  0.00    +0.000 C 
ATOM      9  O   UNL     1     104.044 128.249  80.730  0.00  0.00    +0.000 OA
ENDBRANCH   5   8
ENDBRANCH   1   6
BRANCH   1  10
ATOM     10  C   UNL     1     101.285 126.069  82.443  0.00  0.00    +0.000 C 
BRANCH  10  11
ATOM     11  C   UNL     1     100.668 127.376  82.897  0.00  0.00    +0.000 A 
ATOM     12  C   UNL     1     101.496 128.312  83.545  0.00  0.00    +0.000 A 
ATOM     13  C   UNL     1     100.981 129.525  84.004  0.00  0.00    +0.000 A 
ATOM     14  C   UNL     1      99.633 129.820  83.827  0.00  0.00    +0.000 A 
ATOM     15  C   UNL     1      98.797 128.894  83.196  0.00  0.00    +0.000 A 
ATOM     16  C   UNL     1      99.297 127.664  82.737  0.00  0.00    +0.000 A 
BRANCH  16  17
ATOM     17  N   UNL     1      98.455 126.771  82.102  0.00  0.00    +0.000 NA
ATOM     18  O   UNL     1      97.505 126.424  82.815  0.00  0.00    +0.000 OA
ENDBRANCH  16  17
ENDBRANCH  10  11
ENDBRANCH   1  10
TORSDOF 5
ENDMDL
