REMARK  Name = *****
REMARK  4 active torsions:
REMARK  status: ('A' for Active; 'I' for Inactive)
REMARK    1  A    between atoms: C_2  and  C_3
REMARK    2  A    between atoms: C_2  and  O_8
REMARK    3  A    between atoms: O_8  and  C_9
REMARK    4  A    between atoms: C_9  and  C_10
REMARK                            x       y       z     vdW  Elec       q    Type
REMARK                         _______ _______ _______ _____ _____    ______ ____
ROOT
ATOM      1  O   UNL     1       3.162   0.594  -0.880  0.00  0.00    +0.000 OA
ENDROOT
BRANCH   1   3
ATOM      2  C   UNL     1       3.316  -0.849   1.065  0.00  0.00    +0.000 C 
ATOM      3  C   UNL     1       2.640  -0.061   0.211  0.00  0.00    +0.000 C 
BRANCH   3   4
ATOM      4  C   UNL     1       1.234   0.147   0.400  0.00  0.00    +0.000 A 
ATOM      5  C   UNL     1       0.261  -0.734   0.854  0.00  0.00    +0.000 A 
ATOM      6  C   UNL     1      -1.042  -0.161   0.916  0.00  0.00    +0.000 A 
ATOM      7  C   UNL     1      -1.043   1.151   0.508  0.00  0.00    +0.000 A 
ATOM      8  S   UNL     1       0.514   1.682   0.054  0.00  0.00    +0.000 S 
ENDBRANCH   3   4
ENDBRANCH   1   3
BRANCH   1   9
ATOM      9  C   UNL     1       4.562   0.486  -1.131  0.00  0.00    +0.000 C 
BRANCH   9  10
ATOM     10  C   UNL     1       4.926   1.332  -2.329  0.00  0.00    +0.000 A 
ATOM     11  C   UNL     1       4.460   2.651  -2.442  0.00  0.00    +0.000 A 
ATOM     12  C   UNL     1       4.825   3.442  -3.532  0.00  0.00    +0.000 A 
ATOM     13  C   UNL     1       5.665   2.928  -4.517  0.00  0.00    +0.000 A 
ATOM     14  C   UNL     1       6.143   1.623  -4.412  0.00  0.00    +0.000 A 
ATOM     15  C   UNL     1       5.779   0.830  -3.322  0.00  0.00    +0.000 A 
ENDBRANCH   9  10
ENDBRANCH   1   9
TORSDOF 4
