REMARK  Name = *****
REMARK  1 active torsions:
REMARK  status: ('A' for Active; 'I' for Inactive)
REMARK    1  A    between atoms: C_4  and  N_7
REMARK                            x       y       z     vdW  Elec       q    Type
REMARK                         _______ _______ _______ _____ _____    ______ ____
ROOT
ATOM      1  N   UNL     1       2.729  -0.587  -0.362  0.00  0.00    +0.000 N 
ATOM      2  C   UNL     1       2.980  -0.665  -1.713  0.00  0.00    +0.000 A 
ATOM      3  N   UNL     1       4.131  -0.895  -2.250  0.00  0.00    +0.000 NA
ATOM      4  C   UNL     1       5.221  -1.080  -1.393  0.00  0.00    +0.000 A 
ATOM      5  C   UNL     1       5.098  -1.017  -0.005  0.00  0.00    +0.000 A 
ATOM      6  C   UNL     1       3.761  -0.748   0.557  0.00  0.00    +0.000 A 
ATOM      7  O   UNL     1       3.626  -0.679   1.775  0.00  0.00    +0.000 OA
ATOM      8  C   UNL     1       6.206  -1.202   0.831  0.00  0.00    +0.000 A 
ATOM      9  C   UNL     1       7.450  -1.454   0.261  0.00  0.00    +0.000 A 
ATOM     10  C   UNL     1       7.593  -1.520  -1.125  0.00  0.00    +0.000 A 
ATOM     11  C   UNL     1       6.478  -1.333  -1.948  0.00  0.00    +0.000 A 
ATOM     12 CL   UNL     1       8.823  -1.683   1.271  0.00  0.00    +0.000 Cl
ENDROOT
BRANCH   1  16
ATOM     13  C   UNL     1      -1.512   0.278  -0.160  0.00  0.00    +0.000 C 
ATOM     14  C   UNL     1      -1.029  -1.107   0.264  0.00  0.00    +0.000 C 
ATOM     15  C   UNL     1       0.370  -1.404  -0.272  0.00  0.00    +0.000 C 
ATOM     16  C   UNL     1       1.372  -0.310   0.137  0.00  0.00    +0.000 C 
ATOM     17  C   UNL     1       0.879   1.083  -0.291  0.00  0.00    +0.000 C 
ATOM     18  C   UNL     1      -0.523   1.368   0.244  0.00  0.00    +0.000 C 
ENDBRANCH   1  16
TORSDOF 1
