MODEL 1
REMARK VINA RESULT:      -4.9      0.000      0.000
REMARK  Name = *****
REMARK  3 active torsions:
REMARK  status: ('A' for Active; 'I' for Inactive)
REMARK    1  A    between atoms: C_1  and  C_2
REMARK    2  A    between atoms: C_2  and  C_10
REMARK    3  A    between atoms: N_3  and  C_4
REMARK                            x       y       z     vdW  Elec       q    Type
REMARK                         _______ _______ _______ _____ _____    ______ ____
ROOT
ATOM      1  C   UNL     1     103.068 127.190  80.998  0.00  0.00    +0.000 C 
ATOM      2  C   UNL     1     102.818 125.955  81.845  0.00  0.00    +0.000 C 
ATOM      3  N   UNL     1     101.851 125.849  82.711  0.00  0.00    +0.000 NA
ENDROOT
BRANCH   2   4
ATOM      4  C   UNL     1     103.730 124.783  81.661  0.00  0.00    +0.000 A 
ATOM      5  C   UNL     1     104.267 124.460  80.409  0.00  0.00    +0.000 A 
ATOM      6  C   UNL     1     105.110 123.352  80.273  0.00  0.00    +0.000 A 
ATOM      7  C   UNL     1     105.410 122.564  81.383  0.00  0.00    +0.000 A 
ATOM      8  C   UNL     1     104.870 122.869  82.631  0.00  0.00    +0.000 A 
ATOM      9  C   UNL     1     104.027 123.975  82.769  0.00  0.00    +0.000 A 
ATOM     10 CL   UNL     1     106.447 121.202  81.209  0.00  0.00    +0.000 Cl
ENDBRANCH   2   4
BRANCH   3  11
ATOM     11  C   UNL     1     100.954 126.906  82.898  0.00  0.00    +0.000 A 
ATOM     12  C   UNL     1      99.644 126.820  82.419  0.00  0.00    +0.000 A 
ATOM     13  C   UNL     1      98.744 127.867  82.627  0.00  0.00    +0.000 A 
ATOM     14  C   UNL     1      99.147 129.002  83.330  0.00  0.00    +0.000 A 
ATOM     15  C   UNL     1     100.446 129.086  83.831  0.00  0.00    +0.000 A 
ATOM     16  C   UNL     1     101.343 128.037  83.621  0.00  0.00    +0.000 A 
ENDBRANCH   3  11
TORSDOF 2
ENDMDL
