MODEL 1
REMARK VINA RESULT:      -5.3      0.000      0.000
REMARK  Name = *****
REMARK  2 active torsions:
REMARK  status: ('A' for Active; 'I' for Inactive)
REMARK    1  A    between atoms: C_5  and  C_7
REMARK    2  A    between atoms: C_8  and  C_9
REMARK                            x       y       z     vdW  Elec       q    Type
REMARK                         _______ _______ _______ _____ _____    ______ ____
ROOT
ATOM      1  C   UNL     1     101.680 126.071  82.130  0.00  0.00    +0.000 C 
ATOM      2  C   UNL     1     102.970 126.236  81.798  0.00  0.00    +0.000 C 
ENDROOT
BRANCH   2   3
ATOM      3  C   UNL     1     103.831 125.161  81.283  0.00  0.00    +0.000 A 
ATOM      4  C   UNL     1     104.133 123.997  82.006  0.00  0.00    +0.000 A 
ATOM      5  C   UNL     1     104.980 123.016  81.486  0.00  0.00    +0.000 A 
ATOM      6  C   UNL     1     105.550 123.191  80.229  0.00  0.00    +0.000 A 
ATOM      7  C   UNL     1     105.268 124.347  79.511  0.00  0.00    +0.000 A 
ATOM      8  C   UNL     1     104.425 125.331  80.025  0.00  0.00    +0.000 A 
ATOM      9  F   UNL     1     105.820 124.521  78.303  0.00  0.00    +0.000 F 
ATOM     10  F   UNL     1     103.622 123.799  83.232  0.00  0.00    +0.000 F 
ENDBRANCH   2   3
BRANCH   1  15
ATOM     11  C   UNL     1     100.638 129.240  83.874  0.00  0.00    +0.000 A 
ATOM     12  C   UNL     1      99.250 129.221  83.735  0.00  0.00    +0.000 A 
ATOM     13  C   UNL     1      98.639 128.165  83.063  0.00  0.00    +0.000 A 
ATOM     14  C   UNL     1      99.416 127.137  82.529  0.00  0.00    +0.000 A 
ATOM     15  C   UNL     1     100.813 127.145  82.644  0.00  0.00    +0.000 A 
ATOM     16  C   UNL     1     101.413 128.207  83.337  0.00  0.00    +0.000 A 
ATOM     17  F   UNL     1      98.784 126.128  81.911  0.00  0.00    +0.000 F 
ENDBRANCH   1  15
TORSDOF 2
ENDMDL
