MODEL 1
REMARK VINA RESULT:      -4.2      0.000      0.000
REMARK  Name = *****
REMARK  6 active torsions:
REMARK  status: ('A' for Active; 'I' for Inactive)
REMARK    1  A    between atoms: C_1  and  C_2
REMARK    2  A    between atoms: C_2  and  N_17
REMARK    3  A    between atoms: C_6  and  C_7
REMARK    4  A    between atoms: C_6  and  O_8
REMARK    5  A    between atoms: O_8  and  C_9
REMARK    6  A    between atoms: C_9  and  C_11
REMARK                            x       y       z     vdW  Elec       q    Type
REMARK                         _______ _______ _______ _____ _____    ______ ____
ROOT
ATOM      1  C   UNL     1      87.845  67.869  87.301  0.00  0.00    +0.000 C 
ATOM      2  C   UNL     1      88.780  67.842  86.073  0.00  0.00    +0.000 C 
ATOM      3  C   UNL     1      88.499  66.582  85.233  0.00  0.00    +0.000 C 
ATOM      4  C   UNL     1      87.388  66.972  84.260  0.00  0.00    +0.000 C 
ATOM      5  C   UNL     1      87.255  68.492  84.331  0.00  0.00    +0.000 C 
ATOM      6  C   UNL     1      88.517  69.002  85.054  0.00  0.00    +0.000 C 
ATOM      7  C   UNL     1      89.672  69.219  84.055  0.00  0.00    +0.000 C 
ENDROOT
BRANCH   2   8
ATOM      8  N   UNL     1      90.208  67.783  86.562  0.00  0.00    +0.000 NA
ATOM      9  O   UNL     1      90.762  66.709  86.297  0.00  0.00    +0.000 OA
ENDBRANCH   2   8
BRANCH   6  10
ATOM     10  O   UNL     1      88.271  70.227  85.790  0.00  0.00    +0.000 OA
BRANCH  10  11
ATOM     11  C   UNL     1      87.477  71.190  85.268  0.00  0.00    +0.000 C 
ATOM     12  O   UNL     1      87.590  71.704  84.167  0.00  0.00    +0.000 OA
BRANCH  11  13
ATOM     13  C   UNL     1      86.397  71.541  86.230  0.00  0.00    +0.000 A 
ATOM     14  C   UNL     1      85.218  72.105  85.724  0.00  0.00    +0.000 A 
ATOM     15  C   UNL     1      84.176  72.453  86.586  0.00  0.00    +0.000 A 
ATOM     16  C   UNL     1      84.307  72.240  87.958  0.00  0.00    +0.000 A 
ATOM     17  C   UNL     1      85.478  71.683  88.471  0.00  0.00    +0.000 A 
ATOM     18  C   UNL     1      86.523  71.334  87.611  0.00  0.00    +0.000 A 
ENDBRANCH  11  13
ENDBRANCH  10  11
ENDBRANCH   6  10
TORSDOF 4
ENDMDL
