REMARK  Name = *****
REMARK  5 active torsions:
REMARK  status: ('A' for Active; 'I' for Inactive)
REMARK    1  A    between atoms: C_1  and  S_2
REMARK    2  A    between atoms: S_2  and  C_3
REMARK    3  A    between atoms: S_2  and  C_14
REMARK    4  A    between atoms: C_3  and  C_4
REMARK    5  A    between atoms: C_7  and  C_10
REMARK                            x       y       z     vdW  Elec       q    Type
REMARK                         _______ _______ _______ _____ _____    ______ ____
ROOT
ATOM      1  C   UNL     1       2.962  -2.267   1.521  0.00  0.00    +0.000 A 
ATOM      2  C   UNL     1       1.657  -2.720   1.759  0.00  0.00    +0.000 A 
ATOM      3  C   UNL     1       1.302  -3.248   3.002  0.00  0.00    +0.000 A 
ATOM      4  C   UNL     1       2.247  -3.337   4.034  0.00  0.00    +0.000 A 
ATOM      5  C   UNL     1       3.549  -2.870   3.801  0.00  0.00    +0.000 A 
ATOM      6  C   UNL     1       3.902  -2.342   2.557  0.00  0.00    +0.000 A 
ENDROOT
BRANCH   4   7
ATOM      7  C   UNL     1       1.865  -3.881   5.387  0.00  0.00    +0.000 C 
ATOM      8  F   UNL     1       0.782  -4.709   5.350  0.00  0.00    +0.000 F 
ATOM      9  F   UNL     1       2.862  -4.606   5.970  0.00  0.00    +0.000 F 
ATOM     10  F   UNL     1       1.552  -2.897   6.275  0.00  0.00    +0.000 F 
ENDBRANCH   4   7
BRANCH   1  11
ATOM     11  C   UNL     1       3.336  -1.680   0.184  0.00  0.00    +0.000 C 
BRANCH  11  13
ATOM     12  C   UNL     1       3.420   0.314  -1.640  0.00  0.00    +0.000 C 
ATOM     13  S   UNL     1       2.783   0.045   0.027  0.00  0.00    +0.000 S 
BRANCH  13  14
ATOM     14  C   UNL     1       4.048   0.865   1.009  0.00  0.00    +0.000 A 
ATOM     15  C   UNL     1       3.611   1.605   2.113  0.00  0.00    +0.000 A 
ATOM     16  C   UNL     1       4.525   2.264   2.937  0.00  0.00    +0.000 A 
ATOM     17  C   UNL     1       5.888   2.188   2.663  0.00  0.00    +0.000 A 
ATOM     18  C   UNL     1       6.335   1.453   1.567  0.00  0.00    +0.000 A 
ATOM     19  C   UNL     1       5.419   0.793   0.743  0.00  0.00    +0.000 A 
ENDBRANCH  13  14
ENDBRANCH  11  13
ENDBRANCH   1  11
TORSDOF 4
