MODEL 1
REMARK VINA RESULT:      -5.2      0.000      0.000
REMARK  Name = *****
REMARK  1 active torsions:
REMARK  status: ('A' for Active; 'I' for Inactive)
REMARK    1  A    between atoms: C_8  and  C_10
REMARK                            x       y       z     vdW  Elec       q    Type
REMARK                         _______ _______ _______ _____ _____    ______ ____
ROOT
ATOM      1  C   UNL     1     103.534 125.231  81.635  0.00  0.00    +0.000 A 
ATOM      2  C   UNL     1     104.046 125.418  80.339  0.00  0.00    +0.000 A 
ATOM      3  C   UNL     1     104.992 124.538  79.821  0.00  0.00    +0.000 A 
ATOM      4  C   UNL     1     105.446 123.462  80.570  0.00  0.00    +0.000 A 
ATOM      5  C   UNL     1     104.952 123.257  81.854  0.00  0.00    +0.000 A 
ATOM      6  C   UNL     1     104.001 124.138  82.380  0.00  0.00    +0.000 A 
ATOM      7  F   UNL     1     103.537 123.918  83.620  0.00  0.00    +0.000 F 
ATOM      8 CL   UNL     1     105.508 121.921  82.790  0.00  0.00    +0.000 Cl
ATOM      9  F   UNL     1     106.357 122.630  80.045  0.00  0.00    +0.000 F 
ATOM     10  F   UNL     1     105.463 124.741  78.583  0.00  0.00    +0.000 F 
ENDROOT
BRANCH   1  18
ATOM     11  C   UNL     1      99.674 129.170  83.779  0.00  0.00    +0.000 A 
ATOM     12  C   UNL     1      98.756 128.281  83.204  0.00  0.00    +0.000 A 
ATOM     13  C   UNL     1      99.179 127.124  82.538  0.00  0.00    +0.000 A 
ATOM     14  C   UNL     1     100.555 126.928  82.491  0.00  0.00    +0.000 A 
ATOM     15  C   UNL     1     101.495 127.781  83.045  0.00  0.00    +0.000 A 
ATOM     16  C   UNL     1     101.056 128.934  83.708  0.00  0.00    +0.000 A 
ATOM     17  N   UNL     1     102.756 127.291  82.819  0.00  0.00    +0.000 NA
ATOM     18  C   UNL     1     102.545 126.175  82.142  0.00  0.00    +0.000 A 
ATOM     19  O   UNL     1     101.224 125.893  81.909  0.00  0.00    +0.000 OA
ENDBRANCH   1  18
TORSDOF 1
ENDMDL
