MODEL 1
REMARK VINA RESULT:      -4.6      0.000      0.000
REMARK  Name = *****
REMARK  5 active torsions:
REMARK  status: ('A' for Active; 'I' for Inactive)
REMARK    1  A    between atoms: C_1  and  C_2
REMARK    2  A    between atoms: C_5  and  N_8
REMARK    3  A    between atoms: N_8  and  S_9
REMARK    4  A    between atoms: S_9  and  C_11
REMARK    5  A    between atoms: S_9  and  C_12
REMARK                            x       y       z     vdW  Elec       q    Type
REMARK                         _______ _______ _______ _____ _____    ______ ____
ROOT
ATOM      1  S   UNL     1      98.994 127.174  83.386  0.00  0.00    +0.000 S 
ATOM      2  O   UNL     1      98.423 127.317  82.058  0.00  0.00    +0.000 OA
ATOM      3  C   UNL     1      97.810 126.263  84.350  0.00  0.00    +0.000 C 
ENDROOT
BRANCH   1   4
ATOM      4  C   UNL     1      98.941 128.788  84.147  0.00  0.00    +0.000 A 
ATOM      5  C   UNL     1      99.437 129.898  83.458  0.00  0.00    +0.000 A 
ATOM      6  C   UNL     1      99.378 131.159  84.053  0.00  0.00    +0.000 A 
ATOM      7  C   UNL     1      98.832 131.305  85.329  0.00  0.00    +0.000 A 
ATOM      8  C   UNL     1      98.347 130.191  86.019  0.00  0.00    +0.000 A 
ATOM      9  C   UNL     1      98.401 128.928  85.430  0.00  0.00    +0.000 A 
ENDBRANCH   1   4
BRANCH   1  10
ATOM     10  N   UNL     1     100.393 126.606  83.692  0.00  0.00    +0.000 NA
BRANCH  10  15
ATOM     11  C   UNL     1     105.038 127.420  80.410  0.00  0.00    +0.000 C 
ATOM     12  C   UNL     1     103.848 127.217  81.301  0.00  0.00    +0.000 A 
ATOM     13  C   UNL     1     103.488 128.190  82.239  0.00  0.00    +0.000 A 
ATOM     14  C   UNL     1     102.360 128.017  83.049  0.00  0.00    +0.000 A 
ATOM     15  C   UNL     1     101.568 126.873  82.926  0.00  0.00    +0.000 A 
ATOM     16  C   UNL     1     101.925 125.907  81.983  0.00  0.00    +0.000 A 
ATOM     17  C   UNL     1     103.050 126.076  81.169  0.00  0.00    +0.000 A 
ENDBRANCH  10  15
ENDBRANCH   1  10
TORSDOF 3
ENDMDL
