MODEL 1
REMARK VINA RESULT:      -4.6      0.000      0.000
REMARK  Name = *****
REMARK  5 active torsions:
REMARK  status: ('A' for Active; 'I' for Inactive)
REMARK    1  A    between atoms: C_1  and  C_2
REMARK    2  A    between atoms: C_5  and  O_8
REMARK    3  A    between atoms: O_8  and  S_9
REMARK    4  A    between atoms: S_9  and  C_11
REMARK    5  A    between atoms: C_14  and  C_17
REMARK                            x       y       z     vdW  Elec       q    Type
REMARK                         _______ _______ _______ _____ _____    ______ ____
ROOT
ATOM      1  S   UNL     1      88.705  70.339  86.428  0.00  0.00    +0.000 S 
ATOM      2  O   UNL     1      90.067  70.821  86.839  0.00  0.00    +0.000 OA
ENDROOT
BRANCH   1   3
ATOM      3  C   UNL     1      88.713  68.547  86.703  0.00  0.00    +0.000 A 
ATOM      4  C   UNL     1      89.786  67.776  86.236  0.00  0.00    +0.000 A 
ATOM      5  C   UNL     1      89.813  66.397  86.458  0.00  0.00    +0.000 A 
ATOM      6  C   UNL     1      88.767  65.768  87.144  0.00  0.00    +0.000 A 
ATOM      7  C   UNL     1      87.708  66.544  87.629  0.00  0.00    +0.000 A 
ATOM      8  C   UNL     1      87.679  67.923  87.407  0.00  0.00    +0.000 A 
ATOM      9  C   UNL     1      88.812  64.293  87.412  0.00  0.00    +0.000 C 
ENDBRANCH   1   3
BRANCH   1  10
ATOM     10  O   UNL     1      87.700  70.604  87.664  0.00  0.00    +0.000 OA
BRANCH  10  15
ATOM     11  C   UNL     1      82.903  73.219  86.157  0.00  0.00    +0.000 C 
ATOM     12  C   UNL     1      84.187  72.561  86.569  0.00  0.00    +0.000 A 
ATOM     13  C   UNL     1      85.102  72.127  85.600  0.00  0.00    +0.000 A 
ATOM     14  C   UNL     1      86.281  71.482  85.981  0.00  0.00    +0.000 A 
ATOM     15  C   UNL     1      86.551  71.274  87.332  0.00  0.00    +0.000 A 
ATOM     16  C   UNL     1      85.628  71.664  88.303  0.00  0.00    +0.000 A 
ATOM     17  C   UNL     1      84.451  72.308  87.922  0.00  0.00    +0.000 A 
ENDBRANCH  10  15
ENDBRANCH   1  10
TORSDOF 3
ENDMDL
