REMARK  Name = *****
REMARK  5 active torsions:
REMARK  status: ('A' for Active; 'I' for Inactive)
REMARK    1  A    between atoms: C_1  and  C_2
REMARK    2  A    between atoms: C_2  and  O_3
REMARK    3  A    between atoms: O_3  and  C_4
REMARK    4  A    between atoms: C_9  and  C_10
REMARK    5  A    between atoms: C_11  and  C_12
REMARK                            x       y       z     vdW  Elec       q    Type
REMARK                         _______ _______ _______ _____ _____    ______ ____
ROOT
ATOM      1  C   UNL     1       4.356  -0.698  -1.563  0.00  0.00    +0.000 A 
ATOM      2  C   UNL     1       5.238  -1.434  -0.763  0.00  0.00    +0.000 A 
ATOM      3  C   UNL     1       6.619  -1.358  -0.970  0.00  0.00    +0.000 A 
ATOM      4  C   UNL     1       7.130  -0.550  -1.980  0.00  0.00    +0.000 A 
ATOM      5  C   UNL     1       6.262   0.186  -2.785  0.00  0.00    +0.000 A 
ATOM      6  C   UNL     1       4.874   0.130  -2.582  0.00  0.00    +0.000 A 
ENDROOT
BRANCH   6   7
ATOM      7  C   UNL     1       4.032   0.930  -3.488  0.00  0.00    +0.000 C 
ATOM      8  C   UNL     1       3.139   1.830  -3.048  0.00  0.00    +0.000 C 
BRANCH   8   9
ATOM      9  C   UNL     1       2.302   2.659  -3.927  0.00  0.00    +0.000 A 
ATOM     10  C   UNL     1       1.759   2.170  -5.123  0.00  0.00    +0.000 A 
ATOM     11  C   UNL     1       0.943   2.980  -5.917  0.00  0.00    +0.000 A 
ATOM     12  C   UNL     1       0.652   4.283  -5.519  0.00  0.00    +0.000 A 
ATOM     13  C   UNL     1       1.172   4.775  -4.323  0.00  0.00    +0.000 A 
ATOM     14  C   UNL     1       1.987   3.964  -3.529  0.00  0.00    +0.000 A 
ENDBRANCH   8   9
ENDBRANCH   6   7
BRANCH   1  15
ATOM     15  O   UNL     1       2.990  -0.740  -1.442  0.00  0.00    +0.000 OA
BRANCH  15  17
ATOM     16  C   UNL     1       0.928  -1.312  -0.403  0.00  0.00    +0.000 C 
ATOM     17  C   UNL     1       2.435  -1.492  -0.367  0.00  0.00    +0.000 C 
ENDBRANCH  15  17
ENDBRANCH   1  15
TORSDOF 4
