REMARK  Name = *****
REMARK  5 active torsions:
REMARK  status: ('A' for Active; 'I' for Inactive)
REMARK    1  A    between atoms: C_1  and  C_2
REMARK    2  A    between atoms: C_3  and  C_15
REMARK    3  A    between atoms: C_5  and  C_7
REMARK    4  A    between atoms: C_8  and  C_9
REMARK    5  A    between atoms: C_15  and  C_17
REMARK                            x       y       z     vdW  Elec       q    Type
REMARK                         _______ _______ _______ _____ _____    ______ ____
ROOT
ATOM      1  C   UNL     1       2.255  -0.050   0.127  0.00  0.00    +0.000 C 
ATOM      2  C   UNL     1       0.790  -0.342   0.047  0.00  0.00    +0.000 A 
ATOM      3  C   UNL     1       0.111  -1.545  -0.088  0.00  0.00    +0.000 A 
ATOM      4  C   UNL     1      -1.315  -1.319  -0.061  0.00  0.00    +0.000 A 
ATOM      5  C   UNL     1      -1.688   0.007   0.046  0.00  0.00    +0.000 A 
ATOM      6  S   UNL     1      -0.287   0.991   0.149  0.00  0.00    +0.000 S 
ENDROOT
BRANCH   3   7
ATOM      7  C   UNL     1       0.678  -2.898  -0.229  0.00  0.00    +0.000 C 
ATOM      8  O   UNL     1      -0.040  -3.889  -0.080  0.00  0.00    +0.000 OA
ATOM      9  C   UNL     1       2.129  -3.094  -0.578  0.00  0.00    +0.000 C 
ENDBRANCH   3   7
BRANCH   5  10
ATOM     10  C   UNL     1      -2.971   0.630   0.078  0.00  0.00    +0.000 C 
ATOM     11  C   UNL     1      -4.113  -0.062  -0.071  0.00  0.00    +0.000 C 
BRANCH  11  12
ATOM     12  C   UNL     1      -5.448   0.556  -0.052  0.00  0.00    +0.000 A 
ATOM     13  C   UNL     1      -5.713   1.784  -0.674  0.00  0.00    +0.000 A 
ATOM     14  C   UNL     1      -7.003   2.320  -0.667  0.00  0.00    +0.000 A 
ATOM     15  C   UNL     1      -8.043   1.630  -0.049  0.00  0.00    +0.000 A 
ATOM     16  C   UNL     1      -7.796   0.401   0.559  0.00  0.00    +0.000 A 
ATOM     17  C   UNL     1      -6.506  -0.136   0.552  0.00  0.00    +0.000 A 
ENDBRANCH  11  12
ENDBRANCH   5  10
TORSDOF 3
