REMARK  Name = *****
REMARK  1 active torsions:
REMARK  status: ('A' for Active; 'I' for Inactive)
REMARK    1  A    between atoms: C_7  and  C_9
REMARK                            x       y       z     vdW  Elec       q    Type
REMARK                         _______ _______ _______ _____ _____    ______ ____
ROOT
ATOM      1  C   UNL     1      -1.022   1.133   2.618  0.00  0.00    +0.000 A 
ATOM      2  C   UNL     1      -0.331   1.546   3.745  0.00  0.00    +0.000 A 
ATOM      3  C   UNL     1      -1.165   2.052   4.798  0.00  0.00    +0.000 A 
ATOM      4  C   UNL     1      -0.830   2.557   6.077  0.00  0.00    +0.000 A 
ATOM      5  C   UNL     1      -1.831   3.002   6.946  0.00  0.00    +0.000 A 
ATOM      6  C   UNL     1      -3.164   2.953   6.561  0.00  0.00    +0.000 A 
ATOM      7  C   UNL     1      -3.522   2.459   5.305  0.00  0.00    +0.000 A 
ATOM      8  C   UNL     1      -2.509   2.011   4.434  0.00  0.00    +0.000 A 
ATOM      9  S   UNL     1      -2.709   1.364   2.856  0.00  0.00    +0.000 S 
ENDROOT
BRANCH   1  16
ATOM     10  C   UNL     1      -1.193   0.510  -1.008  0.00  0.00    +0.000 C 
ATOM     11  C   UNL     1       0.293   0.765  -1.356  0.00  0.00    +0.000 C 
ATOM     12  N   UNL     1       1.132   0.231  -0.233  0.00  0.00    +0.000 N 
ATOM     13  C   UNL     1       0.970  -1.259  -0.224  0.00  0.00    +0.000 C 
ATOM     14  C   UNL     1      -0.492  -1.579   0.165  0.00  0.00    +0.000 C 
ATOM     15  C   UNL     1      -1.277  -0.254   0.338  0.00  0.00    +0.000 C 
ATOM     16  C   UNL     1      -0.532   0.587   1.391  0.00  0.00    +0.000 C 
ATOM     17  C   UNL     1       0.744   0.793   1.001  0.00  0.00    +0.000 C 
ENDBRANCH   1  16
TORSDOF 1
