MODEL 1
REMARK VINA RESULT:      -4.6      0.000      0.000
REMARK  Name = *****
REMARK  3 active torsions:
REMARK  status: ('A' for Active; 'I' for Inactive)
REMARK    1  A    between atoms: C_6  and  S_7
REMARK    2  A    between atoms: S_7  and  C_8
REMARK    3  A    between atoms: C_8  and  C_9
REMARK                            x       y       z     vdW  Elec       q    Type
REMARK                         _______ _______ _______ _____ _____    ______ ____
ROOT
ATOM      1  C   UNL     1     102.764 127.824  83.633  0.00  0.00    +0.000 C 
ENDROOT
BRANCH   1   2
ATOM      2  C   UNL     1     101.294 127.963  83.341  0.00  0.00    +0.000 A 
ATOM      3  C   UNL     1     100.612 129.142  83.661  0.00  0.00    +0.000 A 
ATOM      4  C   UNL     1      99.248 129.286  83.412  0.00  0.00    +0.000 A 
ATOM      5  C   UNL     1      98.539 128.234  82.833  0.00  0.00    +0.000 A 
ATOM      6  C   UNL     1      99.206 127.055  82.515  0.00  0.00    +0.000 A 
ATOM      7  C   UNL     1     100.569 126.909  82.763  0.00  0.00    +0.000 A 
ATOM      8  F   UNL     1      98.526 126.044  81.961  0.00  0.00    +0.000 F 
ATOM      9  F   UNL     1     101.275 130.167  84.214  0.00  0.00    +0.000 F 
ENDBRANCH   1   2
BRANCH   1  10
ATOM     10  S   UNL     1     103.763 128.048  82.122  0.00  0.00    +0.000 S 
BRANCH  10  16
ATOM     11  C   UNL     1     104.361 126.031  80.355  0.00  0.00    +0.000 A 
ATOM     12  C   UNL     1     104.593 124.706  79.975  0.00  0.00    +0.000 A 
ATOM     13  C   UNL     1     104.535 123.692  80.928  0.00  0.00    +0.000 A 
ATOM     14  C   UNL     1     104.242 123.992  82.256  0.00  0.00    +0.000 A 
ATOM     15  C   UNL     1     104.008 125.318  82.635  0.00  0.00    +0.000 A 
ATOM     16  C   UNL     1     104.080 126.347  81.690  0.00  0.00    +0.000 A 
ATOM     17 CL   UNL     1     104.815 122.061  80.462  0.00  0.00    +0.000 Cl
ENDBRANCH  10  16
ENDBRANCH   1  10
TORSDOF 3
ENDMDL
