MODEL 1
REMARK VINA RESULT:      -5.0      0.000      0.000
REMARK  Name = *****
REMARK  3 active torsions:
REMARK  status: ('A' for Active; 'I' for Inactive)
REMARK    1  A    between atoms: C_3  and  C_8
REMARK    2  A    between atoms: C_8  and  C_9
REMARK    3  A    between atoms: C_9  and  C_11
REMARK                            x       y       z     vdW  Elec       q    Type
REMARK                         _______ _______ _______ _____ _____    ______ ____
ROOT
ATOM      1  C   UNL     1     103.631 127.536  82.037  0.00  0.00    +0.000 C 
ATOM      2  O   UNL     1     103.926 128.569  81.434  0.00  0.00    +0.000 OA
ENDROOT
BRANCH   1   3
ATOM      3  C   UNL     1     104.046 126.219  81.461  0.00  0.00    +0.000 A 
ATOM      4  C   UNL     1     104.642 126.097  80.201  0.00  0.00    +0.000 A 
ATOM      5  C   UNL     1     105.005 124.835  79.729  0.00  0.00    +0.000 A 
ATOM      6  C   UNL     1     104.785 123.697  80.495  0.00  0.00    +0.000 A 
ATOM      7  C   UNL     1     104.196 123.802  81.749  0.00  0.00    +0.000 A 
ATOM      8  C   UNL     1     103.828 125.061  82.231  0.00  0.00    +0.000 A 
ATOM      9  F   UNL     1     105.141 122.492  80.032  0.00  0.00    +0.000 F 
ATOM     10  F   UNL     1     105.577 124.732  78.522  0.00  0.00    +0.000 F 
ENDBRANCH   1   3
BRANCH   1  11
ATOM     11  C   UNL     1     102.870 127.592  83.348  0.00  0.00    +0.000 C 
BRANCH  11  14
ATOM     12  C   UNL     1      99.408 129.194  83.507  0.00  0.00    +0.000 A 
ATOM     13  C   UNL     1     100.785 128.995  83.639  0.00  0.00    +0.000 A 
ATOM     14  C   UNL     1     101.384 127.809  83.184  0.00  0.00    +0.000 A 
ATOM     15  C   UNL     1     100.570 126.813  82.625  0.00  0.00    +0.000 A 
ATOM     16  C   UNL     1      99.200 127.023  82.499  0.00  0.00    +0.000 A 
ATOM     17  C   UNL     1      98.613 128.205  82.932  0.00  0.00    +0.000 A 
ATOM     18  F   UNL     1      98.434 126.068  81.956  0.00  0.00    +0.000 F 
ENDBRANCH  11  14
ENDBRANCH   1  11
TORSDOF 3
ENDMDL
