MODEL 1
REMARK VINA RESULT:      -4.3      0.000      0.000
REMARK  Name = *****
REMARK  4 active torsions:
REMARK  status: ('A' for Active; 'I' for Inactive)
REMARK    1  A    between atoms: C_1  and  C_2
REMARK    2  A    between atoms: C_5  and  O_8
REMARK    3  A    between atoms: O_8  and  C_9
REMARK    4  A    between atoms: C_9  and  C_11
REMARK                            x       y       z     vdW  Elec       q    Type
REMARK                         _______ _______ _______ _____ _____    ______ ____
ROOT
ATOM      1  O   UNL     1     104.204 124.157  80.598  0.00  0.00    +0.000 OA
ENDROOT
BRANCH   1   6
ATOM      2  C   UNL     1     100.545 126.642  82.389  0.00  0.00    +0.000 C 
ATOM      3  C   UNL     1     101.978 126.832  82.888  0.00  0.00    +0.000 C 
ATOM      4  C   UNL     1     102.874 127.465  81.807  0.00  0.00    +0.000 C 
ATOM      5  C   UNL     1     103.370 126.433  80.795  0.00  0.00    +0.000 C 
ATOM      6  C   UNL     1     104.162 125.309  81.476  0.00  0.00    +0.000 C 
ATOM      7  C   UNL     1     103.508 124.845  82.751  0.00  0.00    +0.000 C 
ATOM      8  C   UNL     1     102.527 125.515  83.376  0.00  0.00    +0.000 C 
ENDBRANCH   1   6
BRANCH   1   9
ATOM      9  C   UNL     1     105.325 123.658  80.014  0.00  0.00    +0.000 C 
ATOM     10  S   UNL     1     106.196 124.446  78.833  0.00  0.00    +0.000 S 
BRANCH   9  11
ATOM     11  C   UNL     1     105.643 122.342  80.634  0.00  0.00    +0.000 A 
ATOM     12  C   UNL     1     106.976 121.911  80.719  0.00  0.00    +0.000 A 
ATOM     13  C   UNL     1     107.287 120.680  81.305  0.00  0.00    +0.000 A 
ATOM     14  C   UNL     1     106.272 119.872  81.811  0.00  0.00    +0.000 A 
ATOM     15  C   UNL     1     104.944 120.290  81.733  0.00  0.00    +0.000 A 
ATOM     16  C   UNL     1     104.629 121.520  81.147  0.00  0.00    +0.000 A 
ENDBRANCH   9  11
ENDBRANCH   1   9
TORSDOF 3
ENDMDL
