MODEL 1
REMARK VINA RESULT:      -4.4      0.000      0.000
REMARK  Name = *****
REMARK  3 active torsions:
REMARK  status: ('A' for Active; 'I' for Inactive)
REMARK    1  A    between atoms: C_5  and  C_7
REMARK    2  A    between atoms: C_7  and  S_8
REMARK    3  A    between atoms: S_8  and  C_9
REMARK                            x       y       z     vdW  Elec       q    Type
REMARK                         _______ _______ _______ _____ _____    ______ ____
ROOT
ATOM      1  C   UNL     1      88.319  64.265  86.107  0.00  0.00    +0.000 A 
ATOM      2  C   UNL     1      88.808  65.532  86.461  0.00  0.00    +0.000 A 
ATOM      3  C   UNL     1      90.100  65.926  86.119  0.00  0.00    +0.000 A 
ATOM      4  C   UNL     1      90.930  65.060  85.426  0.00  0.00    +0.000 A 
ATOM      5  C   UNL     1      90.472  63.800  85.078  0.00  0.00    +0.000 A 
ATOM      6  C   UNL     1      89.181  63.403  85.419  0.00  0.00    +0.000 A 
ATOM      7  F   UNL     1      88.784  62.166  85.085  0.00  0.00    +0.000 F 
ATOM      8  F   UNL     1      91.275  62.955  84.416  0.00  0.00    +0.000 F 
ATOM      9  F   UNL     1      92.174  65.438  85.098  0.00  0.00    +0.000 F 
ATOM     10  F   UNL     1      90.540  67.143  86.464  0.00  0.00    +0.000 F 
ATOM     11  F   UNL     1      88.033  66.395  87.136  0.00  0.00    +0.000 F 
ENDROOT
BRANCH   1  12
ATOM     12  S   UNL     1      86.660  63.806  86.596  0.00  0.00    +0.000 S 
BRANCH  12  13
ATOM     13  C   UNL     1      86.995  62.540  87.877  0.00  0.00    +0.000 C 
BRANCH  13  18
ATOM     14  C   UNL     1      88.940  64.031  90.775  0.00  0.00    +0.000 A 
ATOM     15  C   UNL     1      87.896  64.293  91.652  0.00  0.00    +0.000 A 
ATOM     16  C   UNL     1      86.611  63.968  91.253  0.00  0.00    +0.000 A 
ATOM     17  N   UNL     1      86.311  63.410  90.060  0.00  0.00    +0.000 NA
ATOM     18  C   UNL     1      87.340  63.162  89.209  0.00  0.00    +0.000 A 
ATOM     19  C   UNL     1      88.664  63.457  89.536  0.00  0.00    +0.000 A 
ENDBRANCH  13  18
ENDBRANCH  12  13
ENDBRANCH   1  12
TORSDOF 3
ENDMDL
