MODEL 1
REMARK VINA RESULT:      -4.4      0.000      0.000
REMARK  Name = *****
REMARK  5 active torsions:
REMARK  status: ('A' for Active; 'I' for Inactive)
REMARK    1  A    between atoms: C_1  and  C_2
REMARK    2  A    between atoms: C_2  and  S_3
REMARK    3  A    between atoms: S_3  and  C_4
REMARK    4  A    between atoms: C_4  and  C_12
REMARK    5  A    between atoms: N_5  and  C_6
REMARK                            x       y       z     vdW  Elec       q    Type
REMARK                         _______ _______ _______ _____ _____    ______ ____
ROOT
ATOM      1  C   UNL     1     102.863 125.866  81.950  0.00  0.00    +0.000 C 
ATOM      2  N   UNL     1     101.891 125.851  82.813  0.00  0.00    +0.000 NA
ENDROOT
BRANCH   2   3
ATOM      3  C   UNL     1     101.010 126.931  82.958  0.00  0.00    +0.000 A 
ATOM      4  C   UNL     1      99.708 126.869  82.454  0.00  0.00    +0.000 A 
ATOM      5  C   UNL     1      98.826 127.936  82.636  0.00  0.00    +0.000 A 
ATOM      6  C   UNL     1      99.235 129.065  83.345  0.00  0.00    +0.000 A 
ATOM      7  C   UNL     1     100.524 129.123  83.876  0.00  0.00    +0.000 A 
ATOM      8  C   UNL     1     101.402 128.054  83.689  0.00  0.00    +0.000 A 
ENDBRANCH   2   3
BRANCH   1   9
ATOM      9  C   UNL     1     103.739 124.656  81.834  0.00  0.00    +0.000 A 
ATOM     10  C   UNL     1     104.247 124.321  80.570  0.00  0.00    +0.000 A 
ATOM     11  C   UNL     1     105.069 123.203  80.411  0.00  0.00    +0.000 A 
ATOM     12  C   UNL     1     105.396 122.417  81.514  0.00  0.00    +0.000 A 
ATOM     13  C   UNL     1     104.910 122.750  82.777  0.00  0.00    +0.000 A 
ATOM     14  C   UNL     1     104.088 123.867  82.940  0.00  0.00    +0.000 A 
ENDBRANCH   1   9
BRANCH   1  15
ATOM     15  S   UNL     1     103.240 127.235  80.898  0.00  0.00    +0.000 S 
BRANCH  15  17
ATOM     16  C   UNL     1     104.662 129.184  82.271  0.00  0.00    +0.000 C 
ATOM     17  C   UNL     1     104.791 127.803  81.655  0.00  0.00    +0.000 C 
ENDBRANCH  15  17
ENDBRANCH   1  15
TORSDOF 4
ENDMDL
