MODEL 1
REMARK VINA RESULT:      -4.9      0.000      0.000
REMARK  Name = *****
REMARK  3 active torsions:
REMARK  status: ('A' for Active; 'I' for Inactive)
REMARK    1  A    between atoms: C_1  and  C_2
REMARK    2  A    between atoms: C_4  and  N_8
REMARK    3  A    between atoms: C_9  and  C_10
REMARK                            x       y       z     vdW  Elec       q    Type
REMARK                         _______ _______ _______ _____ _____    ______ ____
ROOT
ATOM      1  N   UNL     1     103.018 126.360  81.346  0.00  0.00    +0.000 NA
ATOM      2  C   UNL     1     102.018 126.014  82.093  0.00  0.00    +0.000 C 
ENDROOT
BRANCH   1   6
ATOM      3  C   UNL     1     106.373 124.586  78.170  0.00  0.00    +0.000 C 
ATOM      4  C   UNL     1     105.504 124.417  79.381  0.00  0.00    +0.000 A 
ATOM      5  C   UNL     1     104.655 125.454  79.794  0.00  0.00    +0.000 A 
ATOM      6  C   UNL     1     103.863 125.319  80.938  0.00  0.00    +0.000 A 
ATOM      7  C   UNL     1     103.949 124.150  81.695  0.00  0.00    +0.000 A 
ATOM      8  C   UNL     1     104.801 123.117  81.304  0.00  0.00    +0.000 A 
ATOM      9  C   UNL     1     105.577 123.251  80.152  0.00  0.00    +0.000 A 
ENDBRANCH   1   6
BRANCH   2  10
ATOM     10  C   UNL     1     101.045 127.001  82.597  0.00  0.00    +0.000 A 
ATOM     11  C   UNL     1      99.674 126.801  82.431  0.00  0.00    +0.000 A 
ATOM     12  C   UNL     1      98.788 127.753  82.920  0.00  0.00    +0.000 A 
ATOM     13  C   UNL     1      99.247 128.897  83.568  0.00  0.00    +0.000 A 
ATOM     14  C   UNL     1     100.618 129.095  83.735  0.00  0.00    +0.000 A 
ATOM     15  C   UNL     1     101.521 128.147  83.248  0.00  0.00    +0.000 A 
ATOM     16  F   UNL     1      97.471 127.572  82.764  0.00  0.00    +0.000 F 
ENDBRANCH   2  10
TORSDOF 2
ENDMDL
