MODEL 1
REMARK VINA RESULT:      -4.4      0.000      0.000
REMARK  Name = *****
REMARK  3 active torsions:
REMARK  status: ('A' for Active; 'I' for Inactive)
REMARK    1  A    between atoms: C_2  and  C_4
REMARK    2  A    between atoms: C_2  and  C_11
REMARK    3  A    between atoms: C_11  and  C_12
REMARK                            x       y       z     vdW  Elec       q    Type
REMARK                         _______ _______ _______ _____ _____    ______ ____
ROOT
ATOM      1  C   UNL     1      96.866 115.510  81.369  0.00  0.00    +0.000 C 
ATOM      2  C   UNL     1      96.935 116.597  80.307  0.00  0.00    +0.000 C 
ATOM      3  O   UNL     1      95.723 115.851  80.581  0.00  0.00    +0.000 OA
ENDROOT
BRANCH   2   4
ATOM      4  C   UNL     1      96.926 118.053  80.742  0.00  0.00    +0.000 A 
ATOM      5  C   UNL     1      98.121 118.768  80.952  0.00  0.00    +0.000 A 
ATOM      6  C   UNL     1      98.106 120.109  81.343  0.00  0.00    +0.000 A 
ATOM      7  C   UNL     1      96.891 120.752  81.532  0.00  0.00    +0.000 A 
ATOM      8  C   UNL     1      95.693 120.080  81.337  0.00  0.00    +0.000 A 
ATOM      9  C   UNL     1      95.713 118.740  80.945  0.00  0.00    +0.000 A 
ATOM     10  F   UNL     1      96.875 122.038  81.906  0.00  0.00    +0.000 F 
ENDBRANCH   2   4
BRANCH   2  11
ATOM     11  C   UNL     1      97.566 116.277  78.953  0.00  0.00    +0.000 C 
ATOM     12  F   UNL     1      98.615 117.126  78.729  0.00  0.00    +0.000 F 
ATOM     13  F   UNL     1      98.137 115.035  79.037  0.00  0.00    +0.000 F 
BRANCH  11  14
ATOM     14  C   UNL     1      96.617 116.321  77.781  0.00  0.00    +0.000 A 
ATOM     15  C   UNL     1      95.673 117.285  77.477  0.00  0.00    +0.000 A 
ATOM     16  C   UNL     1      94.966 116.997  76.274  0.00  0.00    +0.000 A 
ATOM     17  C   UNL     1      95.389 115.821  75.697  0.00  0.00    +0.000 A 
ATOM     18  S   UNL     1      96.632 115.074  76.601  0.00  0.00    +0.000 S 
ENDBRANCH  11  14
ENDBRANCH   2  11
TORSDOF 3
ENDMDL
