MODEL 1
REMARK VINA RESULT:      -4.7      0.000      0.000
REMARK  Name = *****
REMARK  2 active torsions:
REMARK  status: ('A' for Active; 'I' for Inactive)
REMARK    1  A    between atoms: C_2  and  C_13
REMARK    2  A    between atoms: C_4  and  C_6
REMARK                            x       y       z     vdW  Elec       q    Type
REMARK                         _______ _______ _______ _____ _____    ______ ____
ROOT
ATOM      1  C   UNL     1      89.550  69.512  85.701  0.00  0.00    +0.000 C 
ATOM      2  C   UNL     1      88.854  70.156  86.853  0.00  0.00    +0.000 C 
ATOM      3  N   UNL     1      88.989  68.725  86.759  0.00  0.00    +0.000 N 
ATOM      4  C   UNL     1      87.937  67.855  86.487  0.00  0.00    +0.000 C 
ATOM      5  O   UNL     1      87.168  67.946  85.536  0.00  0.00    +0.000 OA
ENDROOT
BRANCH   4   6
ATOM      6  C   UNL     1      87.804  66.718  87.448  0.00  0.00    +0.000 A 
ATOM      7  C   UNL     1      88.641  65.593  87.399  0.00  0.00    +0.000 A 
ATOM      8  C   UNL     1      88.474  64.551  88.317  0.00  0.00    +0.000 A 
ATOM      9  C   UNL     1      87.474  64.630  89.286  0.00  0.00    +0.000 A 
ATOM     10  C   UNL     1      86.638  65.742  89.345  0.00  0.00    +0.000 A 
ATOM     11  C   UNL     1      86.802  66.784  88.428  0.00  0.00    +0.000 A 
ATOM     12 CL   UNL     1      87.273  63.345  90.412  0.00  0.00    +0.000 Cl
ENDBRANCH   4   6
BRANCH   2  13
ATOM     13  C   UNL     1      87.511  70.827  86.715  0.00  0.00    +0.000 A 
ATOM     14  C   UNL     1      86.702  71.071  87.841  0.00  0.00    +0.000 A 
ATOM     15  C   UNL     1      85.471  71.722  87.729  0.00  0.00    +0.000 A 
ATOM     16  C   UNL     1      85.024  72.158  86.486  0.00  0.00    +0.000 A 
ATOM     17  C   UNL     1      85.809  71.942  85.357  0.00  0.00    +0.000 A 
ATOM     18  C   UNL     1      87.039  71.289  85.474  0.00  0.00    +0.000 A 
ENDBRANCH   2  13
TORSDOF 2
ENDMDL
