MODEL 1
REMARK VINA RESULT:      -4.3      0.000      0.000
REMARK  Name = *****
REMARK  3 active torsions:
REMARK  status: ('A' for Active; 'I' for Inactive)
REMARK    1  A    between atoms: C_4  and  S_7
REMARK    2  A    between atoms: S_7  and  C_8
REMARK    3  A    between atoms: C_8  and  C_9
REMARK                            x       y       z     vdW  Elec       q    Type
REMARK                         _______ _______ _______ _____ _____    ______ ____
ROOT
ATOM      1  C   UNL     1     103.479 127.573  81.724  0.00  0.00    +0.000 C 
ENDROOT
BRANCH   1   2
ATOM      2  C   UNL     1     103.867 126.138  81.466  0.00  0.00    +0.000 A 
ATOM      3  C   UNL     1     103.801 125.185  82.495  0.00  0.00    +0.000 A 
ATOM      4  C   UNL     1     104.172 123.860  82.259  0.00  0.00    +0.000 A 
ATOM      5  C   UNL     1     104.617 123.479  80.995  0.00  0.00    +0.000 A 
ATOM      6  C   UNL     1     104.698 124.414  79.966  0.00  0.00    +0.000 A 
ATOM      7  C   UNL     1     104.328 125.740  80.201  0.00  0.00    +0.000 A 
ATOM      8 CL   UNL     1     105.075 121.846  80.705  0.00  0.00    +0.000 Cl
ENDBRANCH   1   2
BRANCH   1   9
ATOM      9  S   UNL     1     102.948 127.815  83.451  0.00  0.00    +0.000 S 
BRANCH   9  13
ATOM     10  C   UNL     1      98.412 127.949  82.806  0.00  0.00    +0.000 A 
ATOM     11  C   UNL     1      99.055 129.036  83.396  0.00  0.00    +0.000 A 
ATOM     12  C   UNL     1     100.438 129.007  83.598  0.00  0.00    +0.000 A 
ATOM     13  C   UNL     1     101.182 127.886  83.217  0.00  0.00    +0.000 A 
ATOM     14  C   UNL     1     100.533 126.806  82.612  0.00  0.00    +0.000 A 
ATOM     15  C   UNL     1      99.150 126.835  82.411  0.00  0.00    +0.000 A 
ENDBRANCH   9  13
ENDBRANCH   1   9
TORSDOF 3
ENDMDL
