REMARK  Name = *****
REMARK  3 active torsions:
REMARK  status: ('A' for Active; 'I' for Inactive)
REMARK    1  A    between atoms: C_4  and  C_7
REMARK    2  A    between atoms: C_7  and  O_9
REMARK    3  A    between atoms: O_9  and  C_10
REMARK                            x       y       z     vdW  Elec       q    Type
REMARK                         _______ _______ _______ _____ _____    ______ ____
ROOT
ATOM      1  O   UNL     1      -3.162  -0.944   1.185  0.00  0.00    +0.000 OA
ENDROOT
BRANCH   1   2
ATOM      2  C   UNL     1      -4.517  -0.880   1.521  0.00  0.00    +0.000 A 
ATOM      3  C   UNL     1      -4.933  -0.064   2.572  0.00  0.00    +0.000 A 
ATOM      4  C   UNL     1      -6.283  -0.052   2.916  0.00  0.00    +0.000 A 
ATOM      5  C   UNL     1      -7.200  -0.852   2.234  0.00  0.00    +0.000 A 
ATOM      6  C   UNL     1      -6.756  -1.674   1.199  0.00  0.00    +0.000 A 
ATOM      7  C   UNL     1      -5.411  -1.701   0.838  0.00  0.00    +0.000 A 
ATOM      8 CL   UNL     1      -7.880  -2.675   0.365  0.00  0.00    +0.000 Cl
ATOM      9 CL   UNL     1      -6.823   0.954   4.204  0.00  0.00    +0.000 Cl
ENDBRANCH   1   2
BRANCH   1  10
ATOM     10  C   UNL     1      -2.747   0.113   0.396  0.00  0.00    +0.000 C 
ATOM     11  O   UNL     1      -3.434   1.039  -0.009  0.00  0.00    +0.000 OA
BRANCH  10  15
ATOM     12  C   UNL     1       1.429  -0.173  -0.545  0.00  0.00    +0.000 A 
ATOM     13  C   UNL     1       0.833  -1.181   0.212  0.00  0.00    +0.000 A 
ATOM     14  C   UNL     1      -0.526  -1.109   0.530  0.00  0.00    +0.000 A 
ATOM     15  C   UNL     1      -1.295  -0.022   0.091  0.00  0.00    +0.000 A 
ATOM     16  C   UNL     1      -0.687   0.987  -0.670  0.00  0.00    +0.000 A 
ATOM     17  C   UNL     1       0.671   0.911  -0.986  0.00  0.00    +0.000 A 
ENDBRANCH  10  15
ENDBRANCH   1  10
TORSDOF 3
