MODEL 1
REMARK VINA RESULT:      -4.4      0.000      0.000
REMARK  Name = *****
REMARK  4 active torsions:
REMARK  status: ('A' for Active; 'I' for Inactive)
REMARK    1  A    between atoms: C_1  and  C_2
REMARK    2  A    between atoms: C_5  and  O_8
REMARK    3  A    between atoms: O_8  and  C_9
REMARK    4  A    between atoms: C_9  and  C_11
REMARK                            x       y       z     vdW  Elec       q    Type
REMARK                         _______ _______ _______ _____ _____    ______ ____
ROOT
ATOM      1  C   UNL     1      88.541  70.402  86.247  0.00  0.00    +0.000 C 
ATOM      2  O   UNL     1      89.653  70.824  86.526  0.00  0.00    +0.000 OA
ENDROOT
BRANCH   1   3
ATOM      3  C   UNL     1      87.303  70.993  86.784  0.00  0.00    +0.000 A 
ATOM      4  C   UNL     1      86.384  71.497  85.852  0.00  0.00    +0.000 A 
ATOM      5  C   UNL     1      85.191  72.076  86.287  0.00  0.00    +0.000 A 
ATOM      6  C   UNL     1      84.908  72.142  87.650  0.00  0.00    +0.000 A 
ATOM      7  C   UNL     1      85.812  71.621  88.579  0.00  0.00    +0.000 A 
ATOM      8  C   UNL     1      87.009  71.039  88.151  0.00  0.00    +0.000 A 
ATOM      9 CL   UNL     1      88.038  70.353  89.357  0.00  0.00    +0.000 Cl
ENDBRANCH   1   3
BRANCH   1  10
ATOM     10  O   UNL     1      88.202  69.270  85.531  0.00  0.00    +0.000 OA
BRANCH  10  15
ATOM     11  C   UNL     1      88.582  64.224  88.130  0.00  0.00    +0.000 C 
ATOM     12  C   UNL     1      88.483  65.574  87.480  0.00  0.00    +0.000 A 
ATOM     13  C   UNL     1      87.298  66.318  87.574  0.00  0.00    +0.000 A 
ATOM     14  C   UNL     1      87.191  67.560  86.946  0.00  0.00    +0.000 A 
ATOM     15  C   UNL     1      88.277  68.058  86.230  0.00  0.00    +0.000 A 
ATOM     16  C   UNL     1      89.449  67.318  86.096  0.00  0.00    +0.000 A 
ATOM     17  C   UNL     1      89.550  66.075  86.723  0.00  0.00    +0.000 A 
ENDBRANCH  10  15
ENDBRANCH   1  10
TORSDOF 3
ENDMDL
