MODEL 1
REMARK VINA RESULT:      -4.9      0.000      0.000
REMARK  Name = *****
REMARK  2 active torsions:
REMARK  status: ('A' for Active; 'I' for Inactive)
REMARK    1  A    between atoms: C_4  and  C_7
REMARK    2  A    between atoms: C_8  and  C_9
REMARK                            x       y       z     vdW  Elec       q    Type
REMARK                         _______ _______ _______ _____ _____    ______ ____
ROOT
ATOM      1  C   UNL     1     102.840 125.644  81.734  0.00  0.00    +0.000 C 
ATOM      2  C   UNL     1     102.008 126.395  82.166  0.00  0.00    +0.000 C 
ENDROOT
BRANCH   2   3
ATOM      3  C   UNL     1     101.016 127.290  82.677  0.00  0.00    +0.000 A 
ATOM      4  C   UNL     1     101.383 128.432  83.387  0.00  0.00    +0.000 A 
ATOM      5  C   UNL     1     100.421 129.310  83.886  0.00  0.00    +0.000 A 
ATOM      6  C   UNL     1      99.066 129.049  83.677  0.00  0.00    +0.000 A 
ATOM      7  C   UNL     1      98.685 127.909  82.968  0.00  0.00    +0.000 A 
ATOM      8  C   UNL     1      99.659 127.041  82.475  0.00  0.00    +0.000 A 
ATOM      9  F   UNL     1      99.260 125.954  81.796  0.00  0.00    +0.000 F 
ATOM     10  F   UNL     1     102.677 128.712  83.605  0.00  0.00    +0.000 F 
ENDBRANCH   2   3
BRANCH   1  14
ATOM     11  C   UNL     1     105.772 123.013  80.210  0.00  0.00    +0.000 A 
ATOM     12  C   UNL     1     105.127 122.718  81.411  0.00  0.00    +0.000 A 
ATOM     13  C   UNL     1     104.157 123.588  81.916  0.00  0.00    +0.000 A 
ATOM     14  C   UNL     1     103.832 124.752  81.219  0.00  0.00    +0.000 A 
ATOM     15  C   UNL     1     104.479 125.046  80.015  0.00  0.00    +0.000 A 
ATOM     16  C   UNL     1     105.448 124.177  79.511  0.00  0.00    +0.000 A 
ENDBRANCH   1  14
TORSDOF 2
ENDMDL
