MODEL 1
REMARK VINA RESULT:      -4.2      0.000      0.000
REMARK  Name = *****
REMARK  4 active torsions:
REMARK  status: ('A' for Active; 'I' for Inactive)
REMARK    1  A    between atoms: C_4  and  C_7
REMARK    2  A    between atoms: C_7  and  C_8
REMARK    3  A    between atoms: C_8  and  C_9
REMARK    4  A    between atoms: C_9  and  C_11
REMARK                            x       y       z     vdW  Elec       q    Type
REMARK                         _______ _______ _______ _____ _____    ______ ____
ROOT
ATOM      1  C   UNL     1      88.671  67.485  86.032  0.00  0.00    +0.000 C 
ATOM      2  O   UNL     1      88.148  67.389  84.924  0.00  0.00    +0.000 OA
ENDROOT
BRANCH   1   3
ATOM      3  C   UNL     1      88.132  66.670  87.163  0.00  0.00    +0.000 A 
ATOM      4  C   UNL     1      88.681  65.436  87.524  0.00  0.00    +0.000 A 
ATOM      5  C   UNL     1      88.131  64.727  88.589  0.00  0.00    +0.000 A 
ATOM      6  C   UNL     1      87.044  65.219  89.304  0.00  0.00    +0.000 A 
ATOM      7  C   UNL     1      86.491  66.446  88.949  0.00  0.00    +0.000 A 
ATOM      8  C   UNL     1      87.033  67.169  87.882  0.00  0.00    +0.000 A 
ATOM      9  F   UNL     1      88.661  63.545  88.931  0.00  0.00    +0.000 F 
ENDBRANCH   1   3
BRANCH   1  10
ATOM     10  C   UNL     1      89.848  68.405  86.295  0.00  0.00    +0.000 C 
BRANCH  10  11
ATOM     11  C   UNL     1      89.498  69.866  86.014  0.00  0.00    +0.000 C 
BRANCH  11  15
ATOM     12  C   UNL     1      86.657  71.336  88.907  0.00  0.00    +0.000 A 
ATOM     13  C   UNL     1      87.902  70.871  89.326  0.00  0.00    +0.000 A 
ATOM     14  C   UNL     1      88.825  70.402  88.390  0.00  0.00    +0.000 A 
ATOM     15  C   UNL     1      88.511  70.397  87.024  0.00  0.00    +0.000 A 
ATOM     16  C   UNL     1      87.255  70.862  86.613  0.00  0.00    +0.000 A 
ATOM     17  C   UNL     1      86.334  71.332  87.551  0.00  0.00    +0.000 A 
ENDBRANCH  11  15
ENDBRANCH  10  11
ENDBRANCH   1  10
TORSDOF 4
ENDMDL
