MODEL 1
REMARK VINA RESULT:      -4.9      0.000      0.000
REMARK  Name = *****
REMARK  3 active torsions:
REMARK  status: ('A' for Active; 'I' for Inactive)
REMARK    1  A    between atoms: C_1  and  C_2
REMARK    2  A    between atoms: C_4  and  C_8
REMARK    3  A    between atoms: N_9  and  C_10
REMARK                            x       y       z     vdW  Elec       q    Type
REMARK                         _______ _______ _______ _____ _____    ______ ____
ROOT
ATOM      1  C   UNL     1     102.950 126.361  81.351  0.00  0.00    +0.000 C 
ATOM      2  N   UNL     1     101.960 125.938  82.074  0.00  0.00    +0.000 NA
ENDROOT
BRANCH   1   6
ATOM      3  C   UNL     1     104.948 121.776  80.967  0.00  0.00    +0.000 C 
ATOM      4  C   UNL     1     104.939 123.231  80.600  0.00  0.00    +0.000 A 
ATOM      5  C   UNL     1     103.977 124.091  81.146  0.00  0.00    +0.000 A 
ATOM      6  C   UNL     1     103.951 125.440  80.779  0.00  0.00    +0.000 A 
ATOM      7  C   UNL     1     104.873 125.940  79.857  0.00  0.00    +0.000 A 
ATOM      8  C   UNL     1     105.822 125.083  79.298  0.00  0.00    +0.000 A 
ATOM      9  C   UNL     1     105.851 123.735  79.664  0.00  0.00    +0.000 A 
ENDBRANCH   1   6
BRANCH   2  10
ATOM     10  C   UNL     1     101.086 126.923  82.553  0.00  0.00    +0.000 A 
ATOM     11  C   UNL     1      99.706 126.785  82.399  0.00  0.00    +0.000 A 
ATOM     12  C   UNL     1      98.857 127.766  82.900  0.00  0.00    +0.000 A 
ATOM     13  C   UNL     1      99.358 128.881  83.563  0.00  0.00    +0.000 A 
ATOM     14  C   UNL     1     100.734 129.016  83.735  0.00  0.00    +0.000 A 
ATOM     15  C   UNL     1     101.593 128.035  83.234  0.00  0.00    +0.000 A 
ATOM     16  F   UNL     1      97.533 127.636  82.741  0.00  0.00    +0.000 F 
ENDBRANCH   2  10
TORSDOF 2
ENDMDL
