MODEL 1
REMARK VINA RESULT:      -3.6      0.000      0.000
REMARK  Name = *****
REMARK  7 active torsions:
REMARK  status: ('A' for Active; 'I' for Inactive)
REMARK    1  A    between atoms: C_1  and  C_2
REMARK    2  A    between atoms: C_4  and  C_17
REMARK    3  A    between atoms: C_5  and  P_9
REMARK    4  A    between atoms: C_6  and  C_8
REMARK    5  A    between atoms: P_9  and  C_10
REMARK    6  A    between atoms: C_10  and  C_11
REMARK    7  A    between atoms: C_11  and  C_12
REMARK                            x       y       z     vdW  Elec       q    Type
REMARK                         _______ _______ _______ _____ _____    ______ ____
ROOT
ATOM      1  C   UNL     1      84.011  72.172  87.564  0.00  0.00    +0.000 C 
ATOM      2  C   UNL     1      85.396  71.779  87.141  0.00  0.00    +0.000 A 
ATOM      3  C   UNL     1      85.745  71.752  85.791  0.00  0.00    +0.000 A 
ATOM      4  C   UNL     1      87.029  71.358  85.369  0.00  0.00    +0.000 A 
ATOM      5  C   UNL     1      87.998  70.977  86.333  0.00  0.00    +0.000 A 
ATOM      6  C   UNL     1      87.626  70.956  87.704  0.00  0.00    +0.000 A 
ATOM      7  C   UNL     1      86.334  71.362  88.086  0.00  0.00    +0.000 A 
ATOM      8  C   UNL     1      88.558  70.493  88.799  0.00  0.00    +0.000 C 
ATOM      9  C   UNL     1      87.284  71.334  83.882  0.00  0.00    +0.000 C 
ENDROOT
BRANCH   5  10
ATOM     10  P   UNL     1      89.712  70.489  85.851  0.00  0.00    +0.000 P 
ATOM     11  H   UNL     1      90.578  70.555  86.923  0.00  0.00    +0.000 HD
BRANCH  10  12
ATOM     12  C   UNL     1      89.438  68.738  85.301  0.00  0.00    +0.000 C 
BRANCH  12  13
ATOM     13  C   UNL     1      89.377  67.744  86.460  0.00  0.00    +0.000 C 
BRANCH  13  14
ATOM     14  C   UNL     1      88.051  66.972  86.493  0.00  0.00    +0.000 C 
ATOM     15  C   UNL     1      86.998  67.528  85.565  0.00  0.00    +0.000 C 
ATOM     16  C   UNL     1      85.921  67.911  86.270  0.00  0.00    +0.000 C 
ATOM     17  C   UNL     1      86.148  67.651  87.668  0.00  0.00    +0.000 C 
ATOM     18  C   UNL     1      87.362  67.109  87.830  0.00  0.00    +0.000 C 
ENDBRANCH  13  14
ENDBRANCH  12  13
ENDBRANCH  10  12
ENDBRANCH   5  10
TORSDOF 4
ENDMDL
