REMARK  Name = *****
REMARK  5 active torsions:
REMARK  status: ('A' for Active; 'I' for Inactive)
REMARK    1  A    between atoms: C_1  and  C_2
REMARK    2  A    between atoms: C_2  and  C_3
REMARK    3  A    between atoms: C_2  and  C_10
REMARK    4  A    between atoms: C_3  and  C_4
REMARK    5  A    between atoms: C_10  and  C_11
REMARK                            x       y       z     vdW  Elec       q    Type
REMARK                         _______ _______ _______ _____ _____    ______ ____
ROOT
ATOM      1  C   UNL     1       1.093   0.475   0.063  0.00  0.00    +0.000 C 
ATOM      2  C   UNL     1       2.595   0.196  -0.014  0.00  0.00    +0.000 C 
ATOM      3  F   UNL     1       3.249   1.397  -0.065  0.00  0.00    +0.000 F 
ENDROOT
BRANCH   2   4
ATOM      4  C   UNL     1       3.111  -0.573   1.226  0.00  0.00    +0.000 C 
BRANCH   4   5
ATOM      5  C   UNL     1       2.816   0.064   2.566  0.00  0.00    +0.000 A 
ATOM      6  C   UNL     1       1.954  -0.561   3.478  0.00  0.00    +0.000 A 
ATOM      7  C   UNL     1       1.687   0.025   4.716  0.00  0.00    +0.000 A 
ATOM      8  C   UNL     1       2.278   1.240   5.056  0.00  0.00    +0.000 A 
ATOM      9  C   UNL     1       3.139   1.869   4.160  0.00  0.00    +0.000 A 
ATOM     10  C   UNL     1       3.409   1.284   2.922  0.00  0.00    +0.000 A 
ENDBRANCH   4   5
ENDBRANCH   2   4
BRANCH   2  11
ATOM     11  C   UNL     1       2.977  -0.608  -1.280  0.00  0.00    +0.000 C 
BRANCH  11  12
ATOM     12  C   UNL     1       2.537  -0.009  -2.597  0.00  0.00    +0.000 A 
ATOM     13  C   UNL     1       3.077   1.204  -3.046  0.00  0.00    +0.000 A 
ATOM     14  C   UNL     1       2.673   1.752  -4.265  0.00  0.00    +0.000 A 
ATOM     15  C   UNL     1       1.729   1.093  -5.049  0.00  0.00    +0.000 A 
ATOM     16  C   UNL     1       1.189  -0.116  -4.615  0.00  0.00    +0.000 A 
ATOM     17  C   UNL     1       1.591  -0.666  -3.397  0.00  0.00    +0.000 A 
ENDBRANCH  11  12
ENDBRANCH   2  11
TORSDOF 4
