MODEL 1
REMARK VINA RESULT:      -5.1      0.000      0.000
REMARK  Name = *****
REMARK  4 active torsions:
REMARK  status: ('A' for Active; 'I' for Inactive)
REMARK    1  A    between atoms: C_1  and  O_2
REMARK    2  A    between atoms: O_2  and  C_3
REMARK    3  A    between atoms: C_7  and  C_9
REMARK    4  A    between atoms: C_10  and  C_11
REMARK                            x       y       z     vdW  Elec       q    Type
REMARK                         _______ _______ _______ _____ _____    ______ ____
ROOT
ATOM      1  C   UNL     1     102.454 125.981  82.075  0.00  0.00    +0.000 C 
ATOM      2  C   UNL     1     103.188 126.161  80.964  0.00  0.00    +0.000 C 
ATOM      3  F   UNL     1     103.030 127.297  80.242  0.00  0.00    +0.000 F 
ENDROOT
BRANCH   1   8
ATOM      4  C   UNL     1      99.064 127.483  82.773  0.00  0.00    +0.000 A 
ATOM      5  C   UNL     1      99.405 128.669  83.423  0.00  0.00    +0.000 A 
ATOM      6  C   UNL     1     100.748 128.983  83.641  0.00  0.00    +0.000 A 
ATOM      7  C   UNL     1     101.754 128.112  83.215  0.00  0.00    +0.000 A 
ATOM      8  C   UNL     1     101.430 126.911  82.578  0.00  0.00    +0.000 A 
ATOM      9  C   UNL     1     100.079 126.616  82.351  0.00  0.00    +0.000 A 
BRANCH   4  11
ATOM     10  C   UNL     1      97.089 126.398  83.531  0.00  0.00    +0.000 C 
ATOM     11  O   UNL     1      97.795 127.058  82.488  0.00  0.00    +0.000 OA
ENDBRANCH   4  11
ENDBRANCH   1   8
BRANCH   2  12
ATOM     12  C   UNL     1     104.226 125.231  80.484  0.00  0.00    +0.000 A 
ATOM     13  C   UNL     1     105.270 125.624  79.633  0.00  0.00    +0.000 A 
ATOM     14  C   UNL     1     106.240 124.705  79.219  0.00  0.00    +0.000 A 
ATOM     15  C   UNL     1     106.184 123.384  79.657  0.00  0.00    +0.000 A 
ATOM     16  C   UNL     1     105.162 122.981  80.512  0.00  0.00    +0.000 A 
ATOM     17  C   UNL     1     104.193 123.899  80.926  0.00  0.00    +0.000 A 
ENDBRANCH   2  12
TORSDOF 3
ENDMDL
