MODEL 1
REMARK VINA RESULT:      -4.7      0.000      0.000
REMARK  Name = *****
REMARK  6 active torsions:
REMARK  status: ('A' for Active; 'I' for Inactive)
REMARK    1  A    between atoms: C_1  and  C_2
REMARK    2  A    between atoms: C_4  and  C_8
REMARK    3  A    between atoms: C_9  and  C_10
REMARK    4  A    between atoms: C_15  and  N_16
REMARK    5  A    between atoms: N_16  and  C_17
REMARK    6  A    between atoms: N_16  and  C_18
REMARK                            x       y       z     vdW  Elec       q    Type
REMARK                         _______ _______ _______ _____ _____    ______ ____
ROOT
ATOM      1  C   UNL     1     102.821 125.683  81.582  0.00  0.00    +0.000 C 
ATOM      2  C   UNL     1     101.928 126.281  82.119  0.00  0.00    +0.000 C 
ENDROOT
BRANCH   1   6
ATOM      3  C   UNL     1     105.613 121.601  81.096  0.00  0.00    +0.000 C 
ATOM      4  C   UNL     1     105.267 123.003  80.689  0.00  0.00    +0.000 A 
ATOM      5  C   UNL     1     104.226 123.690  81.327  0.00  0.00    +0.000 A 
ATOM      6  C   UNL     1     103.882 124.984  80.926  0.00  0.00    +0.000 A 
ATOM      7  C   UNL     1     104.571 125.595  79.877  0.00  0.00    +0.000 A 
ATOM      8  C   UNL     1     105.599 124.912  79.228  0.00  0.00    +0.000 A 
ATOM      9  C   UNL     1     105.942 123.620  79.628  0.00  0.00    +0.000 A 
ENDBRANCH   1   6
BRANCH   2  10
ATOM     10  C   UNL     1     100.857 127.002  82.749  0.00  0.00    +0.000 A 
ATOM     11  C   UNL     1      99.553 126.767  82.291  0.00  0.00    +0.000 A 
ATOM     12  C   UNL     1      98.471 127.417  82.878  0.00  0.00    +0.000 A 
ATOM     13  C   UNL     1      98.686 128.304  83.927  0.00  0.00    +0.000 A 
ATOM     14  C   UNL     1      99.984 128.543  84.390  0.00  0.00    +0.000 A 
ATOM     15  C   UNL     1     101.098 127.901  83.817  0.00  0.00    +0.000 A 
BRANCH  15  16
ATOM     16  N   UNL     1     102.416 128.152  84.268  0.00  0.00    +0.000 N 
ATOM     17  C   UNL     1     102.792 127.546  85.544  0.00  0.00    +0.000 C 
ATOM     18  C   UNL     1     102.766 129.569  84.143  0.00  0.00    +0.000 C 
ENDBRANCH  15  16
ENDBRANCH   2  10
TORSDOF 3
ENDMDL
