MODEL 1
REMARK VINA RESULT:      -4.2      0.000      0.000
REMARK  Name = *****
REMARK  3 active torsions:
REMARK  status: ('A' for Active; 'I' for Inactive)
REMARK    1  A    between atoms: C_3  and  S_8
REMARK    2  A    between atoms: S_8  and  S_9
REMARK    3  A    between atoms: S_9  and  C_10
REMARK                            x       y       z     vdW  Elec       q    Type
REMARK                         _______ _______ _______ _____ _____    ______ ____
ROOT
ATOM      1  S   UNL     1     103.046 127.921  83.048  0.00  0.00    +0.000 S 
ENDROOT
BRANCH   1   4
ATOM      2  C   UNL     1      99.109 128.797  83.559  0.00  0.00    +0.000 A 
ATOM      3  C   UNL     1     100.503 128.865  83.577  0.00  0.00    +0.000 A 
ATOM      4  C   UNL     1     101.266 127.827  83.022  0.00  0.00    +0.000 A 
ATOM      5  C   UNL     1     100.619 126.730  82.441  0.00  0.00    +0.000 A 
ATOM      6  C   UNL     1      99.224 126.664  82.422  0.00  0.00    +0.000 A 
ATOM      7  C   UNL     1      98.482 127.698  82.983  0.00  0.00    +0.000 A 
ATOM      8  F   UNL     1      97.146 127.635  82.967  0.00  0.00    +0.000 F 
ENDBRANCH   1   4
BRANCH   1   9
ATOM      9  S   UNL     1     103.518 127.392  81.116  0.00  0.00    +0.000 S 
BRANCH   9  10
ATOM     10  C   UNL     1     103.964 125.678  81.312  0.00  0.00    +0.000 A 
ATOM     11  C   UNL     1     104.411 124.939  80.209  0.00  0.00    +0.000 A 
ATOM     12  C   UNL     1     104.762 123.596  80.360  0.00  0.00    +0.000 A 
ATOM     13  C   UNL     1     104.672 123.001  81.612  0.00  0.00    +0.000 A 
ATOM     14  C   UNL     1     104.238 123.722  82.719  0.00  0.00    +0.000 A 
ATOM     15  C   UNL     1     103.884 125.064  82.569  0.00  0.00    +0.000 A 
ATOM     16  F   UNL     1     105.009 121.713  81.756  0.00  0.00    +0.000 F 
ENDBRANCH   9  10
ENDBRANCH   1   9
TORSDOF 3
ENDMDL
