MODEL 1
REMARK VINA RESULT:      -4.5      0.000      0.000
REMARK  Name = *****
REMARK  2 active torsions:
REMARK  status: ('A' for Active; 'I' for Inactive)
REMARK    1  A    between atoms: C_4  and  C_8
REMARK    2  A    between atoms: C_9  and  C_10
REMARK                            x       y       z     vdW  Elec       q    Type
REMARK                         _______ _______ _______ _____ _____    ______ ____
ROOT
ATOM      1  C   UNL     1     103.006 125.338  82.263  0.00  0.00    +0.000 C 
ATOM      2  C   UNL     1     102.104 126.101  82.480  0.00  0.00    +0.000 C 
ENDROOT
BRANCH   1   6
ATOM      3  C   UNL     1     105.097 125.235  79.970  0.00  0.00    +0.000 C 
ATOM      4  C   UNL     1     106.237 124.951  80.950  0.00  0.00    +0.000 C 
ATOM      5  C   UNL     1     105.502 125.050  82.305  0.00  0.00    +0.000 C 
ATOM      6  C   UNL     1     104.115 124.407  81.996  0.00  0.00    +0.000 C 
ATOM      7  C   UNL     1     104.237 124.072  80.485  0.00  0.00    +0.000 C 
ATOM      8  C   UNL     1     105.256 122.960  80.349  0.00  0.00    +0.000 C 
ATOM      9  C   UNL     1     106.456 123.488  80.639  0.00  0.00    +0.000 C 
ENDBRANCH   1   6
BRANCH   2  10
ATOM     10  C   UNL     1     101.036 127.016  82.738  0.00  0.00    +0.000 A 
ATOM     11  C   UNL     1     101.292 128.229  83.382  0.00  0.00    +0.000 A 
ATOM     12  C   UNL     1     100.247 129.121  83.633  0.00  0.00    +0.000 A 
ATOM     13  C   UNL     1      98.947 128.802  83.240  0.00  0.00    +0.000 A 
ATOM     14  C   UNL     1      98.690 127.591  82.597  0.00  0.00    +0.000 A 
ATOM     15  C   UNL     1      99.733 126.698  82.346  0.00  0.00    +0.000 A 
ENDBRANCH   2  10
TORSDOF 2
ENDMDL
