MODEL 1
REMARK VINA RESULT:      -4.5      0.000      0.000
REMARK  Name = *****
REMARK  4 active torsions:
REMARK  status: ('A' for Active; 'I' for Inactive)
REMARK    1  A    between atoms: C_3  and  C_8
REMARK    2  A    between atoms: C_8  and  C_9
REMARK    3  A    between atoms: C_9  and  C_10
REMARK    4  A    between atoms: C_10  and  C_12
REMARK                            x       y       z     vdW  Elec       q    Type
REMARK                         _______ _______ _______ _____ _____    ______ ____
ROOT
ATOM      1  C   UNL     1      89.194  66.229  86.302  0.00  0.00    +0.000 C 
ATOM      2  O   UNL     1      90.376  65.976  86.074  0.00  0.00    +0.000 OA
ENDROOT
BRANCH   1   3
ATOM      3  C   UNL     1      88.836  67.571  86.856  0.00  0.00    +0.000 A 
ATOM      4  C   UNL     1      89.627  68.705  86.639  0.00  0.00    +0.000 A 
ATOM      5  C   UNL     1      89.236  69.928  87.182  0.00  0.00    +0.000 A 
ATOM      6  C   UNL     1      88.073  70.035  87.935  0.00  0.00    +0.000 A 
ATOM      7  C   UNL     1      87.278  68.918  88.158  0.00  0.00    +0.000 A 
ATOM      8  C   UNL     1      87.659  67.686  87.619  0.00  0.00    +0.000 A 
ATOM      9  F   UNL     1      87.709  71.217  88.451  0.00  0.00    +0.000 F 
ATOM     10  F   UNL     1      90.001  71.007  86.970  0.00  0.00    +0.000 F 
ENDBRANCH   1   3
BRANCH   1  11
ATOM     11  C   UNL     1      88.085  65.228  86.038  0.00  0.00    +0.000 C 
BRANCH  11  12
ATOM     12  C   UNL     1      88.328  63.909  86.771  0.00  0.00    +0.000 C 
BRANCH  12  15
ATOM     13  C   UNL     1      86.255  64.420  89.934  0.00  0.00    +0.000 A 
ATOM     14  C   UNL     1      86.614  64.305  88.588  0.00  0.00    +0.000 A 
ATOM     15  C   UNL     1      87.937  64.009  88.225  0.00  0.00    +0.000 A 
ATOM     16  C   UNL     1      88.896  63.840  89.232  0.00  0.00    +0.000 A 
ATOM     17  C   UNL     1      88.526  63.957  90.568  0.00  0.00    +0.000 A 
ATOM     18  C   UNL     1      87.216  64.245  90.928  0.00  0.00    +0.000 A 
ATOM     19  F   UNL     1      89.452  63.793  91.523  0.00  0.00    +0.000 F 
ENDBRANCH  12  15
ENDBRANCH  11  12
ENDBRANCH   1  11
TORSDOF 4
ENDMDL
