MODEL 1
REMARK VINA RESULT:      -4.4      0.000      0.000
REMARK  Name = *****
REMARK  3 active torsions:
REMARK  status: ('A' for Active; 'I' for Inactive)
REMARK    1  A    between atoms: C_1  and  C_2
REMARK    2  A    between atoms: C_9  and  S_11
REMARK    3  A    between atoms: S_11  and  C_12
REMARK                            x       y       z     vdW  Elec       q    Type
REMARK                         _______ _______ _______ _____ _____    ______ ____
ROOT
ATOM      1  C   UNL     1     101.062 129.839  84.586  0.00  0.00    +0.000 C 
ATOM      2  C   UNL     1     101.362 128.658  83.708  0.00  0.00    +0.000 A 
ATOM      3  C   UNL     1     102.675 128.434  83.250  0.00  0.00    +0.000 A 
ATOM      4  C   UNL     1     102.915 127.334  82.415  0.00  0.00    +0.000 A 
ATOM      5  C   UNL     1     101.856 126.515  82.064  0.00  0.00    +0.000 A 
ATOM      6  C   UNL     1     100.543 126.698  82.477  0.00  0.00    +0.000 A 
ATOM      7  C   UNL     1     100.319 127.800  83.312  0.00  0.00    +0.000 A 
ATOM      8  O   UNL     1     102.340 125.530  81.257  0.00  0.00    +0.000 OA
ATOM      9  C   UNL     1     103.681 125.806  81.165  0.00  0.00    +0.000 A 
ATOM     10  N   UNL     1     104.069 126.877  81.835  0.00  0.00    +0.000 NA
ENDROOT
BRANCH   9  11
ATOM     11  S   UNL     1     104.773 124.821  80.231  0.00  0.00    +0.000 S 
BRANCH  11  12
ATOM     12  C   UNL     1     104.675 123.349  81.233  0.00  0.00    +0.000 A 
ATOM     13  C   UNL     1     104.554 123.465  82.622  0.00  0.00    +0.000 A 
ATOM     14  C   UNL     1     104.457 122.322  83.418  0.00  0.00    +0.000 A 
ATOM     15  C   UNL     1     104.474 121.057  82.831  0.00  0.00    +0.000 A 
ATOM     16  C   UNL     1     104.585 120.935  81.446  0.00  0.00    +0.000 A 
ATOM     17  C   UNL     1     104.681 122.077  80.649  0.00  0.00    +0.000 A 
ENDBRANCH  11  12
ENDBRANCH   9  11
TORSDOF 2
ENDMDL
