MODEL 1
REMARK VINA RESULT:      -4.6      0.000      0.000
REMARK  Name = *****
REMARK  5 active torsions:
REMARK  status: ('A' for Active; 'I' for Inactive)
REMARK    1  A    between atoms: C_1  and  C_2
REMARK    2  A    between atoms: C_5  and  C_8
REMARK    3  A    between atoms: C_8  and  C_9
REMARK    4  A    between atoms: C_9  and  C_11
REMARK    5  A    between atoms: C_14  and  C_17
REMARK                            x       y       z     vdW  Elec       q    Type
REMARK                         _______ _______ _______ _____ _____    ______ ____
ROOT
ATOM      1  C   UNL     1      87.336  70.612  88.005  0.00  0.00    +0.000 C 
ATOM      2  O   UNL     1      87.855  70.993  89.054  0.00  0.00    +0.000 OA
ENDROOT
BRANCH   1   3
ATOM      3  C   UNL     1      86.152  71.347  87.460  0.00  0.00    +0.000 A 
ATOM      4  C   UNL     1      85.145  71.875  88.274  0.00  0.00    +0.000 A 
ATOM      5  C   UNL     1      84.060  72.553  87.707  0.00  0.00    +0.000 A 
ATOM      6  C   UNL     1      83.961  72.703  86.318  0.00  0.00    +0.000 A 
ATOM      7  C   UNL     1      84.977  72.191  85.507  0.00  0.00    +0.000 A 
ATOM      8  C   UNL     1      86.061  71.515  86.072  0.00  0.00    +0.000 A 
ATOM      9  C   UNL     1      82.814  73.460  85.715  0.00  0.00    +0.000 C 
ENDBRANCH   1   3
BRANCH   1  10
ATOM     10  C   UNL     1      87.889  69.405  87.267  0.00  0.00    +0.000 C 
BRANCH  10  15
ATOM     11  C   UNL     1      89.464  69.287  82.642  0.00  0.00    +0.000 C 
ATOM     12  C   UNL     1      89.942  69.383  84.090  0.00  0.00    +0.000 C 
ATOM     13  C   UNL     1      89.412  70.662  84.750  0.00  0.00    +0.000 C 
ATOM     14  C   UNL     1      89.811  70.747  86.224  0.00  0.00    +0.000 C 
ATOM     15  C   UNL     1      89.408  69.504  87.036  0.00  0.00    +0.000 C 
ATOM     16  C   UNL     1      89.943  68.237  86.349  0.00  0.00    +0.000 C 
ATOM     17  C   UNL     1      89.527  68.136  84.881  0.00  0.00    +0.000 C 
ENDBRANCH  10  15
ENDBRANCH   1  10
TORSDOF 3
ENDMDL
