MODEL 1
REMARK VINA RESULT:      -5.0      0.000      0.000
REMARK  Name = *****
REMARK  1 active torsions:
REMARK  status: ('A' for Active; 'I' for Inactive)
REMARK    1  A    between atoms: C_2  and  C_12
REMARK                            x       y       z     vdW  Elec       q    Type
REMARK                         _______ _______ _______ _____ _____    ______ ____
ROOT
ATOM      1  C   UNL     1     101.590 125.948  82.195  0.00  0.00    +0.000 C 
ATOM      2  C   UNL     1     103.107 126.240  82.083  0.00  0.00    +0.000 C 
ATOM      3  N   UNL     1     103.591 126.948  83.293  0.00  0.00    +0.000 NA
ATOM      4  C   UNL     1     102.922 128.257  83.415  0.00  0.00    +0.000 C 
ATOM      5  C   UNL     1     101.418 128.213  83.285  0.00  0.00    +0.000 A 
ATOM      6  C   UNL     1     100.648 129.296  83.734  0.00  0.00    +0.000 A 
ATOM      7  C   UNL     1      99.261 129.292  83.581  0.00  0.00    +0.000 A 
ATOM      8  C   UNL     1      98.631 128.209  82.973  0.00  0.00    +0.000 A 
ATOM      9  C   UNL     1      99.387 127.132  82.513  0.00  0.00    +0.000 A 
ATOM     10  C   UNL     1     100.782 127.134  82.653  0.00  0.00    +0.000 A 
ATOM     11 CL   UNL     1     105.357 127.176  83.315  0.00  0.00    +0.000 Cl
ENDROOT
BRANCH   2  12
ATOM     12  C   UNL     1     103.829 124.919  81.811  0.00  0.00    +0.000 A 
ATOM     13  C   UNL     1     104.290 124.625  80.518  0.00  0.00    +0.000 A 
ATOM     14  C   UNL     1     104.940 123.418  80.253  0.00  0.00    +0.000 A 
ATOM     15  C   UNL     1     105.133 122.488  81.272  0.00  0.00    +0.000 A 
ATOM     16  C   UNL     1     104.680 122.766  82.561  0.00  0.00    +0.000 A 
ATOM     17  C   UNL     1     104.033 123.972  82.829  0.00  0.00    +0.000 A 
ENDBRANCH   2  12
TORSDOF 1
ENDMDL
