MODEL 1
REMARK VINA RESULT:      -4.6      0.000      0.000
REMARK  Name = *****
REMARK  3 active torsions:
REMARK  status: ('A' for Active; 'I' for Inactive)
REMARK    1  A    between atoms: C_4  and  C_7
REMARK    2  A    between atoms: C_7  and  O_9
REMARK    3  A    between atoms: O_9  and  C_10
REMARK                            x       y       z     vdW  Elec       q    Type
REMARK                         _______ _______ _______ _____ _____    ______ ____
ROOT
ATOM      1  C   UNL     1      89.868  66.267  86.216  0.00  0.00    +0.000 A 
ATOM      2  C   UNL     1      90.714  65.317  85.648  0.00  0.00    +0.000 A 
ATOM      3  C   UNL     1      90.244  64.032  85.406  0.00  0.00    +0.000 A 
ATOM      4  C   UNL     1      88.936  63.695  85.740  0.00  0.00    +0.000 A 
ATOM      5  C   UNL     1      88.097  64.642  86.320  0.00  0.00    +0.000 A 
ATOM      6  C   UNL     1      88.564  65.927  86.564  0.00  0.00    +0.000 A 
ATOM      7  F   UNL     1      87.762  66.839  87.133  0.00  0.00    +0.000 F 
ATOM      8  F   UNL     1      86.842  64.309  86.654  0.00  0.00    +0.000 F 
ATOM      9  F   UNL     1      88.487  62.453  85.513  0.00  0.00    +0.000 F 
ATOM     10  F   UNL     1      91.054  63.114  84.861  0.00  0.00    +0.000 F 
ATOM     11  F   UNL     1      91.977  65.642  85.340  0.00  0.00    +0.000 F 
ENDROOT
BRANCH   1  12
ATOM     12  O   UNL     1      90.340  67.553  86.470  0.00  0.00    +0.000 OA
BRANCH  12  13
ATOM     13  C   UNL     1      89.985  68.422  85.442  0.00  0.00    +0.000 C 
ATOM     14  O   UNL     1      90.173  68.228  84.248  0.00  0.00    +0.000 OA
BRANCH  13  18
ATOM     15  C   UNL     1      87.247  70.876  87.762  0.00  0.00    +0.000 C 
ATOM     16  C   UNL     1      88.698  70.775  88.221  0.00  0.00    +0.000 C 
ATOM     17  C   UNL     1      89.418  69.598  87.569  0.00  0.00    +0.000 C 
ATOM     18  C   UNL     1      89.312  69.646  86.041  0.00  0.00    +0.000 C 
ATOM     19  C   UNL     1      87.849  69.741  85.592  0.00  0.00    +0.000 C 
ATOM     20  C   UNL     1      87.139  70.926  86.241  0.00  0.00    +0.000 C 
ENDBRANCH  13  18
ENDBRANCH  12  13
ENDBRANCH   1  12
TORSDOF 3
ENDMDL
