MODEL 1
REMARK VINA RESULT:      -5.1      0.000      0.000
REMARK  Name = *****
REMARK  4 active torsions:
REMARK  status: ('A' for Active; 'I' for Inactive)
REMARK    1  A    between atoms: C_1  and  C_2
REMARK    2  A    between atoms: C_2  and  C_4
REMARK    3  A    between atoms: C_8  and  C_10
REMARK    4  A    between atoms: C_11  and  C_12
REMARK                            x       y       z     vdW  Elec       q    Type
REMARK                         _______ _______ _______ _____ _____    ______ ____
ROOT
ATOM      1  C   UNL     1     105.016 123.085  81.227  0.00  0.00    +0.000 A 
ATOM      2  C   UNL     1     105.838 123.309  80.117  0.00  0.00    +0.000 A 
ATOM      3  C   UNL     1     105.681 124.467  79.355  0.00  0.00    +0.000 A 
ATOM      4  C   UNL     1     104.700 125.403  79.692  0.00  0.00    +0.000 A 
ATOM      5  C   UNL     1     103.859 125.188  80.789  0.00  0.00    +0.000 A 
ATOM      6  C   UNL     1     104.035 124.032  81.561  0.00  0.00    +0.000 A 
ENDROOT
BRANCH   1   8
ATOM      7  C   UNL     1     104.588 120.561  81.580  0.00  0.00    +0.000 C 
ATOM      8  C   UNL     1     105.146 121.867  82.081  0.00  0.00    +0.000 C 
ATOM      9  O   UNL     1     105.700 121.942  83.176  0.00  0.00    +0.000 OA
ENDBRANCH   1   8
BRANCH   5  10
ATOM     10  C   UNL     1     102.837 126.164  81.193  0.00  0.00    +0.000 C 
ATOM     11  C   UNL     1     102.051 126.012  82.270  0.00  0.00    +0.000 C 
BRANCH  11  12
ATOM     12  C   UNL     1     101.024 126.992  82.666  0.00  0.00    +0.000 A 
ATOM     13  C   UNL     1      99.676 126.752  82.348  0.00  0.00    +0.000 A 
ATOM     14  C   UNL     1      98.684 127.676  82.685  0.00  0.00    +0.000 A 
ATOM     15  C   UNL     1      99.024 128.859  83.335  0.00  0.00    +0.000 A 
ATOM     16  C   UNL     1     100.357 129.121  83.646  0.00  0.00    +0.000 A 
ATOM     17  C   UNL     1     101.353 128.197  83.310  0.00  0.00    +0.000 A 
ATOM     18 CL   UNL     1     102.984 128.593  83.738  0.00  0.00    +0.000 Cl
ENDBRANCH  11  12
ENDBRANCH   5  10
TORSDOF 3
ENDMDL
