REMARK  Name = *****
REMARK  5 active torsions:
REMARK  status: ('A' for Active; 'I' for Inactive)
REMARK    1  A    between atoms: C_1  and  C_2
REMARK    2  A    between atoms: C_2  and  O_4
REMARK    3  A    between atoms: O_4  and  C_5
REMARK    4  A    between atoms: C_8  and  C_11
REMARK    5  A    between atoms: C_12  and  C_13
REMARK                            x       y       z     vdW  Elec       q    Type
REMARK                         _______ _______ _______ _____ _____    ______ ____
ROOT
ATOM      1  C   UNL     1       4.765  -1.097  -0.548  0.00  0.00    +0.000 A 
ATOM      2  C   UNL     1       5.296  -0.413   0.543  0.00  0.00    +0.000 A 
ATOM      3  C   UNL     1       6.678  -0.226   0.628  0.00  0.00    +0.000 A 
ATOM      4  C   UNL     1       7.528  -0.723  -0.371  0.00  0.00    +0.000 A 
ATOM      5  C   UNL     1       6.974  -1.440  -1.442  0.00  0.00    +0.000 A 
ATOM      6  C   UNL     1       5.594  -1.633  -1.531  0.00  0.00    +0.000 A 
ENDROOT
BRANCH   4   7
ATOM      7  C   UNL     1       8.978  -0.529  -0.231  0.00  0.00    +0.000 C 
ATOM      8  C   UNL     1       9.785  -0.214  -1.257  0.00  0.00    +0.000 C 
BRANCH   8   9
ATOM      9  C   UNL     1      11.237  -0.019  -1.131  0.00  0.00    +0.000 A 
ATOM     10  C   UNL     1      11.818   0.603  -0.019  0.00  0.00    +0.000 A 
ATOM     11  C   UNL     1      13.201   0.796   0.047  0.00  0.00    +0.000 A 
ATOM     12  C   UNL     1      14.015   0.380  -1.004  0.00  0.00    +0.000 A 
ATOM     13  C   UNL     1      13.448  -0.225  -2.123  0.00  0.00    +0.000 A 
ATOM     14  C   UNL     1      12.065  -0.418  -2.189  0.00  0.00    +0.000 A 
ENDBRANCH   8   9
ENDBRANCH   4   7
BRANCH   1  15
ATOM     15  O   UNL     1       3.383  -1.314  -0.565  0.00  0.00    +0.000 OA
BRANCH  15  17
ATOM     16  C   UNL     1       1.247  -1.112  -1.522  0.00  0.00    +0.000 C 
ATOM     17  C   UNL     1       2.704  -0.777  -1.653  0.00  0.00    +0.000 C 
ATOM     18  O   UNL     1       3.179  -0.129  -2.575  0.00  0.00    +0.000 OA
ENDBRANCH  15  17
ENDBRANCH   1  15
TORSDOF 4
