MODEL 1
REMARK VINA RESULT:      -4.2      0.000      0.000
REMARK  Name = *****
REMARK  3 active torsions:
REMARK  status: ('A' for Active; 'I' for Inactive)
REMARK    1  A    between atoms: C_4  and  S_7
REMARK    2  A    between atoms: S_7  and  S_8
REMARK    3  A    between atoms: S_8  and  C_10
REMARK                            x       y       z     vdW  Elec       q    Type
REMARK                         _______ _______ _______ _____ _____    ______ ____
ROOT
ATOM      1  S   UNL     1     103.166 127.464  82.929  0.00  0.00    +0.000 S 
ATOM      2  O   UNL     1     103.714 128.850  82.744  0.00  0.00    +0.000 OA
ENDROOT
BRANCH   1   3
ATOM      3  C   UNL     1     101.366 127.645  82.969  0.00  0.00    +0.000 A 
ATOM      4  C   UNL     1     100.794 128.786  83.547  0.00  0.00    +0.000 A 
ATOM      5  C   UNL     1      99.407 128.945  83.571  0.00  0.00    +0.000 A 
ATOM      6  C   UNL     1      98.584 127.968  83.011  0.00  0.00    +0.000 A 
ATOM      7  C   UNL     1      99.145 126.833  82.426  0.00  0.00    +0.000 A 
ATOM      8  C   UNL     1     100.532 126.672  82.404  0.00  0.00    +0.000 A 
ENDBRANCH   1   3
BRANCH   1   9
ATOM      9  S   UNL     1     103.419 126.741  81.049  0.00  0.00    +0.000 S 
BRANCH   9  13
ATOM     10  C   UNL     1     104.814 122.452  81.865  0.00  0.00    +0.000 A 
ATOM     11  C   UNL     1     104.904 122.987  80.581  0.00  0.00    +0.000 A 
ATOM     12  C   UNL     1     104.475 124.294  80.336  0.00  0.00    +0.000 A 
ATOM     13  C   UNL     1     103.945 125.068  81.373  0.00  0.00    +0.000 A 
ATOM     14  C   UNL     1     103.866 124.528  82.662  0.00  0.00    +0.000 A 
ATOM     15  C   UNL     1     104.296 123.222  82.905  0.00  0.00    +0.000 A 
ENDBRANCH   9  13
ENDBRANCH   1   9
TORSDOF 3
ENDMDL
