MODEL 1
REMARK VINA RESULT:      -4.5      0.000      0.000
REMARK  Name = *****
REMARK  3 active torsions:
REMARK  status: ('A' for Active; 'I' for Inactive)
REMARK    1  A    between atoms: C_4  and  C_8
REMARK    2  A    between atoms: C_8  and  O_10
REMARK    3  A    between atoms: O_10  and  C_11
REMARK                            x       y       z     vdW  Elec       q    Type
REMARK                         _______ _______ _______ _____ _____    ______ ____
ROOT
ATOM      1  C   UNL     1     102.480 125.399  82.819  0.00  0.00    +0.000 C 
ATOM      2  O   UNL     1     102.426 125.260  84.036  0.00  0.00    +0.000 OA
ENDROOT
BRANCH   1   6
ATOM      3  C   UNL     1     105.753 125.762  81.005  0.00  0.00    +0.000 C 
ATOM      4  C   UNL     1     104.649 126.332  80.114  0.00  0.00    +0.000 C 
ATOM      5  C   UNL     1     103.474 125.384  80.436  0.00  0.00    +0.000 C 
ATOM      6  C   UNL     1     103.688 125.078  81.949  0.00  0.00    +0.000 C 
ATOM      7  C   UNL     1     104.934 125.937  82.291  0.00  0.00    +0.000 C 
ATOM      8  C   UNL     1     104.599 127.406  82.149  0.00  0.00    +0.000 C 
ATOM      9  C   UNL     1     104.410 127.636  80.841  0.00  0.00    +0.000 C 
ATOM     10  F   UNL     1     104.040 123.757  82.065  0.00  0.00    +0.000 F 
ENDBRANCH   1   6
BRANCH   1  11
ATOM     11  O   UNL     1     101.476 125.938  82.011  0.00  0.00    +0.000 OA
BRANCH  11  12
ATOM     12  C   UNL     1     100.653 126.930  82.566  0.00  0.00    +0.000 A 
ATOM     13  C   UNL     1     101.290 128.025  83.146  0.00  0.00    +0.000 A 
ATOM     14  C   UNL     1     100.522 129.071  83.659  0.00  0.00    +0.000 A 
ATOM     15  C   UNL     1      99.130 129.020  83.578  0.00  0.00    +0.000 A 
ATOM     16  C   UNL     1      98.501 127.927  82.976  0.00  0.00    +0.000 A 
ATOM     17  C   UNL     1      99.264 126.879  82.459  0.00  0.00    +0.000 A 
ENDBRANCH  11  12
ENDBRANCH   1  11
TORSDOF 3
ENDMDL
