MODEL 1
REMARK VINA RESULT:      -3.6      0.000      0.000
REMARK  Name = *****
REMARK  4 active torsions:
REMARK  status: ('A' for Active; 'I' for Inactive)
REMARK    1  A    between atoms: C_3  and  C_5
REMARK    2  A    between atoms: C_5  and  C_6
REMARK    3  A    between atoms: C_6  and  C_7
REMARK    4  A    between atoms: C_7  and  C_8
REMARK                            x       y       z     vdW  Elec       q    Type
REMARK                         _______ _______ _______ _____ _____    ______ ____
ROOT
ATOM      1  C   UNL     1      89.053  70.527  88.338  0.00  0.00    +0.000 C 
ENDROOT
BRANCH   1   2
ATOM      2  C   UNL     1      89.363  70.022  86.950  0.00  0.00    +0.000 A 
ATOM      3  C   UNL     1      89.415  68.646  86.690  0.00  0.00    +0.000 A 
ATOM      4  C   UNL     1      89.719  68.179  85.410  0.00  0.00    +0.000 A 
ATOM      5  C   UNL     1      89.977  69.083  84.381  0.00  0.00    +0.000 A 
ATOM      6  C   UNL     1      89.935  70.454  84.631  0.00  0.00    +0.000 A 
ATOM      7  C   UNL     1      89.632  70.922  85.911  0.00  0.00    +0.000 A 
ENDBRANCH   1   2
BRANCH   1   8
ATOM      8  C   UNL     1      87.615  70.203  88.748  0.00  0.00    +0.000 C 
BRANCH   8   9
ATOM      9  C   UNL     1      86.704  71.421  88.581  0.00  0.00    +0.000 C 
BRANCH   9  12
ATOM     10  C   UNL     1      85.926  71.634  85.627  0.00  0.00    +0.000 C 
ATOM     11  C   UNL     1      85.888  70.294  86.385  0.00  0.00    +0.000 C 
ATOM     12  C   UNL     1      85.524  71.087  87.667  0.00  0.00    +0.000 C 
ATOM     13  C   UNL     1      85.014  72.213  86.726  0.00  0.00    +0.000 C 
ENDBRANCH   9  12
ENDBRANCH   8   9
ENDBRANCH   1   8
TORSDOF 4
ENDMDL
