MODEL 1
REMARK VINA RESULT:      -4.7      0.000      0.000
REMARK  Name = *****
REMARK  4 active torsions:
REMARK  status: ('A' for Active; 'I' for Inactive)
REMARK    1  A    between atoms: C_6  and  C_7
REMARK    2  A    between atoms: C_7  and  O_8
REMARK    3  A    between atoms: O_8  and  C_9
REMARK    4  A    between atoms: C_9  and  C_11
REMARK                            x       y       z     vdW  Elec       q    Type
REMARK                         _______ _______ _______ _____ _____    ______ ____
ROOT
ATOM      1  O   UNL     1     100.138 126.729  83.269  0.00  0.00    +0.000 OA
ENDROOT
BRANCH   1   2
ATOM      2  C   UNL     1      99.053 127.472  82.941  0.00  0.00    +0.000 C 
ATOM      3  O   UNL     1      98.241 127.207  82.068  0.00  0.00    +0.000 OA
BRANCH   2   4
ATOM      4  C   UNL     1      98.977 128.691  83.791  0.00  0.00    +0.000 A 
ATOM      5  C   UNL     1      99.491 129.929  83.379  0.00  0.00    +0.000 A 
ATOM      6  C   UNL     1      99.392 131.043  84.216  0.00  0.00    +0.000 A 
ATOM      7  C   UNL     1      98.783 130.928  85.465  0.00  0.00    +0.000 A 
ATOM      8  C   UNL     1      98.270 129.700  85.882  0.00  0.00    +0.000 A 
ATOM      9  C   UNL     1      98.367 128.585  85.048  0.00  0.00    +0.000 A 
ENDBRANCH   2   4
ENDBRANCH   1   2
BRANCH   1  10
ATOM     10  C   UNL     1     100.931 126.260  82.160  0.00  0.00    +0.000 C 
BRANCH  10  16
ATOM     11  C   UNL     1     103.084 127.079  81.086  0.00  0.00    +0.000 C 
ATOM     12  C   UNL     1     103.733 126.026  80.229  0.00  0.00    +0.000 C 
ATOM     13  C   UNL     1     104.090 124.832  80.725  0.00  0.00    +0.000 C 
ATOM     14  C   UNL     1     103.881 124.512  82.114  0.00  0.00    +0.000 C 
ATOM     15  C   UNL     1     103.113 125.283  82.898  0.00  0.00    +0.000 C 
ATOM     16  C   UNL     1     102.431 126.537  82.383  0.00  0.00    +0.000 C 
ENDBRANCH  10  16
ENDBRANCH   1  10
TORSDOF 4
ENDMDL
