MODEL 1
REMARK VINA RESULT:      -3.8      0.000      0.000
REMARK  Name = *****
REMARK  3 active torsions:
REMARK  status: ('A' for Active; 'I' for Inactive)
REMARK    1  A    between atoms: C_4  and  C_6
REMARK    2  A    between atoms: C_6  and  S_8
REMARK    3  A    between atoms: S_8  and  C_9
REMARK                            x       y       z     vdW  Elec       q    Type
REMARK                         _______ _______ _______ _____ _____    ______ ____
ROOT
ATOM      1  S   UNL     1     103.996 127.485  82.289  0.00  0.00    +0.000 S 
ENDROOT
BRANCH   1   2
ATOM      2  C   UNL     1     102.256 127.556  82.659  0.00  0.00    +0.000 A 
ATOM      3  C   UNL     1     101.400 126.545  82.207  0.00  0.00    +0.000 A 
ATOM      4  C   UNL     1     100.037 126.588  82.512  0.00  0.00    +0.000 A 
ATOM      5  C   UNL     1      99.531 127.638  83.276  0.00  0.00    +0.000 A 
ATOM      6  C   UNL     1     100.377 128.644  83.739  0.00  0.00    +0.000 A 
ATOM      7  C   UNL     1     101.740 128.601  83.432  0.00  0.00    +0.000 A 
ATOM      8 CL   UNL     1      97.854 127.690  83.655  0.00  0.00    +0.000 Cl
ENDBRANCH   1   2
BRANCH   1   9
ATOM      9  C   UNL     1     103.983 126.931  80.604  0.00  0.00    +0.000 C 
ATOM     10  O   UNL     1     103.551 127.650  79.710  0.00  0.00    +0.000 OA
BRANCH   9  14
ATOM     11  C   UNL     1     104.925 123.276  80.442  0.00  0.00    +0.000 A 
ATOM     12  C   UNL     1     105.977 123.718  79.676  0.00  0.00    +0.000 A 
ATOM     13  S   UNL     1     105.953 125.412  79.474  0.00  0.00    +0.000 S 
ATOM     14  C   UNL     1     104.520 125.587  80.417  0.00  0.00    +0.000 A 
ATOM     15  C   UNL     1     104.087 124.350  80.868  0.00  0.00    +0.000 A 
ENDBRANCH   9  14
ENDBRANCH   1   9
TORSDOF 3
ENDMDL
