MODEL 1
REMARK VINA RESULT:      -3.8      0.000      0.000
REMARK  Name = *****
REMARK  6 active torsions:
REMARK  status: ('A' for Active; 'I' for Inactive)
REMARK    1  A    between atoms: C_1  and  C_2
REMARK    2  A    between atoms: N_4  and  C_9
REMARK    3  A    between atoms: C_5  and  S_7
REMARK    4  A    between atoms: S_7  and  C_8
REMARK    5  A    between atoms: C_9  and  C_10
REMARK    6  A    between atoms: C_10  and  C_11
REMARK                            x       y       z     vdW  Elec       q    Type
REMARK                         _______ _______ _______ _____ _____    ______ ____
ROOT
ATOM      1  C   UNL     1      91.289  65.360  85.268  0.00  0.00    +0.000 C 
ATOM      2  C   UNL     1      90.221  66.150  85.940  0.00  0.00    +0.000 C 
ATOM      3  C   UNL     1      90.158  67.503  86.186  0.00  0.00    +0.000 C 
ATOM      4  N   UNL     1      88.995  67.874  86.843  0.00  0.00    +0.000 N 
ATOM      5  C   UNL     1      88.162  66.869  87.111  0.00  0.00    +0.000 C 
ATOM      6  S   UNL     1      88.816  65.387  86.540  0.00  0.00    +0.000 S 
ENDROOT
BRANCH   5   7
ATOM      7  S   UNL     1      86.624  67.057  87.928  0.00  0.00    +0.000 S 
ATOM      8  C   UNL     1      85.862  65.420  87.842  0.00  0.00    +0.000 C 
ENDBRANCH   5   7
BRANCH   4   9
ATOM      9  C   UNL     1      88.683  69.269  87.229  0.00  0.00    +0.000 C 
BRANCH   9  10
ATOM     10  C   UNL     1      88.308  70.216  86.087  0.00  0.00    +0.000 C 
BRANCH  10  11
ATOM     11  C   UNL     1      87.027  70.952  86.384  0.00  0.00    +0.000 A 
ATOM     12  C   UNL     1      86.259  71.488  85.339  0.00  0.00    +0.000 A 
ATOM     13  C   UNL     1      85.086  72.192  85.616  0.00  0.00    +0.000 A 
ATOM     14  C   UNL     1      84.673  72.369  86.934  0.00  0.00    +0.000 A 
ATOM     15  C   UNL     1      85.430  71.841  87.979  0.00  0.00    +0.000 A 
ATOM     16  C   UNL     1      86.604  71.137  87.707  0.00  0.00    +0.000 A 
ENDBRANCH  10  11
ENDBRANCH   9  10
ENDBRANCH   4   9
TORSDOF 4
ENDMDL
