MODEL 1
REMARK VINA RESULT:      -4.8      0.000      0.000
REMARK  Name = *****
REMARK  4 active torsions:
REMARK  status: ('A' for Active; 'I' for Inactive)
REMARK    1  A    between atoms: C_1  and  C_2
REMARK    2  A    between atoms: C_4  and  C_17
REMARK    3  A    between atoms: C_5  and  N_8
REMARK    4  A    between atoms: C_9  and  C_10
REMARK                            x       y       z     vdW  Elec       q    Type
REMARK                         _______ _______ _______ _____ _____    ______ ____
ROOT
ATOM      1  N   UNL     1     101.594 126.205  82.791  0.00  0.00    +0.000 NA
ATOM      2  C   UNL     1     102.866 126.059  83.007  0.00  0.00    +0.000 C 
ENDROOT
BRANCH   1   7
ATOM      3  C   UNL     1      99.434 131.234  84.457  0.00  0.00    +0.000 C 
ATOM      4  C   UNL     1     100.002 129.926  83.989  0.00  0.00    +0.000 A 
ATOM      5  C   UNL     1      99.166 128.952  83.428  0.00  0.00    +0.000 A 
ATOM      6  C   UNL     1      99.678 127.712  83.010  0.00  0.00    +0.000 A 
ATOM      7  C   UNL     1     101.043 127.435  83.191  0.00  0.00    +0.000 A 
ATOM      8  C   UNL     1     101.876 128.410  83.751  0.00  0.00    +0.000 A 
ATOM      9  C   UNL     1     101.360 129.642  84.157  0.00  0.00    +0.000 A 
ATOM     10  C   UNL     1      98.763 126.691  82.397  0.00  0.00    +0.000 C 
ENDBRANCH   1   7
BRANCH   2  11
ATOM     11  C   UNL     1     103.576 124.814  82.641  0.00  0.00    +0.000 A 
ATOM     12  C   UNL     1     103.894 123.894  83.652  0.00  0.00    +0.000 A 
ATOM     13  C   UNL     1     104.565 122.709  83.346  0.00  0.00    +0.000 A 
ATOM     14  C   UNL     1     104.926 122.434  82.029  0.00  0.00    +0.000 A 
ATOM     15  C   UNL     1     104.614 123.344  81.018  0.00  0.00    +0.000 A 
ATOM     16  C   UNL     1     103.941 124.534  81.318  0.00  0.00    +0.000 A 
ATOM     17 CL   UNL     1     103.597 125.598  79.999  0.00  0.00    +0.000 Cl
ENDBRANCH   2  11
TORSDOF 2
ENDMDL
