MODEL 1
REMARK VINA RESULT:      -4.6      0.000      0.000
REMARK  Name = *****
REMARK  3 active torsions:
REMARK  status: ('A' for Active; 'I' for Inactive)
REMARK    1  A    between atoms: C_4  and  C_7
REMARK    2  A    between atoms: C_8  and  C_9
REMARK    3  A    between atoms: C_9  and  C_10
REMARK                            x       y       z     vdW  Elec       q    Type
REMARK                         _______ _______ _______ _____ _____    ______ ____
ROOT
ATOM      1  C   UNL     1      99.338 127.573  82.869  0.00  0.00    +0.000 C 
ATOM      2  C   UNL     1     100.278 126.699  82.478  0.00  0.00    +0.000 C 
ATOM      3  F   UNL     1      98.168 127.548  82.185  0.00  0.00    +0.000 F 
ENDROOT
BRANCH   1   7
ATOM      4  C   UNL     1      98.390 130.852  85.554  0.00  0.00    +0.000 C 
ATOM      5  C   UNL     1      98.336 129.430  86.103  0.00  0.00    +0.000 C 
ATOM      6  C   UNL     1      98.284 128.395  84.981  0.00  0.00    +0.000 C 
ATOM      7  C   UNL     1      99.454 128.566  84.000  0.00  0.00    +0.000 C 
ATOM      8  C   UNL     1      99.495 129.999  83.448  0.00  0.00    +0.000 C 
ATOM      9  C   UNL     1      99.544 131.032  84.573  0.00  0.00    +0.000 C 
ENDBRANCH   1   7
BRANCH   2  10
ATOM     10  C   UNL     1     101.643 126.550  83.085  0.00  0.00    +0.000 C 
BRANCH  10  11
ATOM     11  C   UNL     1     102.700 127.335  82.342  0.00  0.00    +0.000 A 
ATOM     12  C   UNL     1     103.390 128.379  82.976  0.00  0.00    +0.000 A 
ATOM     13  C   UNL     1     104.351 129.115  82.283  0.00  0.00    +0.000 A 
ATOM     14  C   UNL     1     104.629 128.821  80.950  0.00  0.00    +0.000 A 
ATOM     15  C   UNL     1     103.943 127.793  80.306  0.00  0.00    +0.000 A 
ATOM     16  C   UNL     1     102.981 127.054  80.997  0.00  0.00    +0.000 A 
ENDBRANCH  10  11
ENDBRANCH   2  10
TORSDOF 3
ENDMDL
