MODEL 1
REMARK VINA RESULT:      -4.8      0.000      0.000
REMARK  Name = *****
REMARK  4 active torsions:
REMARK  status: ('A' for Active; 'I' for Inactive)
REMARK    1  A    between atoms: C_1  and  C_2
REMARK    2  A    between atoms: C_4  and  C_9
REMARK    3  A    between atoms: C_9  and  O_11
REMARK    4  A    between atoms: O_11  and  C_12
REMARK                            x       y       z     vdW  Elec       q    Type
REMARK                         _______ _______ _______ _____ _____    ______ ____
ROOT
ATOM      1  C   UNL     1      88.794  68.492  86.375  0.00  0.00    +0.000 C 
ATOM      2  O   UNL     1      88.320  68.595  85.256  0.00  0.00    +0.000 OA
ENDROOT
BRANCH   1   6
ATOM      3  C   UNL     1      88.665  71.945  89.988  0.00  0.00    +0.000 C 
ATOM      4  C   UNL     1      88.089  70.724  89.333  0.00  0.00    +0.000 A 
ATOM      5  C   UNL     1      88.679  70.198  88.177  0.00  0.00    +0.000 A 
ATOM      6  C   UNL     1      88.172  69.047  87.577  0.00  0.00    +0.000 A 
ATOM      7  C   UNL     1      87.083  68.400  88.147  0.00  0.00    +0.000 A 
ATOM      8  C   UNL     1      86.491  68.898  89.305  0.00  0.00    +0.000 A 
ATOM      9  C   UNL     1      86.995  70.057  89.902  0.00  0.00    +0.000 A 
ATOM     10  F   UNL     1      86.563  67.301  87.583  0.00  0.00    +0.000 F 
ATOM     11  F   UNL     1      89.755  70.809  87.659  0.00  0.00    +0.000 F 
ENDBRANCH   1   6
BRANCH   1  12
ATOM     12  O   UNL     1      89.990  67.908  86.747  0.00  0.00    +0.000 OA
BRANCH  12  13
ATOM     13  C   UNL     1      90.092  66.580  86.329  0.00  0.00    +0.000 A 
ATOM     14  C   UNL     1      91.161  66.185  85.527  0.00  0.00    +0.000 A 
ATOM     15  C   UNL     1      91.263  64.846  85.166  0.00  0.00    +0.000 A 
ATOM     16  C   UNL     1      90.332  63.910  85.601  0.00  0.00    +0.000 A 
ATOM     17  C   UNL     1      89.287  64.328  86.417  0.00  0.00    +0.000 A 
ATOM     18  C   UNL     1      89.157  65.659  86.795  0.00  0.00    +0.000 A 
ATOM     19  F   UNL     1      88.393  63.431  86.851  0.00  0.00    +0.000 F 
ATOM     20  F   UNL     1      92.281  64.449  84.392  0.00  0.00    +0.000 F 
ENDBRANCH  12  13
ENDBRANCH   1  12
TORSDOF 3
ENDMDL
