MODEL 1
REMARK VINA RESULT:      -4.3      0.000      0.000
REMARK  Name = *****
REMARK  3 active torsions:
REMARK  status: ('A' for Active; 'I' for Inactive)
REMARK    1  A    between atoms: C_4  and  C_8
REMARK    2  A    between atoms: C_8  and  O_10
REMARK    3  A    between atoms: O_10  and  C_11
REMARK                            x       y       z     vdW  Elec       q    Type
REMARK                         _______ _______ _______ _____ _____    ______ ____
ROOT
ATOM      1  C   UNL     1      88.377  64.761  86.395  0.00  0.00    +0.000 C 
ATOM      2  O   UNL     1      87.719  64.308  85.475  0.00  0.00    +0.000 OA
ENDROOT
BRANCH   1   6
ATOM      3  C   UNL     1      88.971  68.934  86.985  0.00  0.00    +0.000 A 
ATOM      4  C   UNL     1      87.772  68.337  87.377  0.00  0.00    +0.000 A 
ATOM      5  C   UNL     1      87.575  66.966  87.189  0.00  0.00    +0.000 A 
ATOM      6  C   UNL     1      88.585  66.193  86.610  0.00  0.00    +0.000 A 
ATOM      7  C   UNL     1      89.788  66.788  86.217  0.00  0.00    +0.000 A 
ATOM      8  C   UNL     1      89.979  68.160  86.407  0.00  0.00    +0.000 A 
ATOM      9 CL   UNL     1      91.077  65.883  85.508  0.00  0.00    +0.000 Cl
ATOM     10 CL   UNL     1      86.074  66.286  87.705  0.00  0.00    +0.000 Cl
ENDBRANCH   1   6
BRANCH   1  11
ATOM     11  O   UNL     1      89.054  64.107  87.402  0.00  0.00    +0.000 OA
BRANCH  11  12
ATOM     12  C   UNL     1      88.193  63.622  88.386  0.00  0.00    +0.000 A 
ATOM     13  C   UNL     1      88.267  64.168  89.668  0.00  0.00    +0.000 A 
ATOM     14  C   UNL     1      87.378  63.723  90.645  0.00  0.00    +0.000 A 
ATOM     15  C   UNL     1      86.428  62.757  90.321  0.00  0.00    +0.000 A 
ATOM     16  C   UNL     1      86.346  62.228  89.036  0.00  0.00    +0.000 A 
ATOM     17  C   UNL     1      87.231  62.667  88.052  0.00  0.00    +0.000 A 
ATOM     18  F   UNL     1      85.573  62.335  91.263  0.00  0.00    +0.000 F 
ENDBRANCH  11  12
ENDBRANCH   1  11
TORSDOF 3
ENDMDL
