MODEL 1
REMARK VINA RESULT:      -4.0      0.000      0.000
REMARK  Name = *****
REMARK  2 active torsions:
REMARK  status: ('A' for Active; 'I' for Inactive)
REMARK    1  A    between atoms: C_4  and  S_7
REMARK    2  A    between atoms: S_7  and  C_8
REMARK                            x       y       z     vdW  Elec       q    Type
REMARK                         _______ _______ _______ _____ _____    ______ ____
ROOT
ATOM      1  S   UNL     1     102.221 125.983  83.949  0.00  0.00    +0.000 S 
ENDROOT
BRANCH   1   5
ATOM      2  C   UNL     1      98.878 129.018  82.871  0.00  0.00    +0.000 C 
ATOM      3  C   UNL     1      98.618 127.561  82.510  0.00  0.00    +0.000 C 
ATOM      4  C   UNL     1      99.897 126.724  82.563  0.00  0.00    +0.000 C 
ATOM      5  C   UNL     1     100.596 126.844  83.923  0.00  0.00    +0.000 C 
ATOM      6  C   UNL     1     100.848 128.318  84.281  0.00  0.00    +0.000 C 
ATOM      7  C   UNL     1      99.562 129.140  84.228  0.00  0.00    +0.000 C 
ENDBRANCH   1   5
BRANCH   1   8
ATOM      8  C   UNL     1     102.642 125.891  82.163  0.00  0.00    +0.000 C 
ATOM      9  C   UNL     1     103.645 124.772  81.864  0.00  0.00    +0.000 C 
ATOM     10  C   UNL     1     104.070 124.780  80.395  0.00  0.00    +0.000 C 
ATOM     11  C   UNL     1     104.611 126.140  79.967  0.00  0.00    +0.000 C 
ATOM     12  C   UNL     1     103.619 127.257  80.270  0.00  0.00    +0.000 C 
ATOM     13  C   UNL     1     103.207 127.256  81.740  0.00  0.00    +0.000 C 
ENDBRANCH   1   8
TORSDOF 2
ENDMDL
