MODEL 1
REMARK VINA RESULT:      -4.2      0.000      0.000
REMARK  Name = *****
REMARK  3 active torsions:
REMARK  status: ('A' for Active; 'I' for Inactive)
REMARK    1  A    between atoms: C_1  and  C_2
REMARK    2  A    between atoms: C_1  and  S_8
REMARK    3  A    between atoms: S_8  and  C_9
REMARK                            x       y       z     vdW  Elec       q    Type
REMARK                         _______ _______ _______ _____ _____    ______ ____
ROOT
ATOM      1  C   UNL     1     102.678 127.345  83.215  0.00  0.00    +0.000 C 
ENDROOT
BRANCH   1   2
ATOM      2  C   UNL     1     101.203 127.630  83.083  0.00  0.00    +0.000 A 
ATOM      3  C   UNL     1     100.662 128.830  83.572  0.00  0.00    +0.000 A 
ATOM      4  C   UNL     1      99.296 129.089  83.456  0.00  0.00    +0.000 A 
ATOM      5  C   UNL     1      98.456 128.153  82.856  0.00  0.00    +0.000 A 
ATOM      6  C   UNL     1      98.980 126.955  82.375  0.00  0.00    +0.000 A 
ATOM      7  C   UNL     1     100.346 126.692  82.490  0.00  0.00    +0.000 A 
ENDBRANCH   1   2
BRANCH   1   8
ATOM      8  S   UNL     1     102.976 125.745  84.039  0.00  0.00    +0.000 S 
BRANCH   8   9
ATOM      9  C   UNL     1     103.685 124.834  82.681  0.00  0.00    +0.000 A 
ATOM     10  C   UNL     1     104.247 123.566  82.863  0.00  0.00    +0.000 A 
ATOM     11  C   UNL     1     104.788 122.871  81.779  0.00  0.00    +0.000 A 
ATOM     12  C   UNL     1     104.761 123.437  80.505  0.00  0.00    +0.000 A 
ATOM     13  C   UNL     1     104.190 124.693  80.313  0.00  0.00    +0.000 A 
ATOM     14  C   UNL     1     103.648 125.387  81.398  0.00  0.00    +0.000 A 
ENDBRANCH   8   9
ENDBRANCH   1   8
TORSDOF 3
ENDMDL
