MODEL 1
REMARK VINA RESULT:      -4.7      0.000      0.000
REMARK  Name = *****
REMARK  4 active torsions:
REMARK  status: ('A' for Active; 'I' for Inactive)
REMARK    1  A    between atoms: C_3  and  C_16
REMARK    2  A    between atoms: C_6  and  C_7
REMARK    3  A    between atoms: C_7  and  O_8
REMARK    4  A    between atoms: O_8  and  C_9
REMARK                            x       y       z     vdW  Elec       q    Type
REMARK                         _______ _______ _______ _____ _____    ______ ____
ROOT
ATOM      1  C   UNL     1     104.127 124.941  80.423  0.00  0.00    +0.000 A 
ATOM      2  C   UNL     1     104.672 123.655  80.381  0.00  0.00    +0.000 A 
ATOM      3  C   UNL     1     104.741 122.870  81.541  0.00  0.00    +0.000 A 
ATOM      4  C   UNL     1     104.261 123.403  82.747  0.00  0.00    +0.000 A 
ATOM      5  C   UNL     1     103.717 124.688  82.789  0.00  0.00    +0.000 A 
ATOM      6  C   UNL     1     103.633 125.463  81.626  0.00  0.00    +0.000 A 
ENDROOT
BRANCH   3   7
ATOM      7  C   UNL     1     105.321 121.478  81.512  0.00  0.00    +0.000 C 
ATOM      8  F   UNL     1     104.422 120.518  81.156  0.00  0.00    +0.000 F 
ATOM      9  F   UNL     1     106.357 121.361  80.635  0.00  0.00    +0.000 F 
ATOM     10  F   UNL     1     105.814 121.094  82.723  0.00  0.00    +0.000 F 
ENDBRANCH   3   7
BRANCH   6  11
ATOM     11  C   UNL     1     103.050 126.857  81.676  0.00  0.00    +0.000 C 
BRANCH  11  12
ATOM     12  O   UNL     1     102.513 127.059  82.982  0.00  0.00    +0.000 OA
BRANCH  12  13
ATOM     13  C   UNL     1     101.194 127.464  82.965  0.00  0.00    +0.000 A 
ATOM     14  N   UNL     1     100.249 126.658  82.435  0.00  0.00    +0.000 NA
ATOM     15  C   UNL     1      98.977 127.110  82.454  0.00  0.00    +0.000 A 
ATOM     16  C   UNL     1      98.607 128.333  82.981  0.00  0.00    +0.000 A 
ATOM     17  C   UNL     1      99.608 129.131  83.515  0.00  0.00    +0.000 A 
ATOM     18  C   UNL     1     100.928 128.702  83.514  0.00  0.00    +0.000 A 
ATOM     19 CL   UNL     1      99.208 130.665  84.186  0.00  0.00    +0.000 Cl
ENDBRANCH  12  13
ENDBRANCH  11  12
ENDBRANCH   6  11
TORSDOF 4
ENDMDL
