MODEL 1
REMARK VINA RESULT:      -4.6      0.000      0.000
REMARK  Name = *****
REMARK  2 active torsions:
REMARK  status: ('A' for Active; 'I' for Inactive)
REMARK    1  A    between atoms: C_6  and  C_7
REMARK    2  A    between atoms: N_8  and  C_9
REMARK                            x       y       z     vdW  Elec       q    Type
REMARK                         _______ _______ _______ _____ _____    ______ ____
ROOT
ATOM      1  C   UNL     1     103.028 125.681  82.483  0.00  0.00    +0.000 C 
ATOM      2  N   UNL     1     101.803 125.869  82.103  0.00  0.00    +0.000 NA
ENDROOT
BRANCH   2   3
ATOM      3  C   UNL     1     101.158 126.993  82.630  0.00  0.00    +0.000 A 
ATOM      4  C   UNL     1     101.898 128.001  83.251  0.00  0.00    +0.000 A 
ATOM      5  C   UNL     1     101.255 129.115  83.798  0.00  0.00    +0.000 A 
ATOM      6  C   UNL     1      99.860 129.218  83.733  0.00  0.00    +0.000 A 
ATOM      7  C   UNL     1      99.117 128.202  83.127  0.00  0.00    +0.000 A 
ATOM      8  C   UNL     1      99.765 127.091  82.583  0.00  0.00    +0.000 A 
ATOM      9 CL   UNL     1      98.998 130.567  84.383  0.00  0.00    +0.000 Cl
ATOM     10 CL   UNL     1     102.239 130.328  84.538  0.00  0.00    +0.000 Cl
ENDBRANCH   2   3
BRANCH   1  16
ATOM     11  C   UNL     1     104.207 123.549  82.922  0.00  0.00    +0.000 A 
ATOM     12  C   UNL     1     104.963 122.459  82.487  0.00  0.00    +0.000 A 
ATOM     13  C   UNL     1     105.328 122.364  81.147  0.00  0.00    +0.000 A 
ATOM     14  C   UNL     1     104.953 123.341  80.231  0.00  0.00    +0.000 A 
ATOM     15  C   UNL     1     104.198 124.433  80.659  0.00  0.00    +0.000 A 
ATOM     16  C   UNL     1     103.826 124.536  82.006  0.00  0.00    +0.000 A 
ATOM     17  F   UNL     1     106.053 121.316  80.735  0.00  0.00    +0.000 F 
ENDBRANCH   1  16
TORSDOF 2
ENDMDL
