MODEL 1
REMARK VINA RESULT:      -4.3      0.000      0.000
REMARK  Name = *****
REMARK  2 active torsions:
REMARK  status: ('A' for Active; 'I' for Inactive)
REMARK    1  A    between atoms: C_6  and  C_7
REMARK    2  A    between atoms: C_8  and  C_9
REMARK                            x       y       z     vdW  Elec       q    Type
REMARK                         _______ _______ _______ _____ _____    ______ ____
ROOT
ATOM      1  C   UNL     1     102.827 125.390  82.101  0.00  0.00    +0.000 C 
ATOM      2  C   UNL     1     101.953 126.167  82.375  0.00  0.00    +0.000 C 
ENDROOT
BRANCH   1   8
ATOM      3  C   UNL     1     104.362 124.401  80.468  0.00  0.00    +0.000 A 
ATOM      4  C   UNL     1     105.378 123.496  80.149  0.00  0.00    +0.000 A 
ATOM      5  C   UNL     1     105.895 122.658  81.137  0.00  0.00    +0.000 A 
ATOM      6  C   UNL     1     105.404 122.716  82.440  0.00  0.00    +0.000 A 
ATOM      7  C   UNL     1     104.389 123.621  82.759  0.00  0.00    +0.000 A 
ATOM      8  C   UNL     1     103.867 124.464  81.774  0.00  0.00    +0.000 A 
ATOM      9 CL   UNL     1     107.145 121.544  80.743  0.00  0.00    +0.000 Cl
ENDBRANCH   1   8
BRANCH   2  10
ATOM     10  C   UNL     1     100.914 127.093  82.701  0.00  0.00    +0.000 A 
ATOM     11  C   UNL     1     101.220 128.289  83.344  0.00  0.00    +0.000 A 
ATOM     12  C   UNL     1     100.179 129.152  83.640  0.00  0.00    +0.000 A 
ATOM     13  N   UNL     1      98.887 128.900  83.339  0.00  0.00    +0.000 NA
ATOM     14  C   UNL     1      98.622 127.731  82.714  0.00  0.00    +0.000 A 
ATOM     15  C   UNL     1      99.592 126.803  82.377  0.00  0.00    +0.000 A 
ENDBRANCH   2  10
TORSDOF 2
ENDMDL
