MODEL 1
REMARK VINA RESULT:      -3.9      0.000      0.000
REMARK  Name = *****
REMARK  7 active torsions:
REMARK  status: ('A' for Active; 'I' for Inactive)
REMARK    1  A    between atoms: C_1  and  C_2
REMARK    2  A    between atoms: N_4  and  P_9
REMARK    3  A    between atoms: C_5  and  N_6
REMARK    4  A    between atoms: N_6  and  C_7
REMARK    5  A    between atoms: P_9  and  C_11
REMARK    6  A    between atoms: P_9  and  O_12
REMARK    7  A    between atoms: O_12  and  C_13
REMARK                            x       y       z     vdW  Elec       q    Type
REMARK                         _______ _______ _______ _____ _____    ______ ____
ROOT
ATOM      1  P   UNL     1      87.327  63.863  85.575  0.00  0.00    +0.000 P 
ATOM      2  S   UNL     1      85.617  64.815  85.719  0.00  0.00    +0.000 S 
ATOM      3  C   UNL     1      87.531  62.951  84.028  0.00  0.00    +0.000 C 
ENDROOT
BRANCH   1   7
ATOM      4  C   UNL     1      89.775  68.251  84.390  0.00  0.00    +0.000 C 
ATOM      5  C   UNL     1      89.720  66.734  84.380  0.00  0.00    +0.000 C 
ATOM      6  C   UNL     1      88.429  66.175  84.963  0.00  0.00    +0.000 C 
ATOM      7  N   UNL     1      88.676  64.797  85.413  0.00  0.00    +0.000 NA
ATOM      8  C   UNL     1      89.994  64.531  85.706  0.00  0.00    +0.000 C 
ATOM      9  S   UNL     1      90.979  66.002  85.442  0.00  0.00    +0.000 S 
BRANCH   8  10
ATOM     10  N   UNL     1      90.719  63.565  86.082  0.00  0.00    +0.000 NA
ATOM     11  C   UNL     1      91.629  62.790  85.291  0.00  0.00    +0.000 C 
ATOM     12  H   UNL     1      90.650  63.316  87.032  0.00  0.00    +0.000 HD
ENDBRANCH   8  10
ENDBRANCH   1   7
BRANCH   1  13
ATOM     13  O   UNL     1      87.564  62.764  86.729  0.00  0.00    +0.000 OA
BRANCH  13  14
ATOM     14  C   UNL     1      87.167  62.794  88.037  0.00  0.00    +0.000 A 
ATOM     15  C   UNL     1      87.782  63.773  88.823  0.00  0.00    +0.000 A 
ATOM     16  C   UNL     1      87.473  63.894  90.179  0.00  0.00    +0.000 A 
ATOM     17  C   UNL     1      86.543  63.037  90.756  0.00  0.00    +0.000 A 
ATOM     18  C   UNL     1      85.921  62.064  89.976  0.00  0.00    +0.000 A 
ATOM     19  C   UNL     1      86.232  61.943  88.618  0.00  0.00    +0.000 A 
ENDBRANCH  13  14
ENDBRANCH   1  13
TORSDOF 4
ENDMDL
