MODEL 1
REMARK VINA RESULT:      -4.8      0.000      0.000
REMARK  Name = *****
REMARK  4 active torsions:
REMARK  status: ('A' for Active; 'I' for Inactive)
REMARK    1  A    between atoms: C_4  and  C_7
REMARK    2  A    between atoms: C_7  and  C_8
REMARK    3  A    between atoms: C_8  and  C_11
REMARK    4  A    between atoms: C_11  and  C_12
REMARK                            x       y       z     vdW  Elec       q    Type
REMARK                         _______ _______ _______ _____ _____    ______ ____
ROOT
ATOM      1  C   UNL     1      88.935  71.576  84.625  0.00  0.00    +0.000 C 
ATOM      2  C   UNL     1      89.137  72.756  84.111  0.00  0.00    +0.000 C 
ATOM      3  O   UNL     1      89.316  73.822  83.651  0.00  0.00    +0.000 OA
ENDROOT
BRANCH   1   4
ATOM      4  C   UNL     1      90.040  70.833  85.334  0.00  0.00    +0.000 C 
BRANCH   4   8
ATOM      5  C   UNL     1      89.527  66.546  85.332  0.00  0.00    +0.000 A 
ATOM      6  C   UNL     1      89.505  67.250  86.534  0.00  0.00    +0.000 A 
ATOM      7  C   UNL     1      89.667  68.636  86.535  0.00  0.00    +0.000 A 
ATOM      8  C   UNL     1      89.852  69.333  85.332  0.00  0.00    +0.000 A 
ATOM      9  C   UNL     1      89.862  68.613  84.128  0.00  0.00    +0.000 A 
ATOM     10  C   UNL     1      89.703  67.226  84.129  0.00  0.00    +0.000 A 
ENDBRANCH   4   8
ENDBRANCH   1   4
BRANCH   1  11
ATOM     11  C   UNL     1      87.589  70.900  84.530  0.00  0.00    +0.000 C 
BRANCH  11  12
ATOM     12  C   UNL     1      86.625  71.354  85.602  0.00  0.00    +0.000 A 
ATOM     13  C   UNL     1      86.899  71.120  86.957  0.00  0.00    +0.000 A 
ATOM     14  C   UNL     1      85.999  71.530  87.941  0.00  0.00    +0.000 A 
ATOM     15  C   UNL     1      84.818  72.177  87.583  0.00  0.00    +0.000 A 
ATOM     16  C   UNL     1      84.533  72.412  86.239  0.00  0.00    +0.000 A 
ATOM     17  C   UNL     1      85.430  72.001  85.253  0.00  0.00    +0.000 A 
ENDBRANCH  11  12
ENDBRANCH   1  11
TORSDOF 4
ENDMDL
