MODEL 1
REMARK VINA RESULT:      -4.2      0.000      0.000
REMARK  Name = *****
REMARK  4 active torsions:
REMARK  status: ('A' for Active; 'I' for Inactive)
REMARK    1  A    between atoms: C_4  and  C_6
REMARK    2  A    between atoms: C_6  and  C_7
REMARK    3  A    between atoms: C_7  and  C_8
REMARK    4  A    between atoms: C_7  and  C_10
REMARK                            x       y       z     vdW  Elec       q    Type
REMARK                         _______ _______ _______ _____ _____    ______ ____
ROOT
ATOM      1  C   UNL     1     103.010 128.100  83.024  0.00  0.00    +0.000 C 
ENDROOT
BRANCH   1   2
ATOM      2  C   UNL     1     101.491 127.945  83.030  0.00  0.00    +0.000 A 
ATOM      3  C   UNL     1     100.898 126.828  82.415  0.00  0.00    +0.000 A 
ATOM      4  C   UNL     1      99.509 126.683  82.395  0.00  0.00    +0.000 A 
ATOM      5  C   UNL     1      98.708 127.651  82.988  0.00  0.00    +0.000 A 
ATOM      6  C   UNL     1      99.270 128.764  83.600  0.00  0.00    +0.000 A 
ATOM      7  C   UNL     1     100.657 128.913  83.622  0.00  0.00    +0.000 A 
ATOM      8  F   UNL     1      97.377 127.512  82.965  0.00  0.00    +0.000 F 
ENDBRANCH   1   2
BRANCH   1   9
ATOM      9  C   UNL     1     103.430 129.386  83.623  0.00  0.00    +0.000 C 
ATOM     10  N   UNL     1     103.763 130.401  84.077  0.00  0.00    +0.000 NA
ENDBRANCH   1   9
BRANCH   1  11
ATOM     11  C   UNL     1     103.552 127.944  81.585  0.00  0.00    +0.000 C 
BRANCH  11  15
ATOM     12  C   UNL     1     103.855 124.554  82.284  0.00  0.00    +0.000 C 
ATOM     13  C   UNL     1     104.067 124.391  80.791  0.00  0.00    +0.000 C 
ATOM     14  C   UNL     1     103.909 125.809  80.263  0.00  0.00    +0.000 C 
ATOM     15  C   UNL     1     104.471 126.727  81.367  0.00  0.00    +0.000 C 
ATOM     16  C   UNL     1     104.619 125.830  82.608  0.00  0.00    +0.000 C 
ENDBRANCH  11  15
ENDBRANCH   1  11
TORSDOF 4
ENDMDL
