MODEL 1
REMARK VINA RESULT:      -5.3      0.000      0.000
REMARK  Name = *****
REMARK  4 active torsions:
REMARK  status: ('A' for Active; 'I' for Inactive)
REMARK    1  A    between atoms: C_3  and  C_11
REMARK    2  A    between atoms: C_5  and  C_7
REMARK    3  A    between atoms: C_11  and  N_12
REMARK    4  A    between atoms: N_12  and  C_13
REMARK                            x       y       z     vdW  Elec       q    Type
REMARK                         _______ _______ _______ _____ _____    ______ ____
ROOT
ATOM      1  C   UNL     1      98.951 127.281  82.472  0.00  0.00    +0.000 A 
ATOM      2  C   UNL     1     100.194 126.670  82.645  0.00  0.00    +0.000 A 
ATOM      3  C   UNL     1     101.234 127.382  83.243  0.00  0.00    +0.000 A 
ATOM      4  C   UNL     1     101.020 128.679  83.719  0.00  0.00    +0.000 A 
ATOM      5  C   UNL     1      99.768 129.294  83.561  0.00  0.00    +0.000 A 
ATOM      6  C   UNL     1      98.741 128.586  82.918  0.00  0.00    +0.000 A 
ENDROOT
BRANCH   5   7
ATOM      7  C   UNL     1      99.542 130.707  84.041  0.00  0.00    +0.000 C 
ATOM      8  F   UNL     1     100.610 131.220  84.713  0.00  0.00    +0.000 F 
ATOM      9  F   UNL     1      99.297 131.566  83.014  0.00  0.00    +0.000 F 
ATOM     10  F   UNL     1      98.481 130.821  84.887  0.00  0.00    +0.000 F 
ENDBRANCH   5   7
BRANCH   3  11
ATOM     11  C   UNL     1     102.552 126.794  83.489  0.00  0.00    +0.000 C 
BRANCH  11  12
ATOM     12  N   UNL     1     102.843 125.525  83.667  0.00  0.00    +0.000 N 
ATOM     13  O   UNL     1     102.512 124.959  84.761  0.00  0.00    +0.000 OA
BRANCH  12  14
ATOM     14  C   UNL     1     103.550 124.746  82.670  0.00  0.00    +0.000 A 
ATOM     15  C   UNL     1     104.151 123.529  83.016  0.00  0.00    +0.000 A 
ATOM     16  C   UNL     1     104.804 122.788  82.031  0.00  0.00    +0.000 A 
ATOM     17  C   UNL     1     104.834 123.259  80.720  0.00  0.00    +0.000 A 
ATOM     18  C   UNL     1     104.214 124.455  80.369  0.00  0.00    +0.000 A 
ATOM     19  C   UNL     1     103.559 125.204  81.346  0.00  0.00    +0.000 A 
ATOM     20  F   UNL     1     105.463 122.544  79.779  0.00  0.00    +0.000 F 
ENDBRANCH  12  14
ENDBRANCH  11  12
ENDBRANCH   3  11
TORSDOF 4
ENDMDL
