MODEL 1
REMARK VINA RESULT:      -4.8      0.000      0.000
REMARK  Name = *****
REMARK  5 active torsions:
REMARK  status: ('A' for Active; 'I' for Inactive)
REMARK    1  A    between atoms: C_1  and  C_2
REMARK    2  A    between atoms: C_2  and  C_3
REMARK    3  A    between atoms: C_2  and  N_9
REMARK    4  A    between atoms: N_9  and  C_10
REMARK    5  A    between atoms: C_10  and  C_12
REMARK                            x       y       z     vdW  Elec       q    Type
REMARK                         _______ _______ _______ _____ _____    ______ ____
ROOT
ATOM      1  N   UNL     1     102.375 125.896  81.188  0.00  0.00    +0.000 N 
ATOM      2  H   UNL     1     101.727 125.310  80.734  0.00  0.00    +0.000 HD
ENDROOT
BRANCH   1   4
ATOM      3  C   UNL     1     104.015 127.728  80.942  0.00  0.00    +0.000 C 
ATOM      4  C   UNL     1     103.460 126.425  80.357  0.00  0.00    +0.000 C 
BRANCH   4   5
ATOM      5  C   UNL     1     104.529 125.356  80.194  0.00  0.00    +0.000 A 
ATOM      6  C   UNL     1     104.301 124.013  80.537  0.00  0.00    +0.000 A 
ATOM      7  C   UNL     1     105.296 123.050  80.350  0.00  0.00    +0.000 A 
ATOM      8  C   UNL     1     106.526 123.413  79.809  0.00  0.00    +0.000 A 
ATOM      9  C   UNL     1     106.764 124.738  79.449  0.00  0.00    +0.000 A 
ATOM     10  C   UNL     1     105.771 125.701  79.635  0.00  0.00    +0.000 A 
ENDBRANCH   4   5
ENDBRANCH   1   4
BRANCH   1  11
ATOM     11  C   UNL     1     102.153 126.125  82.534  0.00  0.00    +0.000 C 
ATOM     12  S   UNL     1     103.025 125.438  83.793  0.00  0.00    +0.000 S 
BRANCH  11  13
ATOM     13  C   UNL     1     101.034 127.072  82.789  0.00  0.00    +0.000 A 
ATOM     14  C   UNL     1      99.743 126.734  82.362  0.00  0.00    +0.000 A 
ATOM     15  C   UNL     1      98.686 127.620  82.577  0.00  0.00    +0.000 A 
ATOM     16  C   UNL     1      98.917 128.841  83.212  0.00  0.00    +0.000 A 
ATOM     17  C   UNL     1     100.203 129.180  83.635  0.00  0.00    +0.000 A 
ATOM     18  C   UNL     1     101.264 128.298  83.424  0.00  0.00    +0.000 A 
ENDBRANCH  11  13
ENDBRANCH   1  11
TORSDOF 4
ENDMDL
