MODEL 1
REMARK VINA RESULT:      -4.4      0.000      0.000
REMARK  Name = *****
REMARK  2 active torsions:
REMARK  status: ('A' for Active; 'I' for Inactive)
REMARK    1  A    between atoms: C_3  and  C_7
REMARK    2  A    between atoms: C_8  and  C_9
REMARK                            x       y       z     vdW  Elec       q    Type
REMARK                         _______ _______ _______ _____ _____    ______ ____
ROOT
ATOM      1  C   UNL     1      97.602 118.372  80.693  0.00  0.00    +0.000 C 
ATOM      2  C   UNL     1      97.994 117.605  79.663  0.00  0.00    +0.000 C 
ENDROOT
BRANCH   1   5
ATOM      3  C   UNL     1      97.906 119.117  83.722  0.00  0.00    +0.000 C 
ATOM      4  C   UNL     1      98.986 119.189  82.638  0.00  0.00    +0.000 C 
ATOM      5  C   UNL     1      98.424 119.519  81.245  0.00  0.00    +0.000 C 
ATOM      6  C   UNL     1      97.604 120.827  81.290  0.00  0.00    +0.000 C 
ATOM      7  C   UNL     1      96.749 120.978  82.517  0.00  0.00    +0.000 C 
ATOM      8  C   UNL     1      96.875 120.201  83.603  0.00  0.00    +0.000 C 
ENDBRANCH   1   5
BRANCH   2   9
ATOM      9  C   UNL     1      97.212 116.487  79.116  0.00  0.00    +0.000 A 
ATOM     10  C   UNL     1      97.235 116.149  77.757  0.00  0.00    +0.000 A 
ATOM     11  C   UNL     1      96.501 115.059  77.281  0.00  0.00    +0.000 A 
ATOM     12  C   UNL     1      95.746 114.288  78.162  0.00  0.00    +0.000 A 
ATOM     13  C   UNL     1      95.727 114.604  79.518  0.00  0.00    +0.000 A 
ATOM     14  C   UNL     1      96.461 115.694  79.993  0.00  0.00    +0.000 A 
ENDBRANCH   2   9
TORSDOF 2
ENDMDL
