MODEL 1
REMARK VINA RESULT:      -4.2      0.000      0.000
REMARK  Name = *****
REMARK  2 active torsions:
REMARK  status: ('A' for Active; 'I' for Inactive)
REMARK    1  A    between atoms: C_4  and  C_6
REMARK    2  A    between atoms: C_9  and  C_11
REMARK                            x       y       z     vdW  Elec       q    Type
REMARK                         _______ _______ _______ _____ _____    ______ ____
ROOT
ATOM      1  C   UNL     1     101.741 126.087  82.886  0.00  0.00    +0.000 A 
ATOM      2  N   UNL     1     102.241 125.446  83.926  0.00  0.00    +0.000 NA
ATOM      3  N   UNL     1     103.270 124.657  83.455  0.00  0.00    +0.000 NA
ATOM      4  C   UNL     1     103.343 124.858  82.152  0.00  0.00    +0.000 A 
ATOM      5  O   UNL     1     102.397 125.758  81.724  0.00  0.00    +0.000 OA
ENDROOT
BRANCH   1   9
ATOM      6  C   UNL     1      98.531 127.965  82.698  0.00  0.00    +0.000 A 
ATOM      7  C   UNL     1      99.177 128.943  83.420  0.00  0.00    +0.000 A 
ATOM      8  S   UNL     1     100.794 128.514  83.775  0.00  0.00    +0.000 S 
ATOM      9  C   UNL     1     100.646 127.011  82.966  0.00  0.00    +0.000 A 
ATOM     10  C   UNL     1      99.380 126.849  82.436  0.00  0.00    +0.000 A 
ENDBRANCH   1   9
BRANCH   4  11
ATOM     11  C   UNL     1     104.295 124.213  81.294  0.00  0.00    +0.000 A 
ATOM     12  C   UNL     1     104.698 122.891  81.342  0.00  0.00    +0.000 A 
ATOM     13  C   UNL     1     105.663 122.577  80.340  0.00  0.00    +0.000 A 
ATOM     14  C   UNL     1     105.966 123.669  79.560  0.00  0.00    +0.000 A 
ATOM     15  S   UNL     1     105.092 125.060  80.035  0.00  0.00    +0.000 S 
ENDBRANCH   4  11
TORSDOF 2
ENDMDL
