REMARK  Name = *****
REMARK  6 active torsions:
REMARK  status: ('A' for Active; 'I' for Inactive)
REMARK    1  A    between atoms: C_1  and  C_2
REMARK    2  A    between atoms: C_2  and  S_3
REMARK    3  A    between atoms: S_3  and  N_4
REMARK    4  A    between atoms: S_3  and  C_12
REMARK    5  A    between atoms: N_4  and  C_5
REMARK    6  A    between atoms: C_15  and  C_18
REMARK                            x       y       z     vdW  Elec       q    Type
REMARK                         _______ _______ _______ _____ _____    ______ ____
ROOT
ATOM      1  S   UNL     1       3.134  -1.177  -1.275  0.00  0.00    +0.000 S 
ATOM      2  O   UNL     1       2.880  -0.634  -2.598  0.00  0.00    +0.000 OA
ENDROOT
BRANCH   1   3
ATOM      3  C   UNL     1       4.918  -1.189  -1.152  0.00  0.00    +0.000 A 
ATOM      4  C   UNL     1       5.622  -0.130  -0.577  0.00  0.00    +0.000 A 
ATOM      5  C   UNL     1       7.015  -0.198  -0.489  0.00  0.00    +0.000 A 
ATOM      6  C   UNL     1       7.708  -1.320  -0.967  0.00  0.00    +0.000 A 
ATOM      7  C   UNL     1       6.991  -2.362  -1.566  0.00  0.00    +0.000 A 
ATOM      8  C   UNL     1       5.600  -2.300  -1.658  0.00  0.00    +0.000 A 
ATOM      9  C   UNL     1       9.206  -1.370  -0.905  0.00  0.00    +0.000 C 
ENDBRANCH   1   3
BRANCH   1  11
ATOM     10  C   UNL     1       1.020   0.087  -0.067  0.00  0.00    +0.000 C 
ATOM     11  C   UNL     1       2.537   0.053  -0.126  0.00  0.00    +0.000 C 
ENDBRANCH   1  11
BRANCH   1  12
ATOM     12  N   UNL     1       2.628  -2.555  -0.810  0.00  0.00    +0.000 NA
BRANCH  12  13
ATOM     13  C   UNL     1       2.835  -3.251   0.418  0.00  0.00    +0.000 A 
ATOM     14  C   UNL     1       3.681  -2.850   1.452  0.00  0.00    +0.000 A 
ATOM     15  C   UNL     1       3.799  -3.623   2.614  0.00  0.00    +0.000 A 
ATOM     16  C   UNL     1       3.072  -4.804   2.749  0.00  0.00    +0.000 A 
ATOM     17  C   UNL     1       2.229  -5.216   1.721  0.00  0.00    +0.000 A 
ATOM     18  C   UNL     1       2.116  -4.441   0.564  0.00  0.00    +0.000 A 
ENDBRANCH  12  13
ENDBRANCH   1  12
TORSDOF 4
