MODEL 1
REMARK VINA RESULT:      -4.3      0.000      0.000
REMARK  Name = *****
REMARK  6 active torsions:
REMARK  status: ('A' for Active; 'I' for Inactive)
REMARK    1  A    between atoms: C_1  and  C_2
REMARK    2  A    between atoms: C_3  and  C_17
REMARK    3  A    between atoms: C_5  and  O_8
REMARK    4  A    between atoms: O_8  and  C_9
REMARK    5  A    between atoms: C_9  and  C_11
REMARK    6  A    between atoms: C_11  and  C_12
REMARK                            x       y       z     vdW  Elec       q    Type
REMARK                         _______ _______ _______ _____ _____    ______ ____
ROOT
ATOM      1  O   UNL     1     100.499 126.498  83.716  0.00  0.00    +0.000 OA
ENDROOT
BRANCH   1   6
ATOM      2  C   UNL     1     105.049 127.802  80.545  0.00  0.00    +0.000 C 
ATOM      3  C   UNL     1     103.852 127.441  81.383  0.00  0.00    +0.000 A 
ATOM      4  C   UNL     1     103.229 126.179  81.269  0.00  0.00    +0.000 A 
ATOM      5  C   UNL     1     102.118 125.887  82.076  0.00  0.00    +0.000 A 
ATOM      6  C   UNL     1     101.647 126.832  82.986  0.00  0.00    +0.000 A 
ATOM      7  C   UNL     1     102.236 128.086  83.088  0.00  0.00    +0.000 A 
ATOM      8  C   UNL     1     103.343 128.384  82.293  0.00  0.00    +0.000 A 
ATOM      9  C   UNL     1     103.730 125.142  80.303  0.00  0.00    +0.000 C 
ENDBRANCH   1   6
BRANCH   1  10
ATOM     10  C   UNL     1      99.285 126.957  83.210  0.00  0.00    +0.000 C 
ATOM     11  O   UNL     1      98.893 126.870  82.053  0.00  0.00    +0.000 OA
BRANCH  10  12
ATOM     12  C   UNL     1      98.503 127.614  84.323  0.00  0.00    +0.000 C 
BRANCH  12  13
ATOM     13  C   UNL     1      98.917 129.045  84.456  0.00  0.00    +0.000 A 
ATOM     14  C   UNL     1      99.263 129.930  83.453  0.00  0.00    +0.000 A 
ATOM     15  C   UNL     1      99.602 131.218  83.961  0.00  0.00    +0.000 A 
ATOM     16  C   UNL     1      99.501 131.274  85.333  0.00  0.00    +0.000 A 
ATOM     17  S   UNL     1      99.002 129.781  86.000  0.00  0.00    +0.000 S 
ENDBRANCH  12  13
ENDBRANCH  10  12
ENDBRANCH   1  10
TORSDOF 4
ENDMDL
