MODEL 1
REMARK VINA RESULT:      -4.6      0.000      0.000
REMARK  Name = *****
REMARK  5 active torsions:
REMARK  status: ('A' for Active; 'I' for Inactive)
REMARK    1  A    between atoms: C_1  and  P_2
REMARK    2  A    between atoms: P_2  and  C_3
REMARK    3  A    between atoms: P_2  and  C_4
REMARK    4  A    between atoms: P_2  and  C_16
REMARK    5  A    between atoms: C_4  and  C_5
REMARK                            x       y       z     vdW  Elec       q    Type
REMARK                         _______ _______ _______ _____ _____    ______ ____
ROOT
ATOM      1  C   UNL     1      88.063  67.870  85.731  0.00  0.00    +0.000 A 
ATOM      2  C   UNL     1      87.221  67.436  86.760  0.00  0.00    +0.000 A 
ATOM      3  C   UNL     1      87.539  66.318  87.526  0.00  0.00    +0.000 A 
ATOM      4  C   UNL     1      88.709  65.615  87.276  0.00  0.00    +0.000 A 
ATOM      5  C   UNL     1      89.559  66.029  86.262  0.00  0.00    +0.000 A 
ATOM      6  C   UNL     1      89.237  67.148  85.498  0.00  0.00    +0.000 A 
ATOM      7  F   UNL     1      90.072  67.539  84.524  0.00  0.00    +0.000 F 
ATOM      8  F   UNL     1      90.691  65.356  86.018  0.00  0.00    +0.000 F 
ATOM      9  F   UNL     1      89.017  64.539  88.014  0.00  0.00    +0.000 F 
ATOM     10  F   UNL     1      86.715  65.923  88.507  0.00  0.00    +0.000 F 
ATOM     11  F   UNL     1      86.089  68.107  87.016  0.00  0.00    +0.000 F 
ENDROOT
BRANCH   1  12
ATOM     12  C   UNL     1      87.726  69.088  84.914  0.00  0.00    +0.000 C 
BRANCH  12  14
ATOM     13  C   UNL     1      89.429  70.557  86.703  0.00  0.00    +0.000 C 
ATOM     14  P   UNL     1      88.003  70.698  85.646  0.00  0.00    +0.000 P 
ATOM     15  C   UNL     1      88.482  71.798  84.329  0.00  0.00    +0.000 C 
BRANCH  14  16
ATOM     16  C   UNL     1      86.620  71.323  86.522  0.00  0.00    +0.000 A 
ATOM     17  C   UNL     1      86.598  71.249  87.920  0.00  0.00    +0.000 A 
ATOM     18  C   UNL     1      85.512  71.739  88.649  0.00  0.00    +0.000 A 
ATOM     19  C   UNL     1      84.430  72.310  87.984  0.00  0.00    +0.000 A 
ATOM     20  C   UNL     1      84.438  72.391  86.595  0.00  0.00    +0.000 A 
ATOM     21  C   UNL     1      85.526  71.900  85.869  0.00  0.00    +0.000 A 
ENDBRANCH  14  16
ENDBRANCH  12  14
ENDBRANCH   1  12
TORSDOF 3
ENDMDL
