MODEL 1
REMARK VINA RESULT:      -4.8      0.000      0.000
REMARK  Name = *****
REMARK  4 active torsions:
REMARK  status: ('A' for Active; 'I' for Inactive)
REMARK    1  A    between atoms: C_4  and  C_7
REMARK    2  A    between atoms: C_8  and  C_9
REMARK    3  A    between atoms: C_14  and  C_15
REMARK    4  A    between atoms: C_15  and  C_16
REMARK                            x       y       z     vdW  Elec       q    Type
REMARK                         _______ _______ _______ _____ _____    ______ ____
ROOT
ATOM      1  C   UNL     1     101.048 127.069  82.551  0.00  0.00    +0.000 A 
ATOM      2  C   UNL     1      99.713 126.735  82.292  0.00  0.00    +0.000 A 
ATOM      3  C   UNL     1      98.677 127.506  82.819  0.00  0.00    +0.000 A 
ATOM      4  C   UNL     1      98.970 128.619  83.603  0.00  0.00    +0.000 A 
ATOM      5  C   UNL     1     100.298 128.958  83.866  0.00  0.00    +0.000 A 
ATOM      6  C   UNL     1     101.354 128.187  83.350  0.00  0.00    +0.000 A 
ENDROOT
BRANCH   1   8
ATOM      7  C   UNL     1     102.954 125.603  81.477  0.00  0.00    +0.000 C 
ATOM      8  C   UNL     1     102.079 126.257  81.977  0.00  0.00    +0.000 C 
BRANCH   7  12
ATOM      9  C   UNL     1     106.068 123.400  79.667  0.00  0.00    +0.000 A 
ATOM     10  C   UNL     1     105.787 124.696  79.234  0.00  0.00    +0.000 A 
ATOM     11  C   UNL     1     104.756 125.423  79.832  0.00  0.00    +0.000 A 
ATOM     12  C   UNL     1     104.006 124.853  80.864  0.00  0.00    +0.000 A 
ATOM     13  C   UNL     1     104.288 123.556  81.296  0.00  0.00    +0.000 A 
ATOM     14  C   UNL     1     105.319 122.829  80.696  0.00  0.00    +0.000 A 
ENDBRANCH   7  12
ENDBRANCH   1   8
BRANCH   6  15
ATOM     15  C   UNL     1     102.783 128.586  83.652  0.00  0.00    +0.000 C 
BRANCH  15  16
ATOM     16  C   UNL     1     102.903 129.959  84.167  0.00  0.00    +0.000 C 
ATOM     17  N   UNL     1     102.996 131.053  84.547  0.00  0.00    +0.000 NA
ENDBRANCH  15  16
ENDBRANCH   6  15
TORSDOF 4
ENDMDL
