MODEL 1
REMARK VINA RESULT:      -4.5      0.000      0.000
REMARK  Name = *****
REMARK  5 active torsions:
REMARK  status: ('A' for Active; 'I' for Inactive)
REMARK    1  A    between atoms: C_1  and  C_2
REMARK    2  A    between atoms: C_3  and  N_9
REMARK    3  A    between atoms: C_4  and  C_8
REMARK    4  A    between atoms: N_9  and  C_10
REMARK    5  A    between atoms: C_10  and  C_12
REMARK                            x       y       z     vdW  Elec       q    Type
REMARK                         _______ _______ _______ _____ _____    ______ ____
ROOT
ATOM      1  N   UNL     1      89.157  65.176  87.372  0.00  0.00    +0.000 N 
ATOM      2  H   UNL     1      89.769  65.088  88.139  0.00  0.00    +0.000 HD
ENDROOT
BRANCH   1   5
ATOM      3  C   UNL     1      87.117  67.221  88.190  0.00  0.00    +0.000 C 
ATOM      4  C   UNL     1      88.132  67.407  87.095  0.00  0.00    +0.000 A 
ATOM      5  C   UNL     1      89.105  66.445  86.750  0.00  0.00    +0.000 A 
ATOM      6  C   UNL     1      90.128  66.775  85.833  0.00  0.00    +0.000 A 
ATOM      7  C   UNL     1      90.114  68.030  85.206  0.00  0.00    +0.000 A 
ATOM      8  C   UNL     1      89.114  68.954  85.491  0.00  0.00    +0.000 A 
ATOM      9  C   UNL     1      88.134  68.645  86.430  0.00  0.00    +0.000 A 
ATOM     10  C   UNL     1      91.214  65.799  85.466  0.00  0.00    +0.000 C 
ENDBRANCH   1   5
BRANCH   1  11
ATOM     11  C   UNL     1      88.437  64.037  87.019  0.00  0.00    +0.000 C 
ATOM     12  S   UNL     1      88.421  63.249  85.535  0.00  0.00    +0.000 S 
BRANCH  11  13
ATOM     13  C   UNL     1      87.696  63.460  88.173  0.00  0.00    +0.000 A 
ATOM     14  C   UNL     1      86.809  62.398  87.969  0.00  0.00    +0.000 A 
ATOM     15  C   UNL     1      86.097  61.878  89.050  0.00  0.00    +0.000 A 
ATOM     16  C   UNL     1      86.269  62.420  90.325  0.00  0.00    +0.000 A 
ATOM     17  C   UNL     1      87.153  63.481  90.527  0.00  0.00    +0.000 A 
ATOM     18  C   UNL     1      87.870  64.006  89.451  0.00  0.00    +0.000 A 
ENDBRANCH  11  13
ENDBRANCH   1  11
TORSDOF 3
ENDMDL
