MODEL 1
REMARK VINA RESULT:      -4.3      0.000      0.000
REMARK  Name = *****
REMARK  5 active torsions:
REMARK  status: ('A' for Active; 'I' for Inactive)
REMARK    1  A    between atoms: C_1  and  C_2
REMARK    2  A    between atoms: C_2  and  C_3
REMARK    3  A    between atoms: C_2  and  N_8
REMARK    4  A    between atoms: N_8  and  C_9
REMARK    5  A    between atoms: N_8  and  C_10
REMARK                            x       y       z     vdW  Elec       q    Type
REMARK                         _______ _______ _______ _____ _____    ______ ____
ROOT
ATOM      1  N   UNL     1      87.976  64.936  87.933  0.00  0.00    +0.000 N 
ATOM      2  C   UNL     1      87.135  66.072  88.300  0.00  0.00    +0.000 C 
ENDROOT
BRANCH   1   3
ATOM      3  C   UNL     1      89.017  65.125  87.020  0.00  0.00    +0.000 A 
ATOM      4  C   UNL     1      89.645  64.048  86.367  0.00  0.00    +0.000 A 
ATOM      5  C   UNL     1      90.695  64.248  85.463  0.00  0.00    +0.000 A 
ATOM      6  C   UNL     1      91.159  65.527  85.185  0.00  0.00    +0.000 A 
ATOM      7  C   UNL     1      90.568  66.610  85.820  0.00  0.00    +0.000 A 
ATOM      8  C   UNL     1      89.517  66.406  86.723  0.00  0.00    +0.000 A 
ATOM      9 CL   UNL     1      91.419  62.893  84.685  0.00  0.00    +0.000 Cl
ENDBRANCH   1   3
BRANCH   1  11
ATOM     10  C   UNL     1      88.808  63.860  90.041  0.00  0.00    +0.000 C 
ATOM     11  C   UNL     1      87.944  63.708  88.778  0.00  0.00    +0.000 C 
BRANCH  11  12
ATOM     12  C   UNL     1      86.478  63.252  89.053  0.00  0.00    +0.000 C 
ATOM     13  C   UNL     1      86.040  63.228  90.501  0.00  0.00    +0.000 C 
ATOM     14  C   UNL     1      85.637  61.993  90.843  0.00  0.00    +0.000 C 
ATOM     15  C   UNL     1      85.755  61.120  89.706  0.00  0.00    +0.000 C 
ATOM     16  C   UNL     1      86.225  61.811  88.658  0.00  0.00    +0.000 C 
ENDBRANCH  11  12
ENDBRANCH   1  11
TORSDOF 3
ENDMDL
