MODEL 1
REMARK VINA RESULT:      -4.1      0.000      0.000
REMARK  Name = *****
REMARK  4 active torsions:
REMARK  status: ('A' for Active; 'I' for Inactive)
REMARK    1  A    between atoms: C_1  and  N_2
REMARK    2  A    between atoms: N_2  and  C_3
REMARK    3  A    between atoms: N_2  and  C_9
REMARK    4  A    between atoms: C_3  and  C_4
REMARK                            x       y       z     vdW  Elec       q    Type
REMARK                         _______ _______ _______ _____ _____    ______ ____
ROOT
ATOM      1  C   UNL     1      85.673  68.080  88.362  0.00  0.00    +0.000 C 
ATOM      2  N   UNL     1      86.933  68.753  88.058  0.00  0.00    +0.000 N 
ENDROOT
BRANCH   2   3
ATOM      3  C   UNL     1      87.962  68.034  87.449  0.00  0.00    +0.000 A 
ATOM      4  C   UNL     1      89.007  68.687  86.773  0.00  0.00    +0.000 A 
ATOM      5  C   UNL     1      90.048  67.983  86.152  0.00  0.00    +0.000 A 
ATOM      6  C   UNL     1      90.059  66.596  86.190  0.00  0.00    +0.000 A 
ATOM      7  C   UNL     1      89.037  65.914  86.834  0.00  0.00    +0.000 A 
ATOM      8  C   UNL     1      88.000  66.628  87.448  0.00  0.00    +0.000 A 
ATOM      9 CL   UNL     1      91.334  65.725  85.433  0.00  0.00    +0.000 Cl
ENDBRANCH   2   3
BRANCH   2  10
ATOM     10  C   UNL     1      87.252  69.952  88.866  0.00  0.00    +0.000 C 
BRANCH  10  11
ATOM     11  C   UNL     1      86.785  71.316  88.295  0.00  0.00    +0.000 C 
ATOM     12  C   UNL     1      85.504  71.879  88.858  0.00  0.00    +0.000 C 
ATOM     13  C   UNL     1      84.646  72.151  87.862  0.00  0.00    +0.000 C 
ATOM     14  C   UNL     1      85.253  71.814  86.600  0.00  0.00    +0.000 C 
ATOM     15  C   UNL     1      86.484  71.326  86.812  0.00  0.00    +0.000 C 
ENDBRANCH  10  11
ENDBRANCH   2  10
TORSDOF 3
ENDMDL
