MODEL 1
REMARK VINA RESULT:      -5.0      0.000      0.000
REMARK  Name = *****
REMARK  2 active torsions:
REMARK  status: ('A' for Active; 'I' for Inactive)
REMARK    1  A    between atoms: C_1  and  C_2
REMARK    2  A    between atoms: C_5  and  C_8
REMARK                            x       y       z     vdW  Elec       q    Type
REMARK                         _______ _______ _______ _____ _____    ______ ____
ROOT
ATOM      1  C   UNL     1     102.884 125.759  82.070  0.00  0.00    +0.000 A 
ATOM      2  C   UNL     1     103.401 124.773  82.928  0.00  0.00    +0.000 A 
ATOM      3  C   UNL     1     104.267 123.797  82.436  0.00  0.00    +0.000 A 
ATOM      4  C   UNL     1     104.630 123.786  81.091  0.00  0.00    +0.000 A 
ATOM      5  C   UNL     1     104.133 124.750  80.222  0.00  0.00    +0.000 A 
ATOM      6  C   UNL     1     103.264 125.731  80.713  0.00  0.00    +0.000 A 
ATOM      7  S   UNL     1     105.736 122.494  80.585  0.00  0.00    +0.000 S 
ATOM      8  C   UNL     1     105.889 121.734  82.166  0.00  0.00    +0.000 A 
ATOM      9  O   UNL     1     106.582 120.747  82.360  0.00  0.00    +0.000 OA
ATOM     10  S   UNL     1     104.963 122.514  83.446  0.00  0.00    +0.000 S 
ENDROOT
BRANCH   1  15
ATOM     11  C   UNL     1      99.279 129.857  84.047  0.00  0.00    +0.000 C 
ATOM     12  C   UNL     1     100.210 128.787  83.561  0.00  0.00    +0.000 A 
ATOM     13  C   UNL     1     101.594 128.932  83.698  0.00  0.00    +0.000 A 
ATOM     14  C   UNL     1     102.461 127.945  83.216  0.00  0.00    +0.000 A 
ATOM     15  C   UNL     1     101.970 126.796  82.576  0.00  0.00    +0.000 A 
ATOM     16  C   UNL     1     100.580 126.670  82.431  0.00  0.00    +0.000 A 
ATOM     17  C   UNL     1      99.710 127.654  82.913  0.00  0.00    +0.000 A 
ENDBRANCH   1  15
TORSDOF 1
ENDMDL
