REMARK  Name = *****
REMARK  3 active torsions:
REMARK  status: ('A' for Active; 'I' for Inactive)
REMARK    1  A    between atoms: C_1  and  C_2
REMARK    2  A    between atoms: C_5  and  C_8
REMARK    3  A    between atoms: N_9  and  C_10
REMARK                            x       y       z     vdW  Elec       q    Type
REMARK                         _______ _______ _______ _____ _____    ______ ____
ROOT
ATOM      1  C   UNL     1       1.602   1.657  -0.054  0.00  0.00    +0.000 C 
ATOM      2  C   UNL     1       0.369   0.806  -0.009  0.00  0.00    +0.000 A 
ATOM      3  C   UNL     1       0.384  -0.484  -0.548  0.00  0.00    +0.000 A 
ATOM      4  C   UNL     1      -0.751  -1.289  -0.546  0.00  0.00    +0.000 A 
ATOM      5  C   UNL     1      -1.933  -0.791  -0.001  0.00  0.00    +0.000 A 
ATOM      6  C   UNL     1      -1.976   0.501   0.532  0.00  0.00    +0.000 A 
ATOM      7  C   UNL     1      -0.829   1.299   0.524  0.00  0.00    +0.000 A 
ATOM      8  F   UNL     1       1.515  -0.968  -1.082  0.00  0.00    +0.000 F 
ENDROOT
BRANCH   5   9
ATOM      9  C   UNL     1      -3.133  -1.649  -0.003  0.00  0.00    +0.000 C 
ATOM     10  N   UNL     1      -4.261  -1.249   0.494  0.00  0.00    +0.000 NA
BRANCH  10  11
ATOM     11  C   UNL     1      -5.317  -2.167   0.425  0.00  0.00    +0.000 A 
ATOM     12  C   UNL     1      -5.505  -3.109   1.440  0.00  0.00    +0.000 A 
ATOM     13  C   UNL     1      -6.565  -4.016   1.376  0.00  0.00    +0.000 A 
ATOM     14  C   UNL     1      -7.450  -3.977   0.298  0.00  0.00    +0.000 A 
ATOM     15  C   UNL     1      -7.278  -3.029  -0.710  0.00  0.00    +0.000 A 
ATOM     16  C   UNL     1      -6.217  -2.124  -0.643  0.00  0.00    +0.000 A 
ENDBRANCH  10  11
ENDBRANCH   5   9
TORSDOF 2
