REMARK  Name = *****
REMARK  4 active torsions:
REMARK  status: ('A' for Active; 'I' for Inactive)
REMARK    1  A    between atoms: C_1  and  S_2
REMARK    2  A    between atoms: S_2  and  C_4
REMARK    3  A    between atoms: C_9  and  C_10
REMARK    4  A    between atoms: C_11  and  C_12
REMARK                            x       y       z     vdW  Elec       q    Type
REMARK                         _______ _______ _______ _____ _____    ______ ____
ROOT
ATOM      1  C   UNL     1       3.395   1.398  -1.004  0.00  0.00    +0.000 A 
ATOM      2  C   UNL     1       2.925   2.673  -0.657  0.00  0.00    +0.000 A 
ATOM      3  C   UNL     1       3.175   3.772  -1.480  0.00  0.00    +0.000 A 
ATOM      4  C   UNL     1       3.893   3.607  -2.662  0.00  0.00    +0.000 A 
ATOM      5  C   UNL     1       4.358   2.342  -3.023  0.00  0.00    +0.000 A 
ATOM      6  C   UNL     1       4.111   1.234  -2.203  0.00  0.00    +0.000 A 
ENDROOT
BRANCH   1   8
ATOM      7  C   UNL     1       4.646  -0.005   0.956  0.00  0.00    +0.000 C 
ATOM      8  S   UNL     1       3.054  -0.009   0.092  0.00  0.00    +0.000 S 
ATOM      9  O   UNL     1       2.019   0.468   1.070  0.00  0.00    +0.000 OA
ENDBRANCH   1   8
BRANCH   6  10
ATOM     10  C   UNL     1       4.602  -0.045  -2.628  0.00  0.00    +0.000 C 
ATOM     11  C   UNL     1       5.013  -1.120  -2.973  0.00  0.00    +0.000 C 
BRANCH  11  12
ATOM     12  C   UNL     1       5.498  -2.404  -3.371  0.00  0.00    +0.000 A 
ATOM     13  C   UNL     1       6.431  -2.511  -4.405  0.00  0.00    +0.000 A 
ATOM     14  C   UNL     1       6.906  -3.766  -4.791  0.00  0.00    +0.000 A 
ATOM     15  C   UNL     1       6.450  -4.914  -4.143  0.00  0.00    +0.000 A 
ATOM     16  C   UNL     1       5.518  -4.810  -3.111  0.00  0.00    +0.000 A 
ATOM     17  C   UNL     1       5.042  -3.555  -2.724  0.00  0.00    +0.000 A 
ENDBRANCH  11  12
ENDBRANCH   6  10
TORSDOF 3
