MODEL 1
REMARK VINA RESULT:      -4.7      0.000      0.000
REMARK  Name = *****
REMARK  4 active torsions:
REMARK  status: ('A' for Active; 'I' for Inactive)
REMARK    1  A    between atoms: C_1  and  C_2
REMARK    2  A    between atoms: C_5  and  C_8
REMARK    3  A    between atoms: C_8  and  N_10
REMARK    4  A    between atoms: N_10  and  C_11
REMARK                            x       y       z     vdW  Elec       q    Type
REMARK                         _______ _______ _______ _____ _____    ______ ____
ROOT
ATOM      1  C   UNL     1      88.953  64.329  86.711  0.00  0.00    +0.000 C 
ATOM      2  S   UNL     1      88.885  63.546  85.231  0.00  0.00    +0.000 S 
ENDROOT
BRANCH   1   7
ATOM      3  C   UNL     1      89.097  70.116  86.940  0.00  0.00    +0.000 C 
ATOM      4  C   UNL     1      89.038  68.618  86.856  0.00  0.00    +0.000 A 
ATOM      5  C   UNL     1      87.945  67.919  87.386  0.00  0.00    +0.000 A 
ATOM      6  C   UNL     1      87.900  66.525  87.330  0.00  0.00    +0.000 A 
ATOM      7  C   UNL     1      88.960  65.822  86.746  0.00  0.00    +0.000 A 
ATOM      8  C   UNL     1      90.065  66.508  86.233  0.00  0.00    +0.000 A 
ATOM      9  C   UNL     1      90.102  67.903  86.292  0.00  0.00    +0.000 A 
ENDBRANCH   1   7
BRANCH   1  10
ATOM     10  N   UNL     1      88.967  63.797  87.995  0.00  0.00    +0.000 N 
ATOM     11  H   UNL     1      89.871  63.694  88.368  0.00  0.00    +0.000 HD
BRANCH  10  12
ATOM     12  C   UNL     1      87.942  63.374  88.873  0.00  0.00    +0.000 A 
ATOM     13  C   UNL     1      87.679  63.908  90.134  0.00  0.00    +0.000 A 
ATOM     14  C   UNL     1      86.622  63.419  90.912  0.00  0.00    +0.000 A 
ATOM     15  C   UNL     1      85.810  62.394  90.435  0.00  0.00    +0.000 A 
ATOM     16  C   UNL     1      86.049  61.860  89.175  0.00  0.00    +0.000 A 
ATOM     17  C   UNL     1      87.103  62.350  88.399  0.00  0.00    +0.000 A 
ENDBRANCH  10  12
ENDBRANCH   1  10
TORSDOF 3
ENDMDL
