MODEL 1
REMARK VINA RESULT:      -4.7      0.000      0.000
REMARK  Name = *****
REMARK  3 active torsions:
REMARK  status: ('A' for Active; 'I' for Inactive)
REMARK    1  A    between atoms: C_1  and  C_2
REMARK    2  A    between atoms: C_7  and  N_8
REMARK    3  A    between atoms: C_9  and  C_10
REMARK                            x       y       z     vdW  Elec       q    Type
REMARK                         _______ _______ _______ _____ _____    ______ ____
ROOT
ATOM      1  N   UNL     1     101.940 125.853  82.792  0.00  0.00    +0.000 NA
ATOM      2  C   UNL     1     102.840 125.854  81.850  0.00  0.00    +0.000 C 
ATOM      3 CL   UNL     1     102.984 127.189  80.740  0.00  0.00    +0.000 Cl
ENDROOT
BRANCH   1  10
ATOM      4  C   UNL     1     102.793 128.210  84.266  0.00  0.00    +0.000 C 
ATOM      5  C   UNL     1     101.419 128.077  83.675  0.00  0.00    +0.000 A 
ATOM      6  C   UNL     1     100.492 129.121  83.819  0.00  0.00    +0.000 A 
ATOM      7  C   UNL     1      99.209 129.013  83.280  0.00  0.00    +0.000 A 
ATOM      8  C   UNL     1      98.838 127.861  82.594  0.00  0.00    +0.000 A 
ATOM      9  C   UNL     1      99.755 126.821  82.437  0.00  0.00    +0.000 A 
ATOM     10  C   UNL     1     101.052 126.927  82.952  0.00  0.00    +0.000 A 
ENDBRANCH   1  10
BRANCH   2  11
ATOM     11  C   UNL     1     103.758 124.669  81.743  0.00  0.00    +0.000 A 
ATOM     12  C   UNL     1     104.100 123.903  82.865  0.00  0.00    +0.000 A 
ATOM     13  C   UNL     1     104.956 122.804  82.736  0.00  0.00    +0.000 A 
ATOM     14  C   UNL     1     105.475 122.464  81.488  0.00  0.00    +0.000 A 
ATOM     15  C   UNL     1     105.142 123.218  80.366  0.00  0.00    +0.000 A 
ATOM     16  C   UNL     1     104.287 124.315  80.492  0.00  0.00    +0.000 A 
ENDBRANCH   2  11
TORSDOF 2
ENDMDL
