REMARK  Name = *****
REMARK  3 active torsions:
REMARK  status: ('A' for Active; 'I' for Inactive)
REMARK    1  A    between atoms: C_4  and  C_7
REMARK    2  A    between atoms: C_8  and  C_9
REMARK    3  A    between atoms: C_8  and  C_11
REMARK                            x       y       z     vdW  Elec       q    Type
REMARK                         _______ _______ _______ _____ _____    ______ ____
ROOT
ATOM      1  C   UNL     1      -2.766   0.376  -0.403  0.00  0.00    +0.000 C 
ATOM      2  C   UNL     1      -3.742  -0.522  -0.157  0.00  0.00    +0.000 C 
ENDROOT
BRANCH   1   6
ATOM      3  C   UNL     1       1.433  -0.200   0.118  0.00  0.00    +0.000 A 
ATOM      4  C   UNL     1       0.733  -1.006  -0.779  0.00  0.00    +0.000 A 
ATOM      5  C   UNL     1      -0.641  -0.828  -0.954  0.00  0.00    +0.000 A 
ATOM      6  C   UNL     1      -1.325   0.151  -0.225  0.00  0.00    +0.000 A 
ATOM      7  C   UNL     1      -0.613   0.964   0.665  0.00  0.00    +0.000 A 
ATOM      8  C   UNL     1       0.761   0.786   0.838  0.00  0.00    +0.000 A 
ENDBRANCH   1   6
BRANCH   2   9
ATOM      9  C   UNL     1      -5.146  -0.122  -0.373  0.00  0.00    +0.000 A 
ATOM     10  C   UNL     1      -5.594   0.347  -1.607  0.00  0.00    +0.000 A 
ATOM     11  N   UNL     1      -6.868   0.725  -1.867  0.00  0.00    +0.000 NA
ATOM     12  C   UNL     1      -7.750   0.623  -0.850  0.00  0.00    +0.000 A 
ATOM     13  C   UNL     1      -7.415   0.163   0.412  0.00  0.00    +0.000 A 
ATOM     14  C   UNL     1      -6.095  -0.215   0.651  0.00  0.00    +0.000 A 
ENDBRANCH   2   9
BRANCH   2  15
ATOM     15  C   UNL     1      -3.474  -1.833   0.350  0.00  0.00    +0.000 C 
ATOM     16  N   UNL     1      -3.282  -2.901   0.761  0.00  0.00    +0.000 NA
ENDBRANCH   2  15
TORSDOF 3
