REMARK  Name = *****
REMARK  5 active torsions:
REMARK  status: ('A' for Active; 'I' for Inactive)
REMARK    1  A    between atoms: C_1  and  C_2
REMARK    2  A    between atoms: C_3  and  C_19
REMARK    3  A    between atoms: C_4  and  O_8
REMARK    4  A    between atoms: O_8  and  C_9
REMARK    5  A    between atoms: C_9  and  C_11
REMARK                            x       y       z     vdW  Elec       q    Type
REMARK                         _______ _______ _______ _____ _____    ______ ____
ROOT
ATOM      1  C   UNL     1      -1.829  -3.144   0.562  0.00  0.00    +0.000 C 
ATOM      2  O   UNL     1      -2.469  -2.913  -0.453  0.00  0.00    +0.000 OA
ENDROOT
BRANCH   1   3
ATOM      3  C   UNL     1      -1.923  -4.434   1.276  0.00  0.00    +0.000 A 
ATOM      4  C   UNL     1      -0.860  -4.961   2.013  0.00  0.00    +0.000 A 
ATOM      5  C   UNL     1      -0.984  -6.184   2.667  0.00  0.00    +0.000 A 
ATOM      6  C   UNL     1      -2.180  -6.884   2.574  0.00  0.00    +0.000 A 
ATOM      7  C   UNL     1      -3.248  -6.387   1.834  0.00  0.00    +0.000 A 
ATOM      8  C   UNL     1      -3.120  -5.161   1.178  0.00  0.00    +0.000 A 
ATOM      9  F   UNL     1      -2.304  -8.061   3.200  0.00  0.00    +0.000 F 
ATOM     10  F   UNL     1       0.317  -4.325   2.089  0.00  0.00    +0.000 F 
ENDBRANCH   1   3
BRANCH   1  11
ATOM     11  O   UNL     1      -1.014  -2.281   1.267  0.00  0.00    +0.000 OA
BRANCH  11  15
ATOM     12  C   UNL     1       1.864   1.197  -0.804  0.00  0.00    +0.000 C 
ATOM     13  C   UNL     1       0.547   0.696  -0.278  0.00  0.00    +0.000 A 
ATOM     14  C   UNL     1       0.409  -0.595   0.276  0.00  0.00    +0.000 A 
ATOM     15  C   UNL     1      -0.867  -1.001   0.707  0.00  0.00    +0.000 A 
ATOM     16  C   UNL     1      -1.965  -0.140   0.676  0.00  0.00    +0.000 A 
ATOM     17  C   UNL     1      -1.813   1.140   0.156  0.00  0.00    +0.000 A 
ATOM     18  C   UNL     1      -0.568   1.552  -0.321  0.00  0.00    +0.000 A 
ATOM     19  C   UNL     1       1.566  -1.554   0.350  0.00  0.00    +0.000 C 
ENDBRANCH  11  15
ENDBRANCH   1  11
TORSDOF 3
