REMARK  Name = *****
REMARK  6 active torsions:
REMARK  status: ('A' for Active; 'I' for Inactive)
REMARK    1  A    between atoms: C_1  and  C_2
REMARK    2  A    between atoms: C_2  and  C_18
REMARK    3  A    between atoms: C_6  and  C_9
REMARK    4  A    between atoms: C_9  and  C_10
REMARK    5  A    between atoms: C_10  and  C_11
REMARK    6  A    between atoms: C_16  and  O_17
REMARK                            x       y       z     vdW  Elec       q    Type
REMARK                         _______ _______ _______ _____ _____    ______ ____
ROOT
ATOM      1  C   UNL     1       2.035   2.527  -2.721  0.00  0.00    +0.000 C 
ENDROOT
BRANCH   1   7
ATOM      2  C   UNL     1       0.840  -0.011   0.225  0.00  0.00    +0.000 C 
ATOM      3  C   UNL     1       2.372  -0.004   0.137  0.00  0.00    +0.000 C 
ATOM      4  C   UNL     1       3.055  -1.090  -0.806  0.00  0.00    +0.000 C 
ATOM      5  C   UNL     1       2.353  -1.337  -2.159  0.00  0.00    +0.000 C 
ATOM      6  C   UNL     1       2.024  -0.005  -2.803  0.00  0.00    +0.000 C 
ATOM      7  C   UNL     1       2.333   1.155  -2.187  0.00  0.00    +0.000 C 
ATOM      8  C   UNL     1       3.062   1.020  -0.871  0.00  0.00    +0.000 C 
ATOM      9  C   UNL     1       4.207  -0.049  -0.996  0.00  0.00    +0.000 C 
ATOM     10  C   UNL     1       2.915   0.052   1.579  0.00  0.00    +0.000 C 
ENDBRANCH   1   7
BRANCH   1  11
ATOM     11  C   UNL     1       0.969   3.244  -1.884  0.00  0.00    +0.000 C 
BRANCH  11  12
ATOM     12  C   UNL     1       0.666   4.626  -2.414  0.00  0.00    +0.000 A 
ATOM     13  C   UNL     1      -0.467   4.835  -3.214  0.00  0.00    +0.000 A 
ATOM     14  C   UNL     1      -0.759   6.105  -3.715  0.00  0.00    +0.000 A 
ATOM     15  C   UNL     1       0.081   7.179  -3.427  0.00  0.00    +0.000 A 
ATOM     16  C   UNL     1       1.215   6.985  -2.639  0.00  0.00    +0.000 A 
ATOM     17  C   UNL     1       1.501   5.715  -2.140  0.00  0.00    +0.000 A 
BRANCH  17  18
ATOM     18  O   UNL     1       2.611   5.515  -1.368  0.00  0.00    +0.000 OA
ATOM     19  H   UNL     1       2.802   4.660  -1.034  0.00  0.00    +0.000 HD
ENDBRANCH  17  18
ENDBRANCH  11  12
ENDBRANCH   1  11
TORSDOF 4
