MODEL 1
REMARK VINA RESULT:      -4.8      0.000      0.000
REMARK  Name = *****
REMARK  4 active torsions:
REMARK  status: ('A' for Active; 'I' for Inactive)
REMARK    1  A    between atoms: C_1  and  C_2
REMARK    2  A    between atoms: C_2  and  C_3
REMARK    3  A    between atoms: C_2  and  C_9
REMARK    4  A    between atoms: C_9  and  C_10
REMARK                            x       y       z     vdW  Elec       q    Type
REMARK                         _______ _______ _______ _____ _____    ______ ____
ROOT
ATOM      1  C   UNL     1      88.452  66.038  86.466  0.00  0.00    +0.000 C 
ATOM      2  F   UNL     1      87.524  66.983  86.100  0.00  0.00    +0.000 F 
ATOM      3  F   UNL     1      88.411  65.129  85.439  0.00  0.00    +0.000 F 
ENDROOT
BRANCH   1   4
ATOM      4  C   UNL     1      88.081  65.393  87.789  0.00  0.00    +0.000 A 
ATOM      5  C   UNL     1      87.047  65.920  88.579  0.00  0.00    +0.000 A 
ATOM      6  C   UNL     1      86.712  65.329  89.800  0.00  0.00    +0.000 A 
ATOM      7  C   UNL     1      87.401  64.202  90.240  0.00  0.00    +0.000 A 
ATOM      8  C   UNL     1      88.421  63.660  89.461  0.00  0.00    +0.000 A 
ATOM      9  C   UNL     1      88.756  64.249  88.241  0.00  0.00    +0.000 A 
ENDBRANCH   1   4
BRANCH   1  11
ATOM     10  C   UNL     1      90.861  65.960  85.586  0.00  0.00    +0.000 C 
ATOM     11  C   UNL     1      89.840  66.734  86.433  0.00  0.00    +0.000 C 
BRANCH  11  12
ATOM     12  C   UNL     1      89.775  68.223  86.103  0.00  0.00    +0.000 A 
ATOM     13  C   UNL     1      89.562  69.207  87.080  0.00  0.00    +0.000 A 
ATOM     14  C   UNL     1      89.530  70.561  86.734  0.00  0.00    +0.000 A 
ATOM     15  C   UNL     1      89.715  70.950  85.410  0.00  0.00    +0.000 A 
ATOM     16  C   UNL     1      89.935  69.988  84.429  0.00  0.00    +0.000 A 
ATOM     17  C   UNL     1      89.966  68.635  84.774  0.00  0.00    +0.000 A 
ENDBRANCH  11  12
ENDBRANCH   1  11
TORSDOF 3
ENDMDL
