MODEL 1
REMARK VINA RESULT:      -4.0      0.000      0.000
REMARK  Name = *****
REMARK  3 active torsions:
REMARK  status: ('A' for Active; 'I' for Inactive)
REMARK    1  A    between atoms: C_4  and  C_7
REMARK    2  A    between atoms: C_7  and  C_15
REMARK    3  A    between atoms: N_8  and  C_9
REMARK                            x       y       z     vdW  Elec       q    Type
REMARK                         _______ _______ _______ _____ _____    ______ ____
ROOT
ATOM      1  C   UNL     1     102.969 125.697  83.303  0.00  0.00    +0.000 C 
ATOM      2  N   UNL     1     101.784 125.724  83.846  0.00  0.00    +0.000 NA
ENDROOT
BRANCH   1   6
ATOM      3  C   UNL     1     104.430 128.518  80.450  0.00  0.00    +0.000 A 
ATOM      4  C   UNL     1     103.589 127.483  80.036  0.00  0.00    +0.000 A 
ATOM      5  C   UNL     1     103.115 126.554  80.963  0.00  0.00    +0.000 A 
ATOM      6  C   UNL     1     103.492 126.665  82.304  0.00  0.00    +0.000 A 
ATOM      7  C   UNL     1     104.328 127.703  82.723  0.00  0.00    +0.000 A 
ATOM      8  C   UNL     1     104.801 128.628  81.791  0.00  0.00    +0.000 A 
ENDBRANCH   1   6
BRANCH   2   9
ATOM      9  C   UNL     1     100.888 126.769  83.577  0.00  0.00    +0.000 A 
ATOM     10  C   UNL     1      99.847 126.565  82.668  0.00  0.00    +0.000 A 
ATOM     11  C   UNL     1      98.928 127.583  82.403  0.00  0.00    +0.000 A 
ATOM     12  C   UNL     1      99.038 128.808  83.059  0.00  0.00    +0.000 A 
ATOM     13  C   UNL     1     100.057 129.012  83.987  0.00  0.00    +0.000 A 
ATOM     14  C   UNL     1     100.974 127.990  84.252  0.00  0.00    +0.000 A 
ENDBRANCH   2   9
BRANCH   1  15
ATOM     15  C   UNL     1     103.903 124.563  83.675  0.00  0.00    +0.000 C 
ATOM     16 CL   UNL     1     104.286 123.620  82.220  0.00  0.00    +0.000 Cl
ENDBRANCH   1  15
TORSDOF 3
ENDMDL
