MODEL 1
REMARK VINA RESULT:      -4.6      0.000      0.000
REMARK  Name = *****
REMARK  4 active torsions:
REMARK  status: ('A' for Active; 'I' for Inactive)
REMARK    1  A    between atoms: C_4  and  C_7
REMARK    2  A    between atoms: C_7  and  C_8
REMARK    3  A    between atoms: C_8  and  C_9
REMARK    4  A    between atoms: C_12  and  N_15
REMARK                            x       y       z     vdW  Elec       q    Type
REMARK                         _______ _______ _______ _____ _____    ______ ____
ROOT
ATOM      1  C   UNL     1     103.255 127.594  81.711  0.00  0.00    +0.000 C 
ENDROOT
BRANCH   1   2
ATOM      2  C   UNL     1     103.754 126.206  81.389  0.00  0.00    +0.000 A 
ATOM      3  C   UNL     1     103.704 125.193  82.353  0.00  0.00    +0.000 A 
ATOM      4  C   UNL     1     104.185 123.911  82.059  0.00  0.00    +0.000 A 
ATOM      5  C   UNL     1     104.734 123.622  80.801  0.00  0.00    +0.000 A 
ATOM      6  C   UNL     1     104.777 124.639  79.841  0.00  0.00    +0.000 A 
ATOM      7  C   UNL     1     104.298 125.921  80.131  0.00  0.00    +0.000 A 
BRANCH   5   8
ATOM      8  N   UNL     1     105.205 122.371  80.453  0.00  0.00    +0.000 NA
ATOM      9  O   UNL     1     104.441 121.445  80.750  0.00  0.00    +0.000 OA
ENDBRANCH   5   8
ENDBRANCH   1   2
BRANCH   1  10
ATOM     10  C   UNL     1     102.645 127.665  83.113  0.00  0.00    +0.000 C 
BRANCH  10  14
ATOM     11  C   UNL     1      98.348 127.964  82.920  0.00  0.00    +0.000 A 
ATOM     12  C   UNL     1      98.991 126.828  82.430  0.00  0.00    +0.000 A 
ATOM     13  C   UNL     1     100.381 126.729  82.498  0.00  0.00    +0.000 A 
ATOM     14  C   UNL     1     101.141 127.763  83.060  0.00  0.00    +0.000 A 
ATOM     15  C   UNL     1     100.485 128.903  83.545  0.00  0.00    +0.000 A 
ATOM     16  C   UNL     1      99.094 129.000  83.477  0.00  0.00    +0.000 A 
ENDBRANCH  10  14
ENDBRANCH   1  10
TORSDOF 4
ENDMDL
