REMARK  Name = *****
REMARK  4 active torsions:
REMARK  status: ('A' for Active; 'I' for Inactive)
REMARK    1  A    between atoms: C_1  and  N_2
REMARK    2  A    between atoms: N_2  and  C_3
REMARK    3  A    between atoms: C_9  and  S_11
REMARK    4  A    between atoms: S_11  and  C_12
REMARK                            x       y       z     vdW  Elec       q    Type
REMARK                         _______ _______ _______ _____ _____    ______ ____
ROOT
ATOM      1  C   UNL     1       1.323   0.158   0.352  0.00  0.00    +0.000 C 
ATOM      2  N   UNL     1       2.720   0.008  -0.041  0.00  0.00    +0.000 N 
ATOM      3  C   UNL     1       3.361  -1.166   0.381  0.00  0.00    +0.000 C 
ATOM      4  O   UNL     1       2.759  -2.149   0.808  0.00  0.00    +0.000 OA
ENDROOT
BRANCH   2   5
ATOM      5  C   UNL     1       3.305   1.072  -0.795  0.00  0.00    +0.000 A 
ATOM      6  C   UNL     1       4.205   0.819  -1.839  0.00  0.00    +0.000 A 
ATOM      7  C   UNL     1       4.752   1.866  -2.587  0.00  0.00    +0.000 A 
ATOM      8  C   UNL     1       4.394   3.182  -2.313  0.00  0.00    +0.000 A 
ATOM      9  C   UNL     1       3.481   3.451  -1.298  0.00  0.00    +0.000 A 
ATOM     10  C   UNL     1       2.933   2.404  -0.552  0.00  0.00    +0.000 A 
ENDBRANCH   2   5
BRANCH   3  11
ATOM     11  S   UNL     1       5.128  -1.174   0.467  0.00  0.00    +0.000 S 
BRANCH  11  12
ATOM     12  C   UNL     1       5.359  -0.188   1.934  0.00  0.00    +0.000 A 
ATOM     13  C   UNL     1       4.918  -0.643   3.181  0.00  0.00    +0.000 A 
ATOM     14  C   UNL     1       5.112   0.136   4.323  0.00  0.00    +0.000 A 
ATOM     15  C   UNL     1       5.751   1.371   4.225  0.00  0.00    +0.000 A 
ATOM     16  C   UNL     1       6.199   1.827   2.986  0.00  0.00    +0.000 A 
ATOM     17  C   UNL     1       6.006   1.048   1.843  0.00  0.00    +0.000 A 
ENDBRANCH  11  12
ENDBRANCH   3  11
TORSDOF 3
