MODEL 1
REMARK VINA RESULT:      -4.3      0.000      0.000
REMARK  Name = *****
REMARK  5 active torsions:
REMARK  status: ('A' for Active; 'I' for Inactive)
REMARK    1  A    between atoms: C_1  and  C_2
REMARK    2  A    between atoms: C_7  and  N_8
REMARK    3  A    between atoms: N_8  and  C_9
REMARK    4  A    between atoms: N_8  and  C_10
REMARK    5  A    between atoms: C_10  and  C_12
REMARK                            x       y       z     vdW  Elec       q    Type
REMARK                         _______ _______ _______ _____ _____    ______ ____
ROOT
ATOM      1  N   UNL     1      88.336  70.249  85.628  0.00  0.00    +0.000 N 
ATOM      2  C   UNL     1      89.639  70.927  85.657  0.00  0.00    +0.000 C 
ENDROOT
BRANCH   1   9
ATOM      3  C   UNL     1      88.327  70.248  88.610  0.00  0.00    +0.000 C 
ATOM      4  C   UNL     1      87.241  70.861  87.769  0.00  0.00    +0.000 A 
ATOM      5  C   UNL     1      86.137  71.436  88.425  0.00  0.00    +0.000 A 
ATOM      6  C   UNL     1      85.119  72.060  87.703  0.00  0.00    +0.000 A 
ATOM      7  C   UNL     1      85.185  72.113  86.315  0.00  0.00    +0.000 A 
ATOM      8  C   UNL     1      86.264  71.533  85.648  0.00  0.00    +0.000 A 
ATOM      9  C   UNL     1      87.295  70.900  86.361  0.00  0.00    +0.000 A 
ENDBRANCH   1   9
BRANCH   1  10
ATOM     10  C   UNL     1      88.154  69.001  84.992  0.00  0.00    +0.000 C 
ATOM     11  S   UNL     1      87.903  68.744  83.339  0.00  0.00    +0.000 S 
BRANCH  10  12
ATOM     12  C   UNL     1      88.263  67.799  85.863  0.00  0.00    +0.000 A 
ATOM     13  C   UNL     1      87.135  67.352  86.561  0.00  0.00    +0.000 A 
ATOM     14  C   UNL     1      87.237  66.229  87.383  0.00  0.00    +0.000 A 
ATOM     15  C   UNL     1      88.458  65.560  87.496  0.00  0.00    +0.000 A 
ATOM     16  C   UNL     1      89.581  66.003  86.795  0.00  0.00    +0.000 A 
ATOM     17  C   UNL     1      89.487  67.127  85.972  0.00  0.00    +0.000 A 
ATOM     18 CL   UNL     1      88.580  64.177  88.512  0.00  0.00    +0.000 Cl
ENDBRANCH  10  12
ENDBRANCH   1  10
TORSDOF 3
ENDMDL
