MODEL 1
REMARK VINA RESULT:      -4.2      0.000      0.000
REMARK  Name = *****
REMARK  5 active torsions:
REMARK  status: ('A' for Active; 'I' for Inactive)
REMARK    1  A    between atoms: C_1  and  C_2
REMARK    2  A    between atoms: C_2  and  C_3
REMARK    3  A    between atoms: C_2  and  C_4
REMARK    4  A    between atoms: C_4  and  C_10
REMARK    5  A    between atoms: C_11  and  C_12
REMARK                            x       y       z     vdW  Elec       q    Type
REMARK                         _______ _______ _______ _____ _____    ______ ____
ROOT
ATOM      1  C   UNL     1      86.879  63.954  89.475  0.00  0.00    +0.000 C 
ATOM      2  S   UNL     1      87.762  63.692  87.860  0.00  0.00    +0.000 S 
ATOM      3  C   UNL     1      88.298  65.383  87.488  0.00  0.00    +0.000 C 
ATOM      4  C   UNL     1      87.138  66.349  87.311  0.00  0.00    +0.000 C 
ATOM      5  C   UNL     1      86.332  66.590  88.579  0.00  0.00    +0.000 C 
ATOM      6  S   UNL     1      85.455  65.114  89.157  0.00  0.00    +0.000 S 
ENDROOT
BRANCH   1   8
ATOM      7  C   UNL     1      87.190  64.379  92.026  0.00  0.00    +0.000 C 
ATOM      8  C   UNL     1      87.827  64.453  90.625  0.00  0.00    +0.000 C 
ATOM      9  C   UNL     1      89.180  63.720  90.677  0.00  0.00    +0.000 C 
ENDBRANCH   1   8
BRANCH   1  10
ATOM     10  C   UNL     1      86.274  62.651  89.850  0.00  0.00    +0.000 C 
ATOM     11  C   UNL     1      85.744  61.617  90.156  0.00  0.00    +0.000 C 
BRANCH  11  12
ATOM     12  C   UNL     1      85.066  60.411  90.517  0.00  0.00    +0.000 A 
ATOM     13  C   UNL     1      85.799  59.248  90.766  0.00  0.00    +0.000 A 
ATOM     14  C   UNL     1      85.139  58.061  91.090  0.00  0.00    +0.000 A 
ATOM     15  C   UNL     1      83.746  58.036  91.165  0.00  0.00    +0.000 A 
ATOM     16  C   UNL     1      83.013  59.198  90.920  0.00  0.00    +0.000 A 
ATOM     17  C   UNL     1      83.672  60.385  90.596  0.00  0.00    +0.000 A 
ENDBRANCH  11  12
ENDBRANCH   1  10
TORSDOF 3
ENDMDL
