MODEL 1
REMARK VINA RESULT:      -4.6      0.000      0.000
REMARK  Name = *****
REMARK  4 active torsions:
REMARK  status: ('A' for Active; 'I' for Inactive)
REMARK    1  A    between atoms: C_4  and  C_7
REMARK    2  A    between atoms: C_7  and  O_8
REMARK    3  A    between atoms: O_8  and  C_9
REMARK    4  A    between atoms: C_9  and  C_11
REMARK                            x       y       z     vdW  Elec       q    Type
REMARK                         _______ _______ _______ _____ _____    ______ ____
ROOT
ATOM      1  C   UNL     1     104.591 124.475  80.129  0.00  0.00    +0.000 C 
ATOM      2  O   UNL     1     105.553 124.707  79.416  0.00  0.00    +0.000 OA
ENDROOT
BRANCH   1   3
ATOM      3  C   UNL     1     104.572 123.384  81.142  0.00  0.00    +0.000 A 
ATOM      4  C   UNL     1     104.717 122.034  80.792  0.00  0.00    +0.000 A 
ATOM      5  C   UNL     1     104.693 121.061  81.787  0.00  0.00    +0.000 A 
ATOM      6  C   UNL     1     104.529 121.415  83.122  0.00  0.00    +0.000 A 
ATOM      7  C   UNL     1     104.388 122.750  83.483  0.00  0.00    +0.000 A 
ATOM      8  C   UNL     1     104.410 123.736  82.492  0.00  0.00    +0.000 A 
ATOM      9  F   UNL     1     104.506 120.471  84.071  0.00  0.00    +0.000 F 
ATOM     10  F   UNL     1     104.831 119.774  81.444  0.00  0.00    +0.000 F 
ENDBRANCH   1   3
BRANCH   1  11
ATOM     11  O   UNL     1     103.415 125.143  80.138  0.00  0.00    +0.000 OA
BRANCH  11  12
ATOM     12  C   UNL     1     103.506 126.563  80.304  0.00  0.00    +0.000 C 
BRANCH  12  16
ATOM     13  C   UNL     1     101.439 127.730  83.901  0.00  0.00    +0.000 A 
ATOM     14  C   UNL     1     101.033 126.595  83.201  0.00  0.00    +0.000 A 
ATOM     15  C   UNL     1     101.705 126.213  82.039  0.00  0.00    +0.000 A 
ATOM     16  C   UNL     1     102.795 126.959  81.571  0.00  0.00    +0.000 A 
ATOM     17  C   UNL     1     103.186 128.106  82.276  0.00  0.00    +0.000 A 
ATOM     18  C   UNL     1     102.513 128.487  83.438  0.00  0.00    +0.000 A 
ENDBRANCH  12  16
ENDBRANCH  11  12
ENDBRANCH   1  11
TORSDOF 4
ENDMDL
