MODEL 1
REMARK VINA RESULT:      -4.8      0.000      0.000
REMARK  Name = *****
REMARK  5 active torsions:
REMARK  status: ('A' for Active; 'I' for Inactive)
REMARK    1  A    between atoms: C_1  and  O_2
REMARK    2  A    between atoms: O_2  and  C_3
REMARK    3  A    between atoms: C_3  and  C_5
REMARK    4  A    between atoms: C_8  and  C_11
REMARK    5  A    between atoms: C_12  and  C_13
REMARK                            x       y       z     vdW  Elec       q    Type
REMARK                         _______ _______ _______ _____ _____    ______ ____
ROOT
ATOM      1  C   UNL     1     105.957 122.552  81.058  0.00  0.00    +0.000 A 
ATOM      2  C   UNL     1     105.425 123.401  80.078  0.00  0.00    +0.000 A 
ATOM      3  C   UNL     1     104.416 124.312  80.410  0.00  0.00    +0.000 A 
ATOM      4  C   UNL     1     103.934 124.379  81.719  0.00  0.00    +0.000 A 
ATOM      5  C   UNL     1     104.460 123.534  82.699  0.00  0.00    +0.000 A 
ATOM      6  C   UNL     1     105.468 122.623  82.370  0.00  0.00    +0.000 A 
ENDROOT
BRANCH   1   7
ATOM      7  C   UNL     1     107.033 121.566  80.763  0.00  0.00    +0.000 C 
ATOM      8  O   UNL     1     108.020 121.824  80.091  0.00  0.00    +0.000 OA
BRANCH   7  10
ATOM      9  C   UNL     1     107.820 119.418  81.238  0.00  0.00    +0.000 C 
ATOM     10  O   UNL     1     106.758 120.368  81.340  0.00  0.00    +0.000 OA
ENDBRANCH   7  10
ENDBRANCH   1   7
BRANCH   4  11
ATOM     11  C   UNL     1     102.905 125.313  82.055  0.00  0.00    +0.000 C 
ATOM     12  C   UNL     1     102.043 126.101  82.339  0.00  0.00    +0.000 C 
BRANCH  12  13
ATOM     13  C   UNL     1     101.019 127.040  82.677  0.00  0.00    +0.000 A 
ATOM     14  C   UNL     1      99.687 126.771  82.354  0.00  0.00    +0.000 A 
ATOM     15  C   UNL     1      98.688 127.691  82.683  0.00  0.00    +0.000 A 
ATOM     16  C   UNL     1      99.021 128.878  83.335  0.00  0.00    +0.000 A 
ATOM     17  C   UNL     1     100.350 129.148  83.660  0.00  0.00    +0.000 A 
ATOM     18  C   UNL     1     101.349 128.229  83.330  0.00  0.00    +0.000 A 
ENDBRANCH  12  13
ENDBRANCH   4  11
TORSDOF 4
ENDMDL
