MODEL 1
REMARK VINA RESULT:      -4.3      0.000      0.000
REMARK  Name = *****
REMARK  4 active torsions:
REMARK  status: ('A' for Active; 'I' for Inactive)
REMARK    1  A    between atoms: C_1  and  C_2
REMARK    2  A    between atoms: C_5  and  S_7
REMARK    3  A    between atoms: S_7  and  C_8
REMARK    4  A    between atoms: C_8  and  C_9
REMARK                            x       y       z     vdW  Elec       q    Type
REMARK                         _______ _______ _______ _____ _____    ______ ____
ROOT
ATOM      1  C   UNL     1      94.084  94.162  85.100  0.00  0.00    +0.000 C 
ENDROOT
BRANCH   1   2
ATOM      2  C   UNL     1      93.333  92.966  85.642  0.00  0.00    +0.000 A 
ATOM      3  C   UNL     1      92.337  92.297  84.910  0.00  0.00    +0.000 A 
ATOM      4  C   UNL     1      91.682  91.184  85.445  0.00  0.00    +0.000 A 
ATOM      5  C   UNL     1      92.022  90.726  86.714  0.00  0.00    +0.000 A 
ATOM      6  C   UNL     1      93.011  91.367  87.454  0.00  0.00    +0.000 A 
ATOM      7  C   UNL     1      93.665  92.478  86.921  0.00  0.00    +0.000 A 
ATOM      8 CL   UNL     1      91.217  89.355  87.373  0.00  0.00    +0.000 Cl
ATOM      9 CL   UNL     1      91.873  92.805  83.324  0.00  0.00    +0.000 Cl
ENDBRANCH   1   2
BRANCH   1  10
ATOM     10  S   UNL     1      95.179  94.882  86.358  0.00  0.00    +0.000 S 
BRANCH  10  15
ATOM     11  C   UNL     1      96.929  99.645  85.676  0.00  0.00    +0.000 C 
ATOM     12  C   UNL     1      96.169  98.425  85.360  0.00  0.00    +0.000 A 
ATOM     13  N   UNL     1      95.390  98.159  84.335  0.00  0.00    +0.000 NA
ATOM     14  N   UNL     1      94.927  96.874  84.528  0.00  0.00    +0.000 NA
ATOM     15  C   UNL     1      95.455  96.445  85.658  0.00  0.00    +0.000 A 
ATOM     16  O   UNL     1      96.259  97.387  86.246  0.00  0.00    +0.000 OA
ENDBRANCH  10  15
ENDBRANCH   1  10
TORSDOF 3
ENDMDL
