MODEL 1
REMARK VINA RESULT:      -4.5      0.000      0.000
REMARK  Name = *****
REMARK  2 active torsions:
REMARK  status: ('A' for Active; 'I' for Inactive)
REMARK    1  A    between atoms: C_6  and  C_7
REMARK    2  A    between atoms: N_8  and  C_9
REMARK                            x       y       z     vdW  Elec       q    Type
REMARK                         _______ _______ _______ _____ _____    ______ ____
ROOT
ATOM      1  C   UNL     1     102.999 125.726  82.488  0.00  0.00    +0.000 C 
ATOM      2  N   UNL     1     101.747 125.853  82.179  0.00  0.00    +0.000 NA
ENDROOT
BRANCH   1   8
ATOM      3  C   UNL     1     104.174 124.537  80.662  0.00  0.00    +0.000 A 
ATOM      4  C   UNL     1     104.938 123.466  80.194  0.00  0.00    +0.000 A 
ATOM      5  C   UNL     1     105.326 122.461  81.074  0.00  0.00    +0.000 A 
ATOM      6  C   UNL     1     104.967 122.503  82.418  0.00  0.00    +0.000 A 
ATOM      7  C   UNL     1     104.203 123.571  82.891  0.00  0.00    +0.000 A 
ATOM      8  C   UNL     1     103.807 124.586  82.011  0.00  0.00    +0.000 A 
ATOM      9  F   UNL     1     106.060 121.437  80.621  0.00  0.00    +0.000 F 
ENDBRANCH   1   8
BRANCH   2  10
ATOM     10  C   UNL     1     101.100 126.981  82.698  0.00  0.00    +0.000 A 
ATOM     11  C   UNL     1     101.838 128.007  83.294  0.00  0.00    +0.000 A 
ATOM     12  C   UNL     1     101.195 129.141  83.798  0.00  0.00    +0.000 A 
ATOM     13  C   UNL     1      99.809 129.251  83.693  0.00  0.00    +0.000 A 
ATOM     14  C   UNL     1      99.065 128.242  83.086  0.00  0.00    +0.000 A 
ATOM     15  C   UNL     1      99.713 127.110  82.585  0.00  0.00    +0.000 A 
ATOM     16 CL   UNL     1      99.014 130.645  84.313  0.00  0.00    +0.000 Cl
ENDBRANCH   2  10
TORSDOF 2
ENDMDL
