MODEL 1
REMARK VINA RESULT:      -4.9      0.000      0.000
REMARK  Name = *****
REMARK  4 active torsions:
REMARK  status: ('A' for Active; 'I' for Inactive)
REMARK    1  A    between atoms: C_4  and  C_7
REMARK    2  A    between atoms: C_7  and  O_8
REMARK    3  A    between atoms: O_8  and  C_9
REMARK    4  A    between atoms: C_10  and  N_16
REMARK                            x       y       z     vdW  Elec       q    Type
REMARK                         _______ _______ _______ _____ _____    ______ ____
ROOT
ATOM      1  C   UNL     1     100.734 127.199  82.745  0.00  0.00    +0.000 A 
ATOM      2  C   UNL     1      99.353 127.459  82.686  0.00  0.00    +0.000 A 
ATOM      3  C   UNL     1      98.871 128.658  83.233  0.00  0.00    +0.000 A 
ATOM      4  C   UNL     1      99.753 129.565  83.821  0.00  0.00    +0.000 A 
ATOM      5  C   UNL     1     101.119 129.291  83.888  0.00  0.00    +0.000 A 
ATOM      6  C   UNL     1     101.611 128.100  83.357  0.00  0.00    +0.000 A 
ATOM      7 CL   UNL     1      99.149 131.032  84.484  0.00  0.00    +0.000 Cl
ENDROOT
BRANCH   2   8
ATOM      8  N   UNL     1      98.488 126.535  82.135  0.00  0.00    +0.000 NA
ATOM      9  O   UNL     1      97.380 126.529  82.687  0.00  0.00    +0.000 OA
ENDBRANCH   2   8
BRANCH   1  10
ATOM     10  O   UNL     1     101.263 126.021  82.275  0.00  0.00    +0.000 OA
BRANCH  10  11
ATOM     11  C   UNL     1     102.423 125.654  83.034  0.00  0.00    +0.000 C 
BRANCH  11  15
ATOM     12  C   UNL     1     105.215 123.676  80.411  0.00  0.00    +0.000 A 
ATOM     13  C   UNL     1     105.041 123.223  81.719  0.00  0.00    +0.000 A 
ATOM     14  C   UNL     1     104.137 123.866  82.565  0.00  0.00    +0.000 A 
ATOM     15  C   UNL     1     103.393 124.964  82.110  0.00  0.00    +0.000 A 
ATOM     16  C   UNL     1     103.583 125.417  80.797  0.00  0.00    +0.000 A 
ATOM     17  C   UNL     1     104.489 124.773  79.952  0.00  0.00    +0.000 A 
ENDBRANCH  11  15
ENDBRANCH  10  11
ENDBRANCH   1  10
TORSDOF 4
ENDMDL
