MODEL 1
REMARK VINA RESULT:      -4.5      0.000      0.000
REMARK  Name = *****
REMARK  3 active torsions:
REMARK  status: ('A' for Active; 'I' for Inactive)
REMARK    1  A    between atoms: C_4  and  C_7
REMARK    2  A    between atoms: C_7  and  C_8
REMARK    3  A    between atoms: C_8  and  C_9
REMARK                            x       y       z     vdW  Elec       q    Type
REMARK                         _______ _______ _______ _____ _____    ______ ____
ROOT
ATOM      1  C   UNL     1      89.290  70.518  87.480  0.00  0.00    +0.000 C 
ENDROOT
BRANCH   1   2
ATOM      2  C   UNL     1      89.500  69.505  86.375  0.00  0.00    +0.000 A 
ATOM      3  C   UNL     1      89.552  68.143  86.723  0.00  0.00    +0.000 A 
ATOM      4  C   UNL     1      89.753  67.158  85.755  0.00  0.00    +0.000 A 
ATOM      5  C   UNL     1      89.913  67.518  84.420  0.00  0.00    +0.000 A 
ATOM      6  C   UNL     1      89.873  68.862  84.056  0.00  0.00    +0.000 A 
ATOM      7  C   UNL     1      89.672  69.853  85.025  0.00  0.00    +0.000 A 
ATOM      8 BR   UNL     1      89.643  71.655  84.423  0.00  0.00    +0.000 Br
ENDBRANCH   1   2
BRANCH   1   9
ATOM      9  C   UNL     1      87.998  70.255  88.265  0.00  0.00    +0.000 C 
BRANCH   9  13
ATOM     10  C   UNL     1      84.436  72.441  87.136  0.00  0.00    +0.000 A 
ATOM     11  C   UNL     1      85.284  71.964  86.139  0.00  0.00    +0.000 A 
ATOM     12  C   UNL     1      86.441  71.256  86.478  0.00  0.00    +0.000 A 
ATOM     13  C   UNL     1      86.764  71.012  87.819  0.00  0.00    +0.000 A 
ATOM     14  C   UNL     1      85.900  71.506  88.811  0.00  0.00    +0.000 A 
ATOM     15  C   UNL     1      84.745  72.214  88.473  0.00  0.00    +0.000 A 
ENDBRANCH   9  13
ENDBRANCH   1   9
TORSDOF 3
ENDMDL
