MODEL 1
REMARK VINA RESULT:      -4.9      0.000      0.000
REMARK  Name = *****
REMARK  2 active torsions:
REMARK  status: ('A' for Active; 'I' for Inactive)
REMARK    1  A    between atoms: C_4  and  C_7
REMARK    2  A    between atoms: C_7  and  C_8
REMARK                            x       y       z     vdW  Elec       q    Type
REMARK                         _______ _______ _______ _____ _____    ______ ____
ROOT
ATOM      1  C   UNL     1      89.186  68.747  86.940  0.00  0.00    +0.000 A 
ATOM      2  N   UNL     1      88.253  67.846  87.192  0.00  0.00    +0.000 NA
ATOM      3  C   UNL     1      88.798  66.678  86.724  0.00  0.00    +0.000 A 
ATOM      4  C   UNL     1      90.062  66.918  86.211  0.00  0.00    +0.000 A 
ATOM      5  O   UNL     1      90.324  68.250  86.354  0.00  0.00    +0.000 OA
ATOM      6  C   UNL     1      90.893  65.954  85.657  0.00  0.00    +0.000 A 
ATOM      7  C   UNL     1      90.370  64.657  85.639  0.00  0.00    +0.000 A 
ATOM      8  C   UNL     1      89.097  64.363  86.148  0.00  0.00    +0.000 A 
ATOM      9  C   UNL     1      88.291  65.372  86.699  0.00  0.00    +0.000 A 
ATOM     10 CL   UNL     1      91.320  63.383  84.972  0.00  0.00    +0.000 Cl
ENDROOT
BRANCH   1  11
ATOM     11  C   UNL     1      89.166  70.209  87.225  0.00  0.00    +0.000 C 
BRANCH  11  15
ATOM     12  C   UNL     1      85.207  71.921  87.024  0.00  0.00    +0.000 A 
ATOM     13  C   UNL     1      85.917  71.667  85.852  0.00  0.00    +0.000 A 
ATOM     14  C   UNL     1      87.197  71.114  85.916  0.00  0.00    +0.000 A 
ATOM     15  C   UNL     1      87.781  70.810  87.157  0.00  0.00    +0.000 A 
ATOM     16  C   UNL     1      87.057  71.073  88.328  0.00  0.00    +0.000 A 
ATOM     17  C   UNL     1      85.776  71.623  88.260  0.00  0.00    +0.000 A 
ENDBRANCH  11  15
ENDBRANCH   1  11
TORSDOF 2
ENDMDL
