REMARK  Name = *****
REMARK  2 active torsions:
REMARK  status: ('A' for Active; 'I' for Inactive)
REMARK    1  A    between atoms: C_1  and  C_2
REMARK    2  A    between atoms: C_9  and  C_10
REMARK                            x       y       z     vdW  Elec       q    Type
REMARK                         _______ _______ _______ _____ _____    ______ ____
ROOT
ATOM      1  C   UNL     1       1.049  -0.206   0.006  0.00  0.00    +0.000 C 
ATOM      2  C   UNL     1       2.543  -0.060   0.005  0.00  0.00    +0.000 A 
ATOM      3  C   UNL     1       3.131   1.214  -0.038  0.00  0.00    +0.000 A 
ATOM      4  C   UNL     1       4.516   1.321  -0.071  0.00  0.00    +0.000 A 
ATOM      5  C   UNL     1       5.315   0.175  -0.082  0.00  0.00    +0.000 A 
ATOM      6  C   UNL     1       6.773   0.508  -0.081  0.00  0.00    +0.000 C 
ATOM      7  C   UNL     1       6.783   2.012  -0.386  0.00  0.00    +0.000 C 
ATOM      8  C   UNL     1       5.376   2.505  -0.123  0.00  0.00    +0.000 C 
ATOM      9  C   UNL     1       4.972   3.766   0.090  0.00  0.00    +0.000 C 
ATOM     10  C   UNL     1       4.753  -1.092  -0.045  0.00  0.00    +0.000 A 
ATOM     11  C   UNL     1       3.361  -1.205  -0.010  0.00  0.00    +0.000 A 
ENDROOT
BRANCH   9  12
ATOM     12  C   UNL     1       5.868   4.925   0.053  0.00  0.00    +0.000 A 
ATOM     13  C   UNL     1       6.482   5.326  -1.133  0.00  0.00    +0.000 A 
ATOM     14  C   UNL     1       7.309   6.436  -1.102  0.00  0.00    +0.000 A 
ATOM     15  N   UNL     1       7.556   7.158   0.012  0.00  0.00    +0.000 NA
ATOM     16  C   UNL     1       6.944   6.752   1.145  0.00  0.00    +0.000 A 
ATOM     17  C   UNL     1       6.098   5.658   1.216  0.00  0.00    +0.000 A 
ENDBRANCH   9  12
TORSDOF 1
