MODEL 1
REMARK VINA RESULT:      -4.6      0.000      0.000
REMARK  Name = *****
REMARK  3 active torsions:
REMARK  status: ('A' for Active; 'I' for Inactive)
REMARK    1  A    between atoms: C_4  and  O_7
REMARK    2  A    between atoms: O_7  and  C_8
REMARK    3  A    between atoms: C_8  and  C_10
REMARK                            x       y       z     vdW  Elec       q    Type
REMARK                         _______ _______ _______ _____ _____    ______ ____
ROOT
ATOM      1  C   UNL     1     102.783 125.247  82.530  0.00  0.00    +0.000 C 
ATOM      2  O   UNL     1     102.908 124.896  83.692  0.00  0.00    +0.000 OA
ENDROOT
BRANCH   1   3
ATOM      3  C   UNL     1     103.788 124.948  81.475  0.00  0.00    +0.000 A 
ATOM      4  C   UNL     1     104.262 123.634  81.371  0.00  0.00    +0.000 A 
ATOM      5  C   UNL     1     105.203 123.315  80.396  0.00  0.00    +0.000 A 
ATOM      6  C   UNL     1     105.676 124.290  79.526  0.00  0.00    +0.000 A 
ATOM      7  C   UNL     1     105.215 125.599  79.617  0.00  0.00    +0.000 A 
ATOM      8  C   UNL     1     104.269 125.931  80.592  0.00  0.00    +0.000 A 
ATOM      9  F   UNL     1     106.582 123.976  78.590  0.00  0.00    +0.000 F 
ATOM     10  F   UNL     1     105.651 122.055  80.304  0.00  0.00    +0.000 F 
ENDBRANCH   1   3
BRANCH   1  11
ATOM     11  O   UNL     1     101.741 125.941  82.011  0.00  0.00    +0.000 OA
BRANCH  11  15
ATOM     12  C   UNL     1      99.438 129.208  83.433  0.00  0.00    +0.000 C 
ATOM     13  C   UNL     1      98.742 127.855  83.305  0.00  0.00    +0.000 C 
ATOM     14  C   UNL     1      99.542 126.892  82.435  0.00  0.00    +0.000 C 
ATOM     15  C   UNL     1     100.979 126.732  82.942  0.00  0.00    +0.000 C 
ATOM     16  C   UNL     1     101.668 128.094  83.055  0.00  0.00    +0.000 C 
ATOM     17  C   UNL     1     100.874 129.059  83.926  0.00  0.00    +0.000 C 
ENDBRANCH  11  15
ENDBRANCH   1  11
TORSDOF 3
ENDMDL
