MODEL 1
REMARK VINA RESULT:      -4.3      0.000      0.000
REMARK  Name = *****
REMARK  3 active torsions:
REMARK  status: ('A' for Active; 'I' for Inactive)
REMARK    1  A    between atoms: C_4  and  C_7
REMARK    2  A    between atoms: C_7  and  N_9
REMARK    3  A    between atoms: N_9  and  C_10
REMARK                            x       y       z     vdW  Elec       q    Type
REMARK                         _______ _______ _______ _____ _____    ______ ____
ROOT
ATOM      1  C   UNL     1      88.997  64.426  86.842  0.00  0.00    +0.000 C 
ATOM      2  S   UNL     1      88.934  63.930  85.240  0.00  0.00    +0.000 S 
ENDROOT
BRANCH   1   6
ATOM      3  C   UNL     1      88.512  68.784  86.476  0.00  0.00    +0.000 C 
ATOM      4  C   UNL     1      87.678  68.044  87.518  0.00  0.00    +0.000 C 
ATOM      5  C   UNL     1      87.628  66.543  87.235  0.00  0.00    +0.000 C 
ATOM      6  C   UNL     1      89.041  65.947  87.123  0.00  0.00    +0.000 C 
ATOM      7  C   UNL     1      89.871  66.694  86.066  0.00  0.00    +0.000 C 
ATOM      8  C   UNL     1      89.914  68.194  86.351  0.00  0.00    +0.000 C 
ENDBRANCH   1   6
BRANCH   1   9
ATOM      9  N   UNL     1      88.958  63.652  87.993  0.00  0.00    +0.000 N 
ATOM     10  H   UNL     1      89.836  63.301  88.265  0.00  0.00    +0.000 HD
BRANCH   9  11
ATOM     11  C   UNL     1      87.901  63.268  88.854  0.00  0.00    +0.000 A 
ATOM     12  C   UNL     1      87.635  63.818  90.107  0.00  0.00    +0.000 A 
ATOM     13  C   UNL     1      86.545  63.376  90.866  0.00  0.00    +0.000 A 
ATOM     14  C   UNL     1      85.702  62.383  90.376  0.00  0.00    +0.000 A 
ATOM     15  C   UNL     1      85.941  61.837  89.121  0.00  0.00    +0.000 A 
ATOM     16  C   UNL     1      87.029  62.282  88.364  0.00  0.00    +0.000 A 
ENDBRANCH   9  11
ENDBRANCH   1   9
TORSDOF 3
ENDMDL
