MODEL 1
REMARK VINA RESULT:      -4.5      0.000      0.000
REMARK  Name = *****
REMARK  2 active torsions:
REMARK  status: ('A' for Active; 'I' for Inactive)
REMARK    1  A    between atoms: C_6  and  C_7
REMARK    2  A    between atoms: C_7  and  N_8
REMARK                            x       y       z     vdW  Elec       q    Type
REMARK                         _______ _______ _______ _____ _____    ______ ____
ROOT
ATOM      1  N   UNL     1      88.733  64.547  86.960  0.00  0.00    +0.000 N 
ATOM      2  C   UNL     1      88.762  65.915  86.878  0.00  0.00    +0.000 A 
ATOM      3  C   UNL     1      89.854  66.152  86.048  0.00  0.00    +0.000 A 
ATOM      4  C   UNL     1      90.211  67.471  85.730  0.00  0.00    +0.000 A 
ATOM      5  C   UNL     1      89.447  68.517  86.264  0.00  0.00    +0.000 A 
ATOM      6  C   UNL     1      88.357  68.251  87.094  0.00  0.00    +0.000 A 
ATOM      7  C   UNL     1      87.984  66.942  87.424  0.00  0.00    +0.000 A 
ATOM      8 CL   UNL     1      87.441  69.564  87.732  0.00  0.00    +0.000 Cl
ATOM      9  N   UNL     1      90.412  64.962  85.669  0.00  0.00    +0.000 NA
ATOM     10  N   UNL     1      89.713  63.982  86.226  0.00  0.00    +0.000 NA
ENDROOT
BRANCH   1  11
ATOM     11  C   UNL     1      87.784  63.708  87.669  0.00  0.00    +0.000 C 
BRANCH  11  17
ATOM     12  C   UNL     1      86.692  64.310  89.876  0.00  0.00    +0.000 A 
ATOM     13  C   UNL     1      86.748  64.521  91.255  0.00  0.00    +0.000 A 
ATOM     14  C   UNL     1      87.955  64.356  91.931  0.00  0.00    +0.000 A 
ATOM     15  C   UNL     1      89.105  63.984  91.239  0.00  0.00    +0.000 A 
ATOM     16  C   UNL     1      89.049  63.772  89.859  0.00  0.00    +0.000 A 
ATOM     17  C   UNL     1      87.839  63.924  89.163  0.00  0.00    +0.000 A 
ATOM     18 CL   UNL     1      88.026  64.618  93.630  0.00  0.00    +0.000 Cl
ENDBRANCH  11  17
ENDBRANCH   1  11
TORSDOF 2
ENDMDL
