MODEL 1
REMARK VINA RESULT:      -4.9      0.000      0.000
REMARK  Name = *****
REMARK  2 active torsions:
REMARK  status: ('A' for Active; 'I' for Inactive)
REMARK    1  A    between atoms: C_1  and  C_2
REMARK    2  A    between atoms: C_5  and  C_8
REMARK                            x       y       z     vdW  Elec       q    Type
REMARK                         _______ _______ _______ _____ _____    ______ ____
ROOT
ATOM      1  C   UNL     1     102.354 126.181  82.358  0.00  0.00    +0.000 A 
ATOM      2  N   UNL     1     102.582 127.317  82.995  0.00  0.00    +0.000 NA
ATOM      3  C   UNL     1     101.335 127.870  83.134  0.00  0.00    +0.000 A 
ATOM      4  C   UNL     1     100.918 129.070  83.726  0.00  0.00    +0.000 A 
ATOM      5  C   UNL     1      99.548 129.372  83.714  0.00  0.00    +0.000 A 
ATOM      6  C   UNL     1      98.620 128.502  83.128  0.00  0.00    +0.000 A 
ATOM      7  C   UNL     1      99.021 127.299  82.533  0.00  0.00    +0.000 A 
ATOM      8  C   UNL     1     100.385 127.038  82.567  0.00  0.00    +0.000 A 
ATOM      9  O   UNL     1     101.031 125.949  82.064  0.00  0.00    +0.000 OA
ENDROOT
BRANCH   1  14
ATOM     10  C   UNL     1     106.160 122.122  80.760  0.00  0.00    +0.000 C 
ATOM     11  C   UNL     1     105.152 123.159  81.161  0.00  0.00    +0.000 A 
ATOM     12  C   UNL     1     104.711 123.246  82.486  0.00  0.00    +0.000 A 
ATOM     13  C   UNL     1     103.796 124.235  82.863  0.00  0.00    +0.000 A 
ATOM     14  C   UNL     1     103.310 125.161  81.931  0.00  0.00    +0.000 A 
ATOM     15  C   UNL     1     103.767 125.076  80.608  0.00  0.00    +0.000 A 
ATOM     16  C   UNL     1     104.682 124.089  80.228  0.00  0.00    +0.000 A 
ENDBRANCH   1  14
TORSDOF 1
ENDMDL
