REMARK  Name = *****
REMARK  4 active torsions:
REMARK  status: ('A' for Active; 'I' for Inactive)
REMARK    1  A    between atoms: C_4  and  C_7
REMARK    2  A    between atoms: C_7  and  N_8
REMARK    3  A    between atoms: N_8  and  N_9
REMARK    4  A    between atoms: N_9  and  C_10
REMARK                            x       y       z     vdW  Elec       q    Type
REMARK                         _______ _______ _______ _____ _____    ______ ____
ROOT
ATOM      1  N   UNL     1      -4.061  -0.305   0.488  0.00  0.00    +0.000 NA
ENDROOT
BRANCH   1   2
ATOM      2  C   UNL     1      -2.901  -0.240   0.322  0.00  0.00    +0.000 C 
BRANCH   2   6
ATOM      3  C   UNL     1       1.290  -0.015  -0.197  0.00  0.00    +0.000 A 
ATOM      4  C   UNL     1       0.665  -1.259  -0.099  0.00  0.00    +0.000 A 
ATOM      5  C   UNL     1      -0.719  -1.332   0.071  0.00  0.00    +0.000 A 
ATOM      6  C   UNL     1      -1.480  -0.162   0.143  0.00  0.00    +0.000 A 
ATOM      7  C   UNL     1      -0.852   1.082   0.043  0.00  0.00    +0.000 A 
ATOM      8  C   UNL     1       0.533   1.156  -0.127  0.00  0.00    +0.000 A 
ENDBRANCH   2   6
ENDBRANCH   1   2
BRANCH   1   9
ATOM      9  N   UNL     1      -4.708  -0.652  -0.633  0.00  0.00    +0.000 NA
BRANCH   9  10
ATOM     10  C   UNL     1      -6.049  -0.777  -0.485  0.00  0.00    +0.000 A 
ATOM     11  C   UNL     1      -6.750  -0.599   0.723  0.00  0.00    +0.000 A 
ATOM     12  C   UNL     1      -8.139  -0.749   0.800  0.00  0.00    +0.000 A 
ATOM     13  C   UNL     1      -8.857  -1.082  -0.341  0.00  0.00    +0.000 A 
ATOM     14  C   UNL     1      -8.202  -1.265  -1.553  0.00  0.00    +0.000 A 
ATOM     15  C   UNL     1      -6.813  -1.113  -1.616  0.00  0.00    +0.000 A 
ATOM     16 CL   UNL     1     -10.569  -1.269  -0.255  0.00  0.00    +0.000 Cl
ENDBRANCH   9  10
ENDBRANCH   1   9
TORSDOF 4
