MODEL 1
REMARK VINA RESULT:      -4.4      0.000      0.000
REMARK  Name = *****
REMARK  4 active torsions:
REMARK  status: ('A' for Active; 'I' for Inactive)
REMARK    1  A    between atoms: C_1  and  C_2
REMARK    2  A    between atoms: C_4  and  S_8
REMARK    3  A    between atoms: S_8  and  C_9
REMARK    4  A    between atoms: C_9  and  C_10
REMARK                            x       y       z     vdW  Elec       q    Type
REMARK                         _______ _______ _______ _____ _____    ______ ____
ROOT
ATOM      1  S   UNL     1      87.776  69.141  87.536  0.00  0.00    +0.000 S 
ENDROOT
BRANCH   1   5
ATOM      2  C   UNL     1      90.016  72.025  84.197  0.00  0.00    +0.000 C 
ATOM      3  C   UNL     1      89.852  70.714  84.909  0.00  0.00    +0.000 C 
ATOM      4  C   UNL     1      89.645  70.645  86.239  0.00  0.00    +0.000 C 
ATOM      5  C   UNL     1      89.519  69.358  87.010  0.00  0.00    +0.000 C 
ATOM      6  C   UNL     1      89.976  68.142  86.187  0.00  0.00    +0.000 C 
ATOM      7  C   UNL     1      89.481  68.199  84.743  0.00  0.00    +0.000 C 
ATOM      8  C   UNL     1      89.939  69.481  84.044  0.00  0.00    +0.000 C 
ENDBRANCH   1   5
BRANCH   1   9
ATOM      9  C   UNL     1      87.452  70.802  88.203  0.00  0.00    +0.000 C 
BRANCH   9  10
ATOM     10  C   UNL     1      86.248  71.434  87.551  0.00  0.00    +0.000 A 
ATOM     11  C   UNL     1      85.186  71.916  88.330  0.00  0.00    +0.000 A 
ATOM     12  C   UNL     1      84.070  72.496  87.724  0.00  0.00    +0.000 A 
ATOM     13  C   UNL     1      84.001  72.595  86.335  0.00  0.00    +0.000 A 
ATOM     14  C   UNL     1      85.045  72.110  85.551  0.00  0.00    +0.000 A 
ATOM     15  C   UNL     1      86.163  71.529  86.154  0.00  0.00    +0.000 A 
ENDBRANCH   9  10
ENDBRANCH   1   9
TORSDOF 3
ENDMDL
