MODEL 1
REMARK VINA RESULT:      -3.7      0.000      0.000
REMARK  Name = *****
REMARK  4 active torsions:
REMARK  status: ('A' for Active; 'I' for Inactive)
REMARK    1  A    between atoms: C_4  and  N_7
REMARK    2  A    between atoms: N_7  and  C_8
REMARK    3  A    between atoms: C_8  and  C_9
REMARK    4  A    between atoms: C_10  and  S_14
REMARK                            x       y       z     vdW  Elec       q    Type
REMARK                         _______ _______ _______ _____ _____    ______ ____
ROOT
ATOM      1  C   UNL     1     102.608 125.572  82.624  0.00  0.00    +0.000 C 
ENDROOT
BRANCH   1   2
ATOM      2  C   UNL     1     103.594 124.998  81.738  0.00  0.00    +0.000 A 
ATOM      3  C   UNL     1     104.422 123.900  81.880  0.00  0.00    +0.000 A 
ATOM      4  C   UNL     1     105.252 123.691  80.740  0.00  0.00    +0.000 A 
ATOM      5  C   UNL     1     105.035 124.634  79.762  0.00  0.00    +0.000 A 
ATOM      6  S   UNL     1     103.837 125.763  80.218  0.00  0.00    +0.000 S 
BRANCH   3   7
ATOM      7  S   UNL     1     104.511 122.824  83.270  0.00  0.00    +0.000 S 
ATOM      8  H   UNL     1     103.407 122.029  83.299  0.00  0.00    +0.000 HD
ENDBRANCH   3   7
ENDBRANCH   1   2
BRANCH   1   9
ATOM      9  N   UNL     1     101.453 125.951  82.191  0.00  0.00    +0.000 NA
BRANCH   9  13
ATOM     10  C   UNL     1      99.399 129.485  83.424  0.00  0.00    +0.000 C 
ATOM     11  C   UNL     1      98.589 128.196  83.311  0.00  0.00    +0.000 C 
ATOM     12  C   UNL     1      99.332 127.131  82.509  0.00  0.00    +0.000 C 
ATOM     13  C   UNL     1     100.727 126.862  83.086  0.00  0.00    +0.000 C 
ATOM     14  C   UNL     1     101.535 128.160  83.187  0.00  0.00    +0.000 C 
ATOM     15  C   UNL     1     100.791 129.225  83.990  0.00  0.00    +0.000 C 
ENDBRANCH   9  13
ENDBRANCH   1   9
TORSDOF 4
ENDMDL
