MODEL 1
REMARK VINA RESULT:      -4.4      0.000      0.000
REMARK  Name = *****
REMARK  5 active torsions:
REMARK  status: ('A' for Active; 'I' for Inactive)
REMARK    1  A    between atoms: C_1  and  C_2
REMARK    2  A    between atoms: C_3  and  C_9
REMARK    3  A    between atoms: C_4  and  C_8
REMARK    4  A    between atoms: C_9  and  S_11
REMARK    5  A    between atoms: S_11  and  C_12
REMARK                            x       y       z     vdW  Elec       q    Type
REMARK                         _______ _______ _______ _____ _____    ______ ____
ROOT
ATOM      1  C   UNL     1      88.347  70.663  85.398  0.00  0.00    +0.000 C 
ATOM      2  O   UNL     1      89.402  71.281  85.389  0.00  0.00    +0.000 OA
ENDROOT
BRANCH   1   5
ATOM      3  C   UNL     1      86.035  72.095  84.129  0.00  0.00    +0.000 C 
ATOM      4  C   UNL     1      86.097  71.791  85.601  0.00  0.00    +0.000 A 
ATOM      5  C   UNL     1      87.190  71.128  86.204  0.00  0.00    +0.000 A 
ATOM      6  C   UNL     1      87.223  70.924  87.603  0.00  0.00    +0.000 A 
ATOM      7  C   UNL     1      86.131  71.344  88.377  0.00  0.00    +0.000 A 
ATOM      8  C   UNL     1      85.028  71.950  87.780  0.00  0.00    +0.000 A 
ATOM      9  C   UNL     1      85.013  72.172  86.404  0.00  0.00    +0.000 A 
ATOM     10  C   UNL     1      88.405  70.300  88.295  0.00  0.00    +0.000 C 
ENDBRANCH   1   5
BRANCH   1  11
ATOM     11  S   UNL     1      88.118  69.158  84.517  0.00  0.00    +0.000 S 
BRANCH  11  12
ATOM     12  C   UNL     1      88.995  67.991  85.614  0.00  0.00    +0.000 C 
ATOM     13  C   UNL     1      90.000  67.180  84.784  0.00  0.00    +0.000 C 
ATOM     14  C   UNL     1      90.695  66.122  85.641  0.00  0.00    +0.000 C 
ATOM     15  C   UNL     1      89.687  65.206  86.330  0.00  0.00    +0.000 C 
ATOM     16  C   UNL     1      88.670  66.003  87.142  0.00  0.00    +0.000 C 
ATOM     17  C   UNL     1      87.977  67.066  86.291  0.00  0.00    +0.000 C 
ENDBRANCH  11  12
ENDBRANCH   1  11
TORSDOF 3
ENDMDL
