MODEL 1
REMARK VINA RESULT:      -5.1      0.000      0.000
REMARK  Name = *****
REMARK  2 active torsions:
REMARK  status: ('A' for Active; 'I' for Inactive)
REMARK    1  A    between atoms: C_4  and  C_7
REMARK    2  A    between atoms: C_16  and  C_17
REMARK                            x       y       z     vdW  Elec       q    Type
REMARK                         _______ _______ _______ _____ _____    ______ ____
ROOT
ATOM      1  C   UNL     1     102.246 126.121  82.358  0.00  0.00    +0.000 A 
ATOM      2  C   UNL     1     102.739 125.987  81.109  0.00  0.00    +0.000 A 
ATOM      3  C   UNL     1     103.776 124.970  81.164  0.00  0.00    +0.000 A 
ATOM      4  C   UNL     1     104.486 124.586  80.098  0.00  0.00    +0.000 A 
ATOM      5  C   UNL     1     105.537 123.598  80.037  0.00  0.00    +0.000 A 
ATOM      6  C   UNL     1     106.040 122.833  81.013  0.00  0.00    +0.000 A 
ATOM      7  C   UNL     1     105.681 122.768  82.409  0.00  0.00    +0.000 A 
ATOM      8  C   UNL     1     104.758 123.470  83.080  0.00  0.00    +0.000 A 
ATOM      9  C   UNL     1     103.883 124.484  82.540  0.00  0.00    +0.000 A 
ATOM     10  C   UNL     1     102.960 125.186  83.238  0.00  0.00    +0.000 A 
ENDROOT
BRANCH   1  14
ATOM     11  C   UNL     1      99.150 128.882  83.361  0.00  0.00    +0.000 A 
ATOM     12  C   UNL     1      98.834 127.678  82.736  0.00  0.00    +0.000 A 
ATOM     13  C   UNL     1      99.846 126.774  82.407  0.00  0.00    +0.000 A 
ATOM     14  C   UNL     1     101.184 127.069  82.700  0.00  0.00    +0.000 A 
ATOM     15  C   UNL     1     101.491 128.282  83.328  0.00  0.00    +0.000 A 
ATOM     16  C   UNL     1     100.477 129.185  83.657  0.00  0.00    +0.000 A 
ENDBRANCH   1  14
BRANCH  10  17
ATOM     17  C   UNL     1     102.678 125.057  84.622  0.00  0.00    +0.000 C 
ATOM     18  N   UNL     1     102.431 124.935  85.749  0.00  0.00    +0.000 NA
ENDBRANCH  10  17
TORSDOF 2
ENDMDL
