REMARK  Name = *****
REMARK  4 active torsions:
REMARK  status: ('A' for Active; 'I' for Inactive)
REMARK    1  A    between atoms: C_3  and  C_12
REMARK    2  A    between atoms: C_5  and  C_7
REMARK    3  A    between atoms: C_12  and  O_14
REMARK    4  A    between atoms: O_14  and  C_15
REMARK                            x       y       z     vdW  Elec       q    Type
REMARK                         _______ _______ _______ _____ _____    ______ ____
ROOT
ATOM      1  C   UNL     1      -1.870   0.080  -0.470  0.00  0.00    +0.000 A 
ATOM      2  C   UNL     1      -1.090   1.168  -0.075  0.00  0.00    +0.000 A 
ATOM      3  C   UNL     1       0.272   0.995   0.214  0.00  0.00    +0.000 A 
ATOM      4  C   UNL     1       0.841  -0.274   0.081  0.00  0.00    +0.000 A 
ATOM      5  C   UNL     1       0.071  -1.371  -0.313  0.00  0.00    +0.000 A 
ATOM      6  C   UNL     1      -1.294  -1.185  -0.585  0.00  0.00    +0.000 A 
ATOM      7  F   UNL     1       2.150  -0.464   0.303  0.00  0.00    +0.000 F 
ENDROOT
BRANCH   5   8
ATOM      8  C   UNL     1       0.727  -2.715  -0.436  0.00  0.00    +0.000 C 
ATOM      9  F   UNL     1       1.744  -2.727  -1.340  0.00  0.00    +0.000 F 
ATOM     10  F   UNL     1       1.253  -3.154   0.740  0.00  0.00    +0.000 F 
ATOM     11  F   UNL     1      -0.134  -3.693  -0.840  0.00  0.00    +0.000 F 
ENDBRANCH   5   8
BRANCH   3  12
ATOM     12  C   UNL     1       1.050   2.188   0.624  0.00  0.00    +0.000 C 
ATOM     13  O   UNL     1       0.683   3.326   0.368  0.00  0.00    +0.000 OA
BRANCH  12  14
ATOM     14  O   UNL     1       2.149   1.807   1.364  0.00  0.00    +0.000 OA
BRANCH  14  15
ATOM     15  C   UNL     1       2.925   2.888   1.786  0.00  0.00    +0.000 A 
ATOM     16  C   UNL     1       2.607   3.542   2.975  0.00  0.00    +0.000 A 
ATOM     17  C   UNL     1       3.417   4.592   3.411  0.00  0.00    +0.000 A 
ATOM     18  C   UNL     1       4.537   4.960   2.663  0.00  0.00    +0.000 A 
ATOM     19  C   UNL     1       4.860   4.285   1.484  0.00  0.00    +0.000 A 
ATOM     20  C   UNL     1       4.053   3.236   1.043  0.00  0.00    +0.000 A 
ATOM     21 CL   UNL     1       5.535   6.253   3.206  0.00  0.00    +0.000 Cl
ENDBRANCH  14  15
ENDBRANCH  12  14
ENDBRANCH   3  12
TORSDOF 4
