MODEL 1
REMARK VINA RESULT:      -4.3      0.000      0.000
REMARK  Name = *****
REMARK  3 active torsions:
REMARK  status: ('A' for Active; 'I' for Inactive)
REMARK    1  A    between atoms: C_5  and  S_7
REMARK    2  A    between atoms: S_7  and  C_8
REMARK    3  A    between atoms: C_8  and  C_9
REMARK                            x       y       z     vdW  Elec       q    Type
REMARK                         _______ _______ _______ _____ _____    ______ ____
ROOT
ATOM      1  C   UNL     1     103.030 126.140  83.129  0.00  0.00    +0.000 A 
ATOM      2  C   UNL     1     103.499 124.839  82.923  0.00  0.00    +0.000 A 
ATOM      3  C   UNL     1     103.937 124.422  81.670  0.00  0.00    +0.000 A 
ATOM      4  C   UNL     1     103.917 125.304  80.600  0.00  0.00    +0.000 A 
ATOM      5  C   UNL     1     103.459 126.600  80.781  0.00  0.00    +0.000 A 
ATOM      6  C   UNL     1     103.021 127.015  82.036  0.00  0.00    +0.000 A 
ATOM      7  F   UNL     1     102.579 128.270  82.194  0.00  0.00    +0.000 F 
ATOM      8  F   UNL     1     103.435 127.455  79.749  0.00  0.00    +0.000 F 
ATOM      9  F   UNL     1     104.337 124.903  79.391  0.00  0.00    +0.000 F 
ATOM     10  F   UNL     1     104.377 123.168  81.497  0.00  0.00    +0.000 F 
ATOM     11  F   UNL     1     103.522 123.973  83.947  0.00  0.00    +0.000 F 
ENDROOT
BRANCH   1  12
ATOM     12  C   UNL     1     102.586 126.598  84.490  0.00  0.00    +0.000 C 
BRANCH  12  13
ATOM     13  S   UNL     1     100.775 126.480  84.655  0.00  0.00    +0.000 S 
BRANCH  13  18
ATOM     14  C   UNL     1      99.213 129.965  83.352  0.00  0.00    +0.000 A 
ATOM     15  C   UNL     1      99.653 130.853  84.324  0.00  0.00    +0.000 A 
ATOM     16  C   UNL     1     100.423 130.354  85.361  0.00  0.00    +0.000 A 
ATOM     17  N   UNL     1     100.772 129.055  85.484  0.00  0.00    +0.000 NA
ATOM     18  C   UNL     1     100.335 128.204  84.528  0.00  0.00    +0.000 A 
ATOM     19  C   UNL     1      99.557 128.619  83.453  0.00  0.00    +0.000 A 
ENDBRANCH  13  18
ENDBRANCH  12  13
ENDBRANCH   1  12
TORSDOF 3
ENDMDL
