MODEL 1
REMARK VINA RESULT:      -4.7      0.000      0.000
REMARK  Name = *****
REMARK  5 active torsions:
REMARK  status: ('A' for Active; 'I' for Inactive)
REMARK    1  A    between atoms: C_1  and  C_2
REMARK    2  A    between atoms: C_2  and  C_3
REMARK    3  A    between atoms: C_2  and  C_9
REMARK    4  A    between atoms: C_9  and  C_10
REMARK    5  A    between atoms: C_9  and  C_11
REMARK                            x       y       z     vdW  Elec       q    Type
REMARK                         _______ _______ _______ _____ _____    ______ ____
ROOT
ATOM      1  C   UNL     1      88.274  70.830  89.804  0.00  0.00    +0.000 C 
ATOM      2  C   UNL     1      88.031  70.830  88.284  0.00  0.00    +0.000 C 
ENDROOT
BRANCH   2   3
ATOM      3  C   UNL     1      86.652  71.377  87.929  0.00  0.00    +0.000 A 
ATOM      4  C   UNL     1      86.234  71.569  86.604  0.00  0.00    +0.000 A 
ATOM      5  C   UNL     1      84.964  72.078  86.319  0.00  0.00    +0.000 A 
ATOM      6  C   UNL     1      84.093  72.402  87.356  0.00  0.00    +0.000 A 
ATOM      7  C   UNL     1      84.490  72.220  88.676  0.00  0.00    +0.000 A 
ATOM      8  C   UNL     1      85.758  71.711  88.961  0.00  0.00    +0.000 A 
ENDBRANCH   2   3
BRANCH   2   9
ATOM      9  C   UNL     1      88.376  69.444  87.651  0.00  0.00    +0.000 C 
ATOM     10  C   UNL     1      87.222  68.432  87.643  0.00  0.00    +0.000 C 
BRANCH   9  11
ATOM     11  C   UNL     1      89.045  69.586  86.286  0.00  0.00    +0.000 A 
ATOM     12  C   UNL     1      89.767  70.732  85.920  0.00  0.00    +0.000 A 
ATOM     13  C   UNL     1      90.380  70.820  84.668  0.00  0.00    +0.000 A 
ATOM     14  C   UNL     1      90.283  69.765  83.765  0.00  0.00    +0.000 A 
ATOM     15  C   UNL     1      89.575  68.618  84.114  0.00  0.00    +0.000 A 
ATOM     16  C   UNL     1      88.964  68.528  85.367  0.00  0.00    +0.000 A 
ENDBRANCH   9  11
ENDBRANCH   2   9
TORSDOF 3
ENDMDL
