MODEL 1
REMARK VINA RESULT:      -4.4      0.000      0.000
REMARK  Name = *****
REMARK  4 active torsions:
REMARK  status: ('A' for Active; 'I' for Inactive)
REMARK    1  A    between atoms: C_1  and  C_2
REMARK    2  A    between atoms: C_3  and  C_7
REMARK    3  A    between atoms: C_7  and  C_8
REMARK    4  A    between atoms: C_9  and  C_10
REMARK                            x       y       z     vdW  Elec       q    Type
REMARK                         _______ _______ _______ _____ _____    ______ ____
ROOT
ATOM      1  C   UNL     1     102.891 125.543  83.054  0.00  0.00    +0.000 C 
ATOM      2  C   UNL     1     101.811 125.852  82.315  0.00  0.00    +0.000 C 
ENDROOT
BRANCH   2   3
ATOM      3  C   UNL     1     100.881 126.939  82.647  0.00  0.00    +0.000 A 
ATOM      4  C   UNL     1      99.508 126.846  82.387  0.00  0.00    +0.000 A 
ATOM      5  C   UNL     1      98.646 127.886  82.745  0.00  0.00    +0.000 A 
ATOM      6  C   UNL     1      99.146 129.023  83.376  0.00  0.00    +0.000 A 
ATOM      7  C   UNL     1     100.509 129.119  83.653  0.00  0.00    +0.000 A 
ATOM      8  C   UNL     1     101.371 128.079  83.296  0.00  0.00    +0.000 A 
ENDBRANCH   2   3
BRANCH   1   9
ATOM      9  C   UNL     1     103.845 124.431  82.720  0.00  0.00    +0.000 C 
BRANCH   9  12
ATOM     10  C   UNL     1     104.834 122.336  80.523  0.00  0.00    +0.000 C 
ATOM     11  C   UNL     1     105.058 123.813  80.535  0.00  0.00    +0.000 A 
ATOM     12  C   UNL     1     104.638 124.741  81.479  0.00  0.00    +0.000 A 
ATOM     13  C   UNL     1     105.064 126.064  81.120  0.00  0.00    +0.000 A 
ATOM     14  C   UNL     1     105.772 126.094  79.941  0.00  0.00    +0.000 A 
ATOM     15  S   UNL     1     105.930 124.542  79.254  0.00  0.00    +0.000 S 
ENDBRANCH   9  12
ENDBRANCH   1   9
TORSDOF 3
ENDMDL
