REMARK  Name = *****
REMARK  4 active torsions:
REMARK  status: ('A' for Active; 'I' for Inactive)
REMARK    1  A    between atoms: C_1  and  C_2
REMARK    2  A    between atoms: C_5  and  S_8
REMARK    3  A    between atoms: S_8  and  C_9
REMARK    4  A    between atoms: C_9  and  C_11
REMARK                            x       y       z     vdW  Elec       q    Type
REMARK                         _______ _______ _______ _____ _____    ______ ____
ROOT
ATOM      1  S   UNL     1      -3.540   0.202   0.446  0.00  0.00    +0.000 S 
ENDROOT
BRANCH   1   6
ATOM      2  C   UNL     1       2.316   0.125  -1.241  0.00  0.00    +0.000 C 
ATOM      3  C   UNL     1       0.869   0.173  -0.847  0.00  0.00    +0.000 A 
ATOM      4  C   UNL     1       0.427   1.080   0.122  0.00  0.00    +0.000 A 
ATOM      5  C   UNL     1      -0.916   1.103   0.510  0.00  0.00    +0.000 A 
ATOM      6  C   UNL     1      -1.834   0.221  -0.065  0.00  0.00    +0.000 A 
ATOM      7  C   UNL     1      -1.389  -0.703  -1.015  0.00  0.00    +0.000 A 
ATOM      8  C   UNL     1      -0.046  -0.728  -1.402  0.00  0.00    +0.000 A 
ENDBRANCH   1   6
BRANCH   1   9
ATOM      9  C   UNL     1      -4.146   1.729  -0.201  0.00  0.00    +0.000 C 
ATOM     10  O   UNL     1      -3.409   2.617  -0.615  0.00  0.00    +0.000 OA
BRANCH   9  11
ATOM     11  C   UNL     1      -5.663   1.853  -0.185  0.00  0.00    +0.000 C 
ATOM     12  C   UNL     1      -6.183   1.993  -1.620  0.00  0.00    +0.000 C 
ATOM     13  C   UNL     1      -7.693   2.219  -1.650  0.00  0.00    +0.000 C 
ATOM     14  C   UNL     1      -8.100   3.412  -0.791  0.00  0.00    +0.000 C 
ATOM     15  C   UNL     1      -7.583   3.280   0.639  0.00  0.00    +0.000 C 
ATOM     16  C   UNL     1      -6.074   3.056   0.672  0.00  0.00    +0.000 C 
ENDBRANCH   9  11
ENDBRANCH   1   9
TORSDOF 3
