MODEL 1
REMARK VINA RESULT:      -4.5      0.000      0.000
REMARK  Name = *****
REMARK  2 active torsions:
REMARK  status: ('A' for Active; 'I' for Inactive)
REMARK    1  A    between atoms: C_3  and  C_10
REMARK    2  A    between atoms: C_10  and  C_11
REMARK                            x       y       z     vdW  Elec       q    Type
REMARK                         _______ _______ _______ _____ _____    ______ ____
ROOT
ATOM      1  C   UNL     1      88.527  70.528  88.676  0.00  0.00    +0.000 C 
ATOM      2  C   UNL     1      89.252  70.197  87.396  0.00  0.00    +0.000 C 
ATOM      3  C   UNL     1      88.541  70.504  86.294  0.00  0.00    +0.000 C 
ATOM      4  C   UNL     1      87.260  71.056  86.741  0.00  0.00    +0.000 A 
ATOM      5  C   UNL     1      86.172  71.512  86.018  0.00  0.00    +0.000 A 
ATOM      6  C   UNL     1      85.058  71.989  86.716  0.00  0.00    +0.000 A 
ATOM      7  C   UNL     1      85.045  72.006  88.120  0.00  0.00    +0.000 A 
ATOM      8  C   UNL     1      86.144  71.545  88.847  0.00  0.00    +0.000 A 
ATOM      9  C   UNL     1      87.241  71.074  88.143  0.00  0.00    +0.000 A 
ENDROOT
BRANCH   3  10
ATOM     10  C   UNL     1      88.921  70.304  84.861  0.00  0.00    +0.000 C 
BRANCH  10  11
ATOM     11  C   UNL     1      89.517  71.504  84.172  0.00  0.00    +0.000 A 
ATOM     12  C   UNL     1      88.920  72.721  83.902  0.00  0.00    +0.000 A 
ATOM     13  C   UNL     1      89.802  73.624  83.242  0.00  0.00    +0.000 A 
ATOM     14  C   UNL     1      91.046  73.071  83.037  0.00  0.00    +0.000 A 
ATOM     15  S   UNL     1      91.147  71.475  83.641  0.00  0.00    +0.000 S 
ENDBRANCH  10  11
ENDBRANCH   3  10
TORSDOF 2
ENDMDL
