REMARK  Name = *****
REMARK  6 active torsions:
REMARK  status: ('A' for Active; 'I' for Inactive)
REMARK    1  A    between atoms: C_1  and  C_2
REMARK    2  A    between atoms: C_4  and  C_17
REMARK    3  A    between atoms: C_5  and  O_9
REMARK    4  A    between atoms: C_6  and  C_8
REMARK    5  A    between atoms: O_9  and  C_10
REMARK    6  A    between atoms: C_10  and  C_11
REMARK                            x       y       z     vdW  Elec       q    Type
REMARK                         _______ _______ _______ _____ _____    ______ ____
ROOT
ATOM      1  C   UNL     1       2.386   1.812  -0.451  0.00  0.00    +0.000 C 
ATOM      2  C   UNL     1       1.166   0.953  -0.291  0.00  0.00    +0.000 A 
ATOM      3  C   UNL     1       1.263  -0.305   0.315  0.00  0.00    +0.000 A 
ATOM      4  C   UNL     1       0.127  -1.104   0.503  0.00  0.00    +0.000 A 
ATOM      5  C   UNL     1      -1.125  -0.600   0.113  0.00  0.00    +0.000 A 
ATOM      6  C   UNL     1      -1.242   0.642  -0.529  0.00  0.00    +0.000 A 
ATOM      7  C   UNL     1      -0.089   1.421  -0.700  0.00  0.00    +0.000 A 
ATOM      8  C   UNL     1      -2.568   1.172  -0.992  0.00  0.00    +0.000 C 
ATOM      9  C   UNL     1       0.258  -2.454   1.146  0.00  0.00    +0.000 C 
ENDROOT
BRANCH   5  10
ATOM     10  O   UNL     1      -2.241  -1.373   0.315  0.00  0.00    +0.000 OA
BRANCH  10  11
ATOM     11  C   UNL     1      -2.855  -1.051   1.571  0.00  0.00    +0.000 C 
BRANCH  11  12
ATOM     12  C   UNL     1      -3.623  -2.229   2.136  0.00  0.00    +0.000 A 
ATOM     13  C   UNL     1      -4.343  -2.059   3.330  0.00  0.00    +0.000 A 
ATOM     14  C   UNL     1      -5.049  -3.122   3.896  0.00  0.00    +0.000 A 
ATOM     15  C   UNL     1      -5.044  -4.370   3.276  0.00  0.00    +0.000 A 
ATOM     16  C   UNL     1      -4.335  -4.554   2.092  0.00  0.00    +0.000 A 
ATOM     17  C   UNL     1      -3.628  -3.491   1.525  0.00  0.00    +0.000 A 
ENDBRANCH  11  12
ENDBRANCH  10  11
ENDBRANCH   5  10
TORSDOF 3
