MODEL 1
REMARK VINA RESULT:      -5.1      0.000      0.000
REMARK  Name = *****
REMARK  3 active torsions:
REMARK  status: ('A' for Active; 'I' for Inactive)
REMARK    1  A    between atoms: C_1  and  C_2
REMARK    2  A    between atoms: C_9  and  C_11
REMARK    3  A    between atoms: C_16  and  C_17
REMARK                            x       y       z     vdW  Elec       q    Type
REMARK                         _______ _______ _______ _____ _____    ______ ____
ROOT
ATOM      1  C   UNL     1     106.227 121.973  81.682  0.00  0.00    +0.000 C 
ATOM      2  C   UNL     1     105.269 123.115  81.495  0.00  0.00    +0.000 A 
ATOM      3  C   UNL     1     104.418 123.508  82.546  0.00  0.00    +0.000 A 
ATOM      4  C   UNL     1     103.542 124.580  82.333  0.00  0.00    +0.000 A 
ATOM      5  C   UNL     1     103.544 125.213  81.104  0.00  0.00    +0.000 A 
ATOM      6  C   UNL     1     104.360 124.868  80.036  0.00  0.00    +0.000 A 
ATOM      7  C   UNL     1     105.231 123.795  80.262  0.00  0.00    +0.000 A 
ATOM      8  O   UNL     1     102.616 126.211  81.148  0.00  0.00    +0.000 OA
ATOM      9  C   UNL     1     102.092 126.132  82.419  0.00  0.00    +0.000 A 
ATOM     10  N   UNL     1     102.619 125.170  83.158  0.00  0.00    +0.000 NA
ENDROOT
BRANCH   9  11
ATOM     11  C   UNL     1     101.047 127.115  82.753  0.00  0.00    +0.000 A 
ATOM     12  C   UNL     1      99.704 126.838  82.426  0.00  0.00    +0.000 A 
ATOM     13  C   UNL     1      98.677 127.739  82.721  0.00  0.00    +0.000 A 
ATOM     14  C   UNL     1      98.973 128.941  83.350  0.00  0.00    +0.000 A 
ATOM     15  C   UNL     1     100.292 129.239  83.685  0.00  0.00    +0.000 A 
ATOM     16  C   UNL     1     101.338 128.342  83.395  0.00  0.00    +0.000 A 
ATOM     17  C   UNL     1     102.737 128.738  83.790  0.00  0.00    +0.000 C 
ENDBRANCH   9  11
TORSDOF 1
ENDMDL
