REMARK  Name = *****
REMARK  4 active torsions:
REMARK  status: ('A' for Active; 'I' for Inactive)
REMARK    1  A    between atoms: C_3  and  C_8
REMARK    2  A    between atoms: C_8  and  O_10
REMARK    3  A    between atoms: O_10  and  C_11
REMARK    4  A    between atoms: C_11  and  C_12
REMARK                            x       y       z     vdW  Elec       q    Type
REMARK                         _______ _______ _______ _____ _____    ______ ____
ROOT
ATOM      1  C   UNL     1      -2.037   2.647   0.133  0.00  0.00    +0.000 C 
ATOM      2  O   UNL     1      -3.221   2.680   0.429  0.00  0.00    +0.000 OA
ENDROOT
BRANCH   1   5
ATOM      3  C   UNL     1      -1.214  -1.036   0.252  0.00  0.00    +0.000 A 
ATOM      4  C   UNL     1      -1.913   0.174   0.290  0.00  0.00    +0.000 A 
ATOM      5  C   UNL     1      -1.243   1.390   0.079  0.00  0.00    +0.000 A 
ATOM      6  C   UNL     1       0.134   1.385  -0.167  0.00  0.00    +0.000 A 
ATOM      7  C   UNL     1       0.816   0.173  -0.202  0.00  0.00    +0.000 A 
ATOM      8  C   UNL     1       0.157  -1.034   0.004  0.00  0.00    +0.000 A 
ATOM      9  F   UNL     1       2.135   0.169  -0.439  0.00  0.00    +0.000 F 
ENDBRANCH   1   5
BRANCH   1  10
ATOM     10  O   UNL     1      -1.263   3.709  -0.194  0.00  0.00    +0.000 OA
BRANCH  10  11
ATOM     11  C   UNL     1      -1.907   4.988  -0.144  0.00  0.00    +0.000 C 
BRANCH  11  12
ATOM     12  C   UNL     1      -1.568   5.661   1.161  0.00  0.00    +0.000 A 
ATOM     13  C   UNL     1      -0.372   6.381   1.302  0.00  0.00    +0.000 A 
ATOM     14  C   UNL     1      -0.049   6.983   2.521  0.00  0.00    +0.000 A 
ATOM     15  C   UNL     1      -0.915   6.861   3.605  0.00  0.00    +0.000 A 
ATOM     16  C   UNL     1      -2.100   6.139   3.483  0.00  0.00    +0.000 A 
ATOM     17  C   UNL     1      -2.424   5.537   2.265  0.00  0.00    +0.000 A 
ATOM     18 CL   UNL     1      -0.515   7.602   5.106  0.00  0.00    +0.000 Cl
ENDBRANCH  11  12
ENDBRANCH  10  11
ENDBRANCH   1  10
TORSDOF 4
