MODEL 1
REMARK VINA RESULT:      -4.2      0.000      0.000
REMARK  Name = *****
REMARK  5 active torsions:
REMARK  status: ('A' for Active; 'I' for Inactive)
REMARK    1  A    between atoms: C_1  and  O_2
REMARK    2  A    between atoms: O_2  and  C_3
REMARK    3  A    between atoms: C_8  and  C_9
REMARK    4  A    between atoms: C_9  and  P_10
REMARK    5  A    between atoms: P_10  and  C_11
REMARK                            x       y       z     vdW  Elec       q    Type
REMARK                         _______ _______ _______ _____ _____    ______ ____
ROOT
ATOM      1  C   UNL     1     103.011 125.641  83.674  0.00  0.00    +0.000 C 
ENDROOT
BRANCH   1   7
ATOM      2  C   UNL     1     104.116 123.558  82.696  0.00  0.00    +0.000 A 
ATOM      3  C   UNL     1     104.707 122.897  81.613  0.00  0.00    +0.000 A 
ATOM      4  C   UNL     1     104.834 123.534  80.375  0.00  0.00    +0.000 A 
ATOM      5  C   UNL     1     104.375 124.835  80.209  0.00  0.00    +0.000 A 
ATOM      6  C   UNL     1     103.786 125.504  81.280  0.00  0.00    +0.000 A 
ATOM      7  C   UNL     1     103.643 124.877  82.534  0.00  0.00    +0.000 A 
BRANCH   2   9
ATOM      8  C   UNL     1     104.638 121.797  84.222  0.00  0.00    +0.000 C 
ATOM      9  O   UNL     1     103.954 123.011  83.944  0.00  0.00    +0.000 OA
ENDBRANCH   2   9
ENDBRANCH   1   7
BRANCH   1  10
ATOM     10  P   UNL     1     102.972 127.376  83.068  0.00  0.00    +0.000 P 
ATOM     11  H   UNL     1     103.552 127.497  81.821  0.00  0.00    +0.000 HD
BRANCH  10  12
ATOM     12  C   UNL     1     101.176 127.637  83.006  0.00  0.00    +0.000 A 
ATOM     13  C   UNL     1     100.618 128.819  83.513  0.00  0.00    +0.000 A 
ATOM     14  C   UNL     1      99.237 129.027  83.471  0.00  0.00    +0.000 A 
ATOM     15  C   UNL     1      98.402 128.058  82.920  0.00  0.00    +0.000 A 
ATOM     16  C   UNL     1      98.946 126.881  82.408  0.00  0.00    +0.000 A 
ATOM     17  C   UNL     1     100.327 126.673  82.450  0.00  0.00    +0.000 A 
ENDBRANCH  10  12
ENDBRANCH   1  10
TORSDOF 4
ENDMDL
