MODEL 1
REMARK VINA RESULT:      -4.6      0.000      0.000
REMARK  Name = *****
REMARK  3 active torsions:
REMARK  status: ('A' for Active; 'I' for Inactive)
REMARK    1  A    between atoms: C_6  and  C_7
REMARK    2  A    between atoms: C_7  and  C_8
REMARK    3  A    between atoms: C_8  and  C_10
REMARK                            x       y       z     vdW  Elec       q    Type
REMARK                         _______ _______ _______ _____ _____    ______ ____
ROOT
ATOM      1  C   UNL     1      87.922  70.689  85.807  0.00  0.00    +0.000 C 
ATOM      2  O   UNL     1      88.122  70.644  84.593  0.00  0.00    +0.000 OA
ENDROOT
BRANCH   1   3
ATOM      3  C   UNL     1      86.659  71.311  86.313  0.00  0.00    +0.000 A 
ATOM      4  C   UNL     1      85.678  71.839  85.465  0.00  0.00    +0.000 A 
ATOM      5  C   UNL     1      84.512  72.400  85.999  0.00  0.00    +0.000 A 
ATOM      6  C   UNL     1      84.324  72.439  87.379  0.00  0.00    +0.000 A 
ATOM      7  C   UNL     1      85.294  71.924  88.234  0.00  0.00    +0.000 A 
ATOM      8  C   UNL     1      86.460  71.363  87.702  0.00  0.00    +0.000 A 
ATOM      9 CL   UNL     1      82.888  73.125  88.029  0.00  0.00    +0.000 Cl
ENDBRANCH   1   3
BRANCH   1  10
ATOM     10  C   UNL     1      88.939  70.126  86.784  0.00  0.00    +0.000 C 
BRANCH  10  16
ATOM     11  C   UNL     1      90.020  67.891  86.298  0.00  0.00    +0.000 A 
ATOM     12  C   UNL     1      90.020  66.494  86.335  0.00  0.00    +0.000 A 
ATOM     13  C   UNL     1      88.948  65.814  86.906  0.00  0.00    +0.000 A 
ATOM     14  C   UNL     1      87.872  66.519  87.439  0.00  0.00    +0.000 A 
ATOM     15  C   UNL     1      87.872  67.915  87.404  0.00  0.00    +0.000 A 
ATOM     16  C   UNL     1      88.952  68.617  86.845  0.00  0.00    +0.000 A 
ATOM     17 CL   UNL     1      88.949  64.094  86.945  0.00  0.00    +0.000 Cl
ENDBRANCH  10  16
ENDBRANCH   1  10
TORSDOF 3
ENDMDL
