MODEL 1
REMARK VINA RESULT:      -5.0      0.000      0.000
REMARK  Name = *****
REMARK  1 active torsions:
REMARK  status: ('A' for Active; 'I' for Inactive)
REMARK    1  A    between atoms: C_10  and  C_12
REMARK                            x       y       z     vdW  Elec       q    Type
REMARK                         _______ _______ _______ _____ _____    ______ ____
ROOT
ATOM      1  C   UNL     1     106.265 124.206  79.859  0.00  0.00    +0.000 C 
ATOM      2  C   UNL     1     106.455 123.550  81.240  0.00  0.00    +0.000 C 
ATOM      3  C   UNL     1     105.620 124.452  82.168  0.00  0.00    +0.000 C 
ATOM      4  C   UNL     1     105.872 125.828  81.542  0.00  0.00    +0.000 C 
ATOM      5  C   UNL     1     105.344 125.404  80.168  0.00  0.00    +0.000 C 
ATOM      6  C   UNL     1     103.934 124.854  80.486  0.00  0.00    +0.000 C 
ATOM      7  C   UNL     1     104.132 124.199  81.862  0.00  0.00    +0.000 C 
ATOM      8  C   UNL     1     103.185 124.968  82.746  0.00  0.00    +0.000 C 
ATOM      9  O   UNL     1     103.081 124.785  83.951  0.00  0.00    +0.000 OA
ATOM     10  C   UNL     1     102.407 125.972  81.969  0.00  0.00    +0.000 C 
ATOM     11  C   UNL     1     102.878 125.891  80.714  0.00  0.00    +0.000 C 
ENDROOT
BRANCH  10  12
ATOM     12  C   UNL     1     101.391 126.898  82.477  0.00  0.00    +0.000 A 
ATOM     13  C   UNL     1     101.754 128.071  83.154  0.00  0.00    +0.000 A 
ATOM     14  C   UNL     1     100.783 128.951  83.640  0.00  0.00    +0.000 A 
ATOM     15  C   UNL     1      99.432 128.670  83.458  0.00  0.00    +0.000 A 
ATOM     16  C   UNL     1      99.051 127.509  82.793  0.00  0.00    +0.000 A 
ATOM     17  C   UNL     1     100.023 126.629  82.308  0.00  0.00    +0.000 A 
ENDBRANCH  10  12
TORSDOF 1
ENDMDL
