MODEL 1
REMARK VINA RESULT:      -3.6      0.000      0.000
REMARK  Name = *****
REMARK  5 active torsions:
REMARK  status: ('A' for Active; 'I' for Inactive)
REMARK    1  A    between atoms: C_4  and  C_7
REMARK    2  A    between atoms: C_7  and  O_9
REMARK    3  A    between atoms: O_9  and  C_10
REMARK    4  A    between atoms: C_10  and  C_11
REMARK    5  A    between atoms: C_11  and  C_12
REMARK                            x       y       z     vdW  Elec       q    Type
REMARK                         _______ _______ _______ _____ _____    ______ ____
ROOT
ATOM      1  O   UNL     1      90.325  68.476  84.080  0.00  0.00    +0.000 OA
ENDROOT
BRANCH   1   2
ATOM      2  C   UNL     1      89.502  67.518  83.570  0.00  0.00    +0.000 C 
ATOM      3  O   UNL     1      89.428  67.218  82.386  0.00  0.00    +0.000 OA
BRANCH   2   7
ATOM      4  C   UNL     1      87.414  67.021  87.355  0.00  0.00    +0.000 C 
ATOM      5  C   UNL     1      86.582  67.067  86.076  0.00  0.00    +0.000 C 
ATOM      6  C   UNL     1      87.378  67.648  84.911  0.00  0.00    +0.000 C 
ATOM      7  C   UNL     1      88.692  66.886  84.688  0.00  0.00    +0.000 C 
ATOM      8  C   UNL     1      89.523  66.836  85.975  0.00  0.00    +0.000 C 
ATOM      9  C   UNL     1      88.723  66.268  87.144  0.00  0.00    +0.000 C 
ENDBRANCH   2   7
ENDBRANCH   1   2
BRANCH   1  10
ATOM     10  C   UNL     1      90.148  69.803  83.558  0.00  0.00    +0.000 C 
BRANCH  10  11
ATOM     11  C   UNL     1      90.322  70.872  84.640  0.00  0.00    +0.000 C 
BRANCH  11  12
ATOM     12  C   UNL     1      89.249  70.807  85.702  0.00  0.00    +0.000 A 
ATOM     13  C   UNL     1      87.924  71.150  85.398  0.00  0.00    +0.000 A 
ATOM     14  C   UNL     1      86.937  71.102  86.383  0.00  0.00    +0.000 A 
ATOM     15  C   UNL     1      87.264  70.712  87.682  0.00  0.00    +0.000 A 
ATOM     16  C   UNL     1      88.578  70.369  87.994  0.00  0.00    +0.000 A 
ATOM     17  C   UNL     1      89.567  70.416  87.010  0.00  0.00    +0.000 A 
ENDBRANCH  11  12
ENDBRANCH  10  11
ENDBRANCH   1  10
TORSDOF 5
ENDMDL
