MODEL 1
REMARK VINA RESULT:      -3.9      0.000      0.000
REMARK  Name = *****
REMARK  5 active torsions:
REMARK  status: ('A' for Active; 'I' for Inactive)
REMARK    1  A    between atoms: C_1  and  C_2
REMARK    2  A    between atoms: C_5  and  S_8
REMARK    3  A    between atoms: S_8  and  C_9
REMARK    4  A    between atoms: C_9  and  C_11
REMARK    5  A    between atoms: C_11  and  C_12
REMARK                            x       y       z     vdW  Elec       q    Type
REMARK                         _______ _______ _______ _____ _____    ______ ____
ROOT
ATOM      1  C   UNL     1      89.881  69.812  83.041  0.00  0.00    +0.000 C 
ATOM      2  O   UNL     1      91.096  69.840  82.865  0.00  0.00    +0.000 OA
ENDROOT
BRANCH   1   3
ATOM      3  S   UNL     1      88.956  71.266  83.427  0.00  0.00    +0.000 S 
BRANCH   3   8
ATOM      4  C   UNL     1      87.873  70.383  89.362  0.00  0.00    +0.000 C 
ATOM      5  C   UNL     1      88.139  70.593  87.901  0.00  0.00    +0.000 A 
ATOM      6  C   UNL     1      87.096  70.899  87.018  0.00  0.00    +0.000 A 
ATOM      7  C   UNL     1      87.357  71.111  85.660  0.00  0.00    +0.000 A 
ATOM      8  C   UNL     1      88.664  71.032  85.170  0.00  0.00    +0.000 A 
ATOM      9  C   UNL     1      89.704  70.726  86.050  0.00  0.00    +0.000 A 
ATOM     10  C   UNL     1      89.446  70.518  87.407  0.00  0.00    +0.000 A 
ENDBRANCH   3   8
ENDBRANCH   1   3
BRANCH   1  11
ATOM     11  C   UNL     1      89.073  68.535  82.999  0.00  0.00    +0.000 C 
BRANCH  11  12
ATOM     12  C   UNL     1      89.005  67.806  84.319  0.00  0.00    +0.000 A 
ATOM     13  C   UNL     1      90.171  67.350  84.952  0.00  0.00    +0.000 A 
ATOM     14  C   UNL     1      90.100  66.705  86.188  0.00  0.00    +0.000 A 
ATOM     15  C   UNL     1      88.867  66.523  86.811  0.00  0.00    +0.000 A 
ATOM     16  C   UNL     1      87.704  66.985  86.199  0.00  0.00    +0.000 A 
ATOM     17  C   UNL     1      87.772  67.625  84.961  0.00  0.00    +0.000 A 
ENDBRANCH  11  12
ENDBRANCH   1  11
TORSDOF 4
ENDMDL
