REMARK  Name = *****
REMARK  0 active torsions:
REMARK  status: ('A' for Active; 'I' for Inactive)
REMARK                            x       y       z     vdW  Elec       q    Type
REMARK                         _______ _______ _______ _____ _____    ______ ____
ROOT
ATOM      1  C   UNL     1       0.585   1.000  -0.804  0.00  0.00    +0.000 C 
ATOM      2  C   UNL     1       1.447   0.138   0.115  0.00  0.00    +0.000 C 
ATOM      3  C   UNL     1       0.919  -1.295   0.212  0.00  0.00    +0.000 C 
ATOM      4  C   UNL     1      -0.541  -1.317   0.619  0.00  0.00    +0.000 C 
ATOM      5  C   UNL     1      -1.011  -2.003   1.685  0.00  0.00    +0.000 C 
ATOM      6  C   UNL     1      -2.452  -2.066   2.122  0.00  0.00    +0.000 C 
ATOM      7  C   UNL     1      -2.600  -3.362   2.916  0.00  0.00    +0.000 C 
ATOM      8  C   UNL     1      -3.215  -4.546   2.120  0.00  0.00    +0.000 C 
ATOM      9  C   UNL     1      -2.024  -5.073   1.314  0.00  0.00    +0.000 C 
ATOM     10  C   UNL     1      -1.154  -5.279   2.558  0.00  0.00    +0.000 C 
ATOM     11  C   UNL     1      -1.159  -3.874   3.222  0.00  0.00    +0.000 C 
ATOM     12  C   UNL     1      -0.189  -2.870   2.603  0.00  0.00    +0.000 C 
ATOM     13  C   UNL     1      -2.112  -6.145   3.351  0.00  0.00    +0.000 C 
ATOM     14  C   UNL     1      -3.352  -5.704   3.087  0.00  0.00    +0.000 C 
ATOM     15  C   UNL     1      -1.412  -0.465  -0.283  0.00  0.00    +0.000 C 
ATOM     16  C   UNL     1      -0.881   0.966  -0.379  0.00  0.00    +0.000 C 
ENDROOT
TORSDOF 0
