REMARK  Name = *****
REMARK  4 active torsions:
REMARK  status: ('A' for Active; 'I' for Inactive)
REMARK    1  A    between atoms: C_1  and  C_2
REMARK    2  A    between atoms: C_2  and  C_8
REMARK    3  A    between atoms: C_8  and  O_10
REMARK    4  A    between atoms: O_10  and  C_11
REMARK                            x       y       z     vdW  Elec       q    Type
REMARK                         _______ _______ _______ _____ _____    ______ ____
ROOT
ATOM      1  C   UNL     1       3.232   0.287  -1.433  0.00  0.00    +0.000 C 
ATOM      2  O   UNL     1       2.614   0.582  -2.450  0.00  0.00    +0.000 OA
ENDROOT
BRANCH   1   4
ATOM      3  C   UNL     1       3.658   0.450   1.088  0.00  0.00    +0.000 C 
ATOM      4  C   UNL     1       2.619   0.179  -0.011  0.00  0.00    +0.000 C 
ATOM      5  C   UNL     1       1.521   1.227   0.116  0.00  0.00    +0.000 C 
ATOM      6  C   UNL     1       0.231   0.931   0.350  0.00  0.00    +0.000 C 
ATOM      7  C   UNL     1      -0.282  -0.471   0.509  0.00  0.00    +0.000 C 
ATOM      8  C   UNL     1       0.786  -1.520   0.374  0.00  0.00    +0.000 C 
ATOM      9  C   UNL     1       2.079  -1.236   0.142  0.00  0.00    +0.000 C 
ENDBRANCH   1   4
BRANCH   1  10
ATOM     10  O   UNL     1       4.555  -0.062  -1.425  0.00  0.00    +0.000 OA
BRANCH  10  11
ATOM     11  C   UNL     1       5.228  -0.047  -2.697  0.00  0.00    +0.000 C 
ATOM     12  C   UNL     1       5.031  -1.394  -3.397  0.00  0.00    +0.000 C 
ATOM     13  C   UNL     1       5.858  -1.491  -4.675  0.00  0.00    +0.000 C 
ATOM     14  C   UNL     1       7.336  -1.212  -4.412  0.00  0.00    +0.000 C 
ATOM     15  C   UNL     1       7.541   0.124  -3.704  0.00  0.00    +0.000 C 
ATOM     16  C   UNL     1       6.712   0.213  -2.427  0.00  0.00    +0.000 C 
ENDBRANCH  10  11
ENDBRANCH   1  10
TORSDOF 3
