MODEL 1
REMARK VINA RESULT:      -4.2      0.000      0.000
REMARK  Name = *****
REMARK  2 active torsions:
REMARK  status: ('A' for Active; 'I' for Inactive)
REMARK    1  A    between atoms: C_6  and  C_7
REMARK    2  A    between atoms: C_7  and  C_8
REMARK                            x       y       z     vdW  Elec       q    Type
REMARK                         _______ _______ _______ _____ _____    ______ ____
ROOT
ATOM      1  C   UNL     1     102.030 126.269  82.841  0.00  0.00    +0.000 C 
ENDROOT
BRANCH   1   2
ATOM      2  C   UNL     1     103.036 125.371  82.257  0.00  0.00    +0.000 A 
ATOM      3  C   UNL     1     103.697 124.391  83.012  0.00  0.00    +0.000 A 
ATOM      4  C   UNL     1     104.625 123.535  82.410  0.00  0.00    +0.000 A 
ATOM      5  C   UNL     1     104.891 123.648  81.048  0.00  0.00    +0.000 A 
ATOM      6  C   UNL     1     104.232 124.604  80.280  0.00  0.00    +0.000 A 
ATOM      7  C   UNL     1     103.303 125.459  80.883  0.00  0.00    +0.000 A 
ATOM      8 CL   UNL     1     106.032 122.595  80.307  0.00  0.00    +0.000 Cl
ENDBRANCH   1   2
BRANCH   1  14
ATOM      9  C   UNL     1      97.372 127.247  83.243  0.00  0.00    +0.000 C 
ATOM     10  C   UNL     1      97.640 126.450  84.508  0.00  0.00    +0.000 C 
ATOM     11  S   UNL     1      99.431 126.553  84.658  0.00  0.00    +0.000 S 
ATOM     12  C   UNL     1      99.561 126.758  82.929  0.00  0.00    +0.000 C 
ATOM     13  N   UNL     1      98.481 127.059  82.286  0.00  0.00    +0.000 NA
ATOM     14  C   UNL     1     100.862 126.561  82.250  0.00  0.00    +0.000 C 
ENDBRANCH   1  14
TORSDOF 2
ENDMDL
