MODEL 1
REMARK VINA RESULT:      -4.5      0.000      0.000
REMARK  Name = *****
REMARK  5 active torsions:
REMARK  status: ('A' for Active; 'I' for Inactive)
REMARK    1  A    between atoms: C_1  and  C_2
REMARK    2  A    between atoms: C_5  and  C_8
REMARK    3  A    between atoms: C_9  and  C_10
REMARK    4  A    between atoms: N_15  and  C_16
REMARK    5  A    between atoms: N_15  and  C_17
REMARK                            x       y       z     vdW  Elec       q    Type
REMARK                         _______ _______ _______ _____ _____    ______ ____
ROOT
ATOM      1  C   UNL     1     102.858 125.876  82.301  0.00  0.00    +0.000 C 
ATOM      2  C   UNL     1     103.271 125.662  81.040  0.00  0.00    +0.000 C 
ENDROOT
BRANCH   2   3
ATOM      3  C   UNL     1     104.271 124.715  80.662  0.00  0.00    +0.000 A 
ATOM      4  C   UNL     1     105.208 124.926  79.679  0.00  0.00    +0.000 A 
ATOM      5  S   UNL     1     106.205 123.545  79.540  0.00  0.00    +0.000 S 
ATOM      6  C   UNL     1     105.320 122.757  80.813  0.00  0.00    +0.000 A 
ATOM      7  N   UNL     1     104.339 123.493  81.296  0.00  0.00    +0.000 NA
ATOM      8  N   UNL     1     105.596 121.489  81.256  0.00  0.00    +0.000 N 
ATOM      9  C   UNL     1     106.928 120.929  81.078  0.00  0.00    +0.000 C 
ATOM     10  C   UNL     1     104.881 121.058  82.453  0.00  0.00    +0.000 C 
ENDBRANCH   2   3
BRANCH   1  15
ATOM     11  C   UNL     1      98.905 129.771  83.940  0.00  0.00    +0.000 C 
ATOM     12  C   UNL     1      99.923 128.771  83.480  0.00  0.00    +0.000 A 
ATOM     13  C   UNL     1      99.523 127.588  82.848  0.00  0.00    +0.000 A 
ATOM     14  C   UNL     1     100.472 126.641  82.450  0.00  0.00    +0.000 A 
ATOM     15  C   UNL     1     101.836 126.859  82.677  0.00  0.00    +0.000 A 
ATOM     16  C   UNL     1     102.230 128.028  83.338  0.00  0.00    +0.000 A 
ATOM     17  C   UNL     1     101.283 128.976  83.736  0.00  0.00    +0.000 A 
ENDBRANCH   1  15
TORSDOF 2
ENDMDL
