REMARK  Name = *****
REMARK  4 active torsions:
REMARK  status: ('A' for Active; 'I' for Inactive)
REMARK    1  A    between atoms: C_1  and  C_2
REMARK    2  A    between atoms: C_2  and  C_5
REMARK    3  A    between atoms: C_10  and  C_11
REMARK    4  A    between atoms: C_12  and  C_13
REMARK                            x       y       z     vdW  Elec       q    Type
REMARK                         _______ _______ _______ _____ _____    ______ ____
ROOT
ATOM      1  C   UNL     1       3.342   1.312   0.223  0.00  0.00    +0.000 A 
ATOM      2  C   UNL     1       2.917   2.221   1.206  0.00  0.00    +0.000 A 
ATOM      3  C   UNL     1       3.568   3.445   1.371  0.00  0.00    +0.000 A 
ATOM      4  C   UNL     1       4.651   3.773   0.559  0.00  0.00    +0.000 A 
ATOM      5  C   UNL     1       5.084   2.880  -0.421  0.00  0.00    +0.000 A 
ATOM      6  C   UNL     1       4.436   1.651  -0.596  0.00  0.00    +0.000 A 
ENDROOT
BRANCH   1   8
ATOM      7  C   UNL     1       3.105  -1.088   0.965  0.00  0.00    +0.000 C 
ATOM      8  C   UNL     1       2.626   0.031   0.092  0.00  0.00    +0.000 C 
ATOM      9  C   UNL     1       1.641  -0.084  -0.752  0.00  0.00    +0.000 C 
ATOM     10  O   UNL     1       0.743  -0.204  -1.502  0.00  0.00    +0.000 OA
ENDBRANCH   1   8
BRANCH   6  11
ATOM     11  C   UNL     1       4.915   0.768  -1.620  0.00  0.00    +0.000 C 
ATOM     12  C   UNL     1       5.311   0.035  -2.485  0.00  0.00    +0.000 C 
BRANCH  12  13
ATOM     13  C   UNL     1       5.777  -0.830  -3.525  0.00  0.00    +0.000 A 
ATOM     14  C   UNL     1       6.908  -0.483  -4.267  0.00  0.00    +0.000 A 
ATOM     15  C   UNL     1       7.359  -1.323  -5.288  0.00  0.00    +0.000 A 
ATOM     16  C   UNL     1       6.680  -2.510  -5.565  0.00  0.00    +0.000 A 
ATOM     17  C   UNL     1       5.551  -2.857  -4.824  0.00  0.00    +0.000 A 
ATOM     18  C   UNL     1       5.098  -2.018  -3.804  0.00  0.00    +0.000 A 
ENDBRANCH  12  13
ENDBRANCH   6  11
TORSDOF 3
