REMARK  Name = *****
REMARK  4 active torsions:
REMARK  status: ('A' for Active; 'I' for Inactive)
REMARK    1  A    between atoms: C_1  and  C_2
REMARK    2  A    between atoms: C_4  and  N_8
REMARK    3  A    between atoms: N_8  and  O_18
REMARK    4  A    between atoms: C_9  and  C_11
REMARK                            x       y       z     vdW  Elec       q    Type
REMARK                         _______ _______ _______ _____ _____    ______ ____
ROOT
ATOM      1  N   UNL     1      -1.881   2.374  -0.031  0.00  0.00    +0.000 N 
ATOM      2  C   UNL     1      -3.225   2.583   0.268  0.00  0.00    +0.000 C 
ATOM      3  O   UNL     1      -4.025   1.740   0.670  0.00  0.00    +0.000 OA
ENDROOT
BRANCH   1   7
ATOM      4  C   UNL     1      -1.787  -2.608   0.375  0.00  0.00    +0.000 C 
ATOM      5  C   UNL     1      -1.089  -1.308   0.101  0.00  0.00    +0.000 A 
ATOM      6  C   UNL     1      -1.800  -0.096   0.169  0.00  0.00    +0.000 A 
ATOM      7  C   UNL     1      -1.185   1.133  -0.109  0.00  0.00    +0.000 A 
ATOM      8  C   UNL     1       0.169   1.113  -0.484  0.00  0.00    +0.000 A 
ATOM      9  C   UNL     1       0.881  -0.086  -0.572  0.00  0.00    +0.000 A 
ATOM     10  C   UNL     1       0.253  -1.293  -0.283  0.00  0.00    +0.000 A 
ENDBRANCH   1   7
BRANCH   2  11
ATOM     11  C   UNL     1      -3.762   3.964   0.125  0.00  0.00    +0.000 A 
ATOM     12  C   UNL     1      -3.576   4.705  -1.050  0.00  0.00    +0.000 A 
ATOM     13  C   UNL     1      -4.125   5.985  -1.161  0.00  0.00    +0.000 A 
ATOM     14  C   UNL     1      -4.871   6.514  -0.108  0.00  0.00    +0.000 A 
ATOM     15  C   UNL     1      -5.082   5.773   1.054  0.00  0.00    +0.000 A 
ATOM     16  C   UNL     1      -4.533   4.493   1.169  0.00  0.00    +0.000 A 
ATOM     17 CL   UNL     1      -5.546   8.091  -0.248  0.00  0.00    +0.000 Cl
ENDBRANCH   2  11
BRANCH   1  18
ATOM     18  O   UNL     1      -1.090   3.517  -0.302  0.00  0.00    +0.000 OA
ATOM     19  H   UNL     1      -0.180   3.243  -0.494  0.00  0.00    +0.000 HD
ENDBRANCH   1  18
TORSDOF 3
