MODEL 1
REMARK VINA RESULT:      -4.1      0.000      0.000
REMARK  Name = *****
REMARK  4 active torsions:
REMARK  status: ('A' for Active; 'I' for Inactive)
REMARK    1  A    between atoms: C_1  and  C_2
REMARK    2  A    between atoms: C_2  and  C_9
REMARK    3  A    between atoms: C_9  and  C_10
REMARK    4  A    between atoms: C_10  and  C_11
REMARK                            x       y       z     vdW  Elec       q    Type
REMARK                         _______ _______ _______ _____ _____    ______ ____
ROOT
ATOM      1  C   UNL     1      99.497 129.724  83.449  0.00  0.00    +0.000 C 
ATOM      2  C   UNL     1      99.427 128.371  84.187  0.00  0.00    +0.000 C 
ATOM      3  S   UNL     1      99.114 128.780  85.962  0.00  0.00    +0.000 S 
ATOM      4  C   UNL     1      98.857 127.122  86.655  0.00  0.00    +0.000 C 
ATOM      5  C   UNL     1      97.697 126.387  86.001  0.00  0.00    +0.000 C 
ATOM      6  C   UNL     1      97.950 126.031  84.547  0.00  0.00    +0.000 C 
ATOM      7  S   UNL     1      97.956 127.482  83.469  0.00  0.00    +0.000 S 
ATOM      8  O   UNL     1      98.313 127.023  82.085  0.00  0.00    +0.000 OA
ENDROOT
BRANCH   2   9
ATOM      9  C   UNL     1     100.728 127.562  83.967  0.00  0.00    +0.000 C 
BRANCH   9  10
ATOM     10  C   UNL     1     101.892 128.342  83.337  0.00  0.00    +0.000 C 
BRANCH  10  11
ATOM     11  C   UNL     1     102.597 127.518  82.285  0.00  0.00    +0.000 A 
ATOM     12  C   UNL     1     103.568 128.100  81.460  0.00  0.00    +0.000 A 
ATOM     13  C   UNL     1     104.204 127.342  80.476  0.00  0.00    +0.000 A 
ATOM     14  C   UNL     1     103.874 125.999  80.304  0.00  0.00    +0.000 A 
ATOM     15  C   UNL     1     102.905 125.412  81.116  0.00  0.00    +0.000 A 
ATOM     16  C   UNL     1     102.267 126.168  82.101  0.00  0.00    +0.000 A 
ENDBRANCH  10  11
ENDBRANCH   9  10
ENDBRANCH   2   9
TORSDOF 3
ENDMDL
