MODEL 1
REMARK VINA RESULT:      -4.8      0.000      0.000
REMARK  Name = *****
REMARK  3 active torsions:
REMARK  status: ('A' for Active; 'I' for Inactive)
REMARK    1  A    between atoms: C_1  and  C_2
REMARK    2  A    between atoms: C_2  and  C_10
REMARK    3  A    between atoms: N_3  and  C_4
REMARK                            x       y       z     vdW  Elec       q    Type
REMARK                         _______ _______ _______ _____ _____    ______ ____
ROOT
ATOM      1  C   UNL     1     103.137 127.298  80.833  0.00  0.00    +0.000 C 
ATOM      2  C   UNL     1     102.924 126.011  81.611  0.00  0.00    +0.000 C 
ATOM      3  N   UNL     1     101.980 125.842  82.493  0.00  0.00    +0.000 NA
ENDROOT
BRANCH   2   4
ATOM      4  C   UNL     1     103.845 124.865  81.337  0.00  0.00    +0.000 A 
ATOM      5  C   UNL     1     104.478 124.714  80.096  0.00  0.00    +0.000 A 
ATOM      6  C   UNL     1     105.327 123.626  79.873  0.00  0.00    +0.000 A 
ATOM      7  C   UNL     1     105.533 122.694  80.883  0.00  0.00    +0.000 A 
ATOM      8  C   UNL     1     104.903 122.822  82.115  0.00  0.00    +0.000 A 
ATOM      9  C   UNL     1     104.054 123.908  82.343  0.00  0.00    +0.000 A 
ATOM     10  F   UNL     1     106.346 121.652  80.664  0.00  0.00    +0.000 F 
ENDBRANCH   2   4
BRANCH   3  11
ATOM     11  C   UNL     1     101.074 126.874  82.764  0.00  0.00    +0.000 A 
ATOM     12  C   UNL     1      99.739 126.769  82.367  0.00  0.00    +0.000 A 
ATOM     13  C   UNL     1      98.832 127.791  82.658  0.00  0.00    +0.000 A 
ATOM     14  C   UNL     1      99.255 128.918  83.362  0.00  0.00    +0.000 A 
ATOM     15  C   UNL     1     100.582 129.019  83.780  0.00  0.00    +0.000 A 
ATOM     16  C   UNL     1     101.486 127.996  83.487  0.00  0.00    +0.000 A 
ENDBRANCH   3  11
TORSDOF 2
ENDMDL
