MODEL 1
REMARK VINA RESULT:      -4.7      0.000      0.000
REMARK  Name = *****
REMARK  5 active torsions:
REMARK  status: ('A' for Active; 'I' for Inactive)
REMARK    1  A    between atoms: C_1  and  O_2
REMARK    2  A    between atoms: O_2  and  C_3
REMARK    3  A    between atoms: C_3  and  C_4
REMARK    4  A    between atoms: C_7  and  C_10
REMARK    5  A    between atoms: C_11  and  C_12
REMARK                            x       y       z     vdW  Elec       q    Type
REMARK                         _______ _______ _______ _____ _____    ______ ____
ROOT
ATOM      1  C   UNL     1     105.781 123.102  80.762  0.00  0.00    +0.000 A 
ATOM      2  C   UNL     1     105.491 124.050  79.773  0.00  0.00    +0.000 A 
ATOM      3  C   UNL     1     104.503 125.020  79.977  0.00  0.00    +0.000 A 
ATOM      4  C   UNL     1     103.770 125.049  81.169  0.00  0.00    +0.000 A 
ATOM      5  C   UNL     1     104.061 124.105  82.160  0.00  0.00    +0.000 A 
ATOM      6  C   UNL     1     105.047 123.134  81.955  0.00  0.00    +0.000 A 
ENDROOT
BRANCH   4   7
ATOM      7  C   UNL     1     102.751 126.073  81.439  0.00  0.00    +0.000 C 
ATOM      8  C   UNL     1     101.817 125.961  82.398  0.00  0.00    +0.000 C 
BRANCH   8   9
ATOM      9  C   UNL     1     100.808 126.994  82.675  0.00  0.00    +0.000 A 
ATOM     10  C   UNL     1      99.454 126.818  82.361  0.00  0.00    +0.000 A 
ATOM     11  C   UNL     1      98.518 127.810  82.670  0.00  0.00    +0.000 A 
ATOM     12  C   UNL     1      98.926 128.982  83.305  0.00  0.00    +0.000 A 
ATOM     13  C   UNL     1     100.267 129.160  83.636  0.00  0.00    +0.000 A 
ATOM     14  C   UNL     1     101.202 128.169  83.329  0.00  0.00    +0.000 A 
ENDBRANCH   8   9
ENDBRANCH   4   7
BRANCH   1  15
ATOM     15  C   UNL     1     106.817 122.030  80.531  0.00  0.00    +0.000 C 
BRANCH  15  17
ATOM     16  C   UNL     1     107.525 120.002  81.495  0.00  0.00    +0.000 C 
ATOM     17  O   UNL     1     106.409 120.814  81.157  0.00  0.00    +0.000 OA
ENDBRANCH  15  17
ENDBRANCH   1  15
TORSDOF 4
ENDMDL
