MODEL 1
REMARK VINA RESULT:      -4.9      0.000      0.000
REMARK  Name = *****
REMARK  6 active torsions:
REMARK  status: ('A' for Active; 'I' for Inactive)
REMARK    1  A    between atoms: C_1  and  C_2
REMARK    2  A    between atoms: C_5  and  N_8
REMARK    3  A    between atoms: N_8  and  N_9
REMARK    4  A    between atoms: N_9  and  C_10
REMARK    5  A    between atoms: N_9  and  C_11
REMARK    6  A    between atoms: C_14  and  C_17
REMARK                            x       y       z     vdW  Elec       q    Type
REMARK                         _______ _______ _______ _____ _____    ______ ____
ROOT
ATOM      1  N   UNL     1      89.160  63.723  87.872  0.00  0.00    +0.000 N 
ATOM      2  H   UNL     1      90.061  63.344  87.990  0.00  0.00    +0.000 HD
ENDROOT
BRANCH   1   7
ATOM      3  C   UNL     1      85.055  62.584  91.716  0.00  0.00    +0.000 C 
ATOM      4  C   UNL     1      86.131  62.897  90.720  0.00  0.00    +0.000 A 
ATOM      5  C   UNL     1      87.138  63.821  91.015  0.00  0.00    +0.000 A 
ATOM      6  C   UNL     1      88.144  64.093  90.082  0.00  0.00    +0.000 A 
ATOM      7  C   UNL     1      88.183  63.432  88.850  0.00  0.00    +0.000 A 
ATOM      8  C   UNL     1      87.155  62.530  88.549  0.00  0.00    +0.000 A 
ATOM      9  C   UNL     1      86.146  62.256  89.477  0.00  0.00    +0.000 A 
ENDBRANCH   1   7
BRANCH   1  10
ATOM     10  N   UNL     1      88.926  64.506  86.768  0.00  0.00    +0.000 N 
ATOM     11  C   UNL     1      88.895  63.809  85.482  0.00  0.00    +0.000 C 
BRANCH  10  12
ATOM     12  C   UNL     1      88.937  65.917  86.800  0.00  0.00    +0.000 A 
ATOM     13  C   UNL     1      90.026  66.638  86.281  0.00  0.00    +0.000 A 
ATOM     14  C   UNL     1      90.072  68.038  86.310  0.00  0.00    +0.000 A 
ATOM     15  C   UNL     1      89.019  68.769  86.857  0.00  0.00    +0.000 A 
ATOM     16  C   UNL     1      87.934  68.075  87.395  0.00  0.00    +0.000 A 
ATOM     17  C   UNL     1      87.895  66.673  87.361  0.00  0.00    +0.000 A 
ATOM     18  C   UNL     1      89.087  70.265  86.928  0.00  0.00    +0.000 C 
ENDBRANCH  10  12
ENDBRANCH   1  10
TORSDOF 3
ENDMDL
