MODEL 1
REMARK VINA RESULT:      -3.9      0.000      0.000
REMARK  Name = *****
REMARK  5 active torsions:
REMARK  status: ('A' for Active; 'I' for Inactive)
REMARK    1  A    between atoms: C_1  and  N_2
REMARK    2  A    between atoms: N_2  and  C_3
REMARK    3  A    between atoms: N_2  and  C_10
REMARK    4  A    between atoms: C_3  and  C_4
REMARK    5  A    between atoms: C_10  and  C_12
REMARK                            x       y       z     vdW  Elec       q    Type
REMARK                         _______ _______ _______ _____ _____    ______ ____
ROOT
ATOM      1  C   UNL     1      88.887  63.852  86.176  0.00  0.00    +0.000 C 
ATOM      2  N   UNL     1      87.657  64.113  86.926  0.00  0.00    +0.000 N 
ENDROOT
BRANCH   2   3
ATOM      3  C   UNL     1      87.551  65.208  87.810  0.00  0.00    +0.000 C 
ATOM      4  S   UNL     1      87.434  66.826  87.331  0.00  0.00    +0.000 S 
BRANCH   3   5
ATOM      5  C   UNL     1      87.567  64.914  89.268  0.00  0.00    +0.000 A 
ATOM      6  C   UNL     1      86.516  65.374  90.070  0.00  0.00    +0.000 A 
ATOM      7  C   UNL     1      86.522  65.096  91.437  0.00  0.00    +0.000 A 
ATOM      8  C   UNL     1      87.568  64.359  91.995  0.00  0.00    +0.000 A 
ATOM      9  C   UNL     1      88.609  63.892  91.190  0.00  0.00    +0.000 A 
ATOM     10  C   UNL     1      88.609  64.164  89.822  0.00  0.00    +0.000 A 
ENDBRANCH   3   5
ENDBRANCH   2   3
BRANCH   2  11
ATOM     11  C   UNL     1      86.500  63.269  86.571  0.00  0.00    +0.000 C 
BRANCH  11  12
ATOM     12  C   UNL     1      85.790  62.637  87.748  0.00  0.00    +0.000 A 
ATOM     13  C   UNL     1      86.434  61.732  88.605  0.00  0.00    +0.000 A 
ATOM     14  C   UNL     1      85.761  61.182  89.698  0.00  0.00    +0.000 A 
ATOM     15  C   UNL     1      84.441  61.538  89.958  0.00  0.00    +0.000 A 
ATOM     16  C   UNL     1      83.792  62.446  89.127  0.00  0.00    +0.000 A 
ATOM     17  C   UNL     1      84.464  62.997  88.035  0.00  0.00    +0.000 A 
ENDBRANCH  11  12
ENDBRANCH   2  11
TORSDOF 4
ENDMDL
