REMARK  Name = *****
REMARK  5 active torsions:
REMARK  status: ('A' for Active; 'I' for Inactive)
REMARK    1  A    between atoms: C_1  and  C_2
REMARK    2  A    between atoms: C_2  and  O_4
REMARK    3  A    between atoms: O_4  and  C_5
REMARK    4  A    between atoms: C_5  and  C_13
REMARK    5  A    between atoms: C_6  and  C_7
REMARK                            x       y       z     vdW  Elec       q    Type
REMARK                         _______ _______ _______ _____ _____    ______ ____
ROOT
ATOM      1  C   UNL     1       4.771   0.919  -0.973  0.00  0.00    +0.000 C 
ATOM      2  C   UNL     1       5.367   0.016  -0.172  0.00  0.00    +0.000 C 
ENDROOT
BRANCH   2   3
ATOM      3  C   UNL     1       4.695  -1.115   0.483  0.00  0.00    +0.000 A 
ATOM      4  C   UNL     1       3.868  -1.997  -0.222  0.00  0.00    +0.000 A 
ATOM      5  C   UNL     1       3.257  -3.070   0.430  0.00  0.00    +0.000 A 
ATOM      6  C   UNL     1       3.478  -3.279   1.790  0.00  0.00    +0.000 A 
ATOM      7  C   UNL     1       4.314  -2.418   2.497  0.00  0.00    +0.000 A 
ATOM      8  C   UNL     1       4.925  -1.343   1.846  0.00  0.00    +0.000 A 
ENDBRANCH   2   3
BRANCH   1   9
ATOM      9  C   UNL     1       5.508   2.010  -1.643  0.00  0.00    +0.000 A 
ATOM     10  C   UNL     1       5.186   2.368  -2.961  0.00  0.00    +0.000 A 
ATOM     11  C   UNL     1       5.855   3.413  -3.604  0.00  0.00    +0.000 A 
ATOM     12  C   UNL     1       6.852   4.118  -2.935  0.00  0.00    +0.000 A 
ATOM     13  C   UNL     1       7.179   3.782  -1.623  0.00  0.00    +0.000 A 
ATOM     14  C   UNL     1       6.509   2.737  -0.980  0.00  0.00    +0.000 A 
ENDBRANCH   1   9
BRANCH   1  15
ATOM     15  O   UNL     1       3.403   0.828  -1.319  0.00  0.00    +0.000 OA
BRANCH  15  17
ATOM     16  C   UNL     1       2.860   2.243   0.643  0.00  0.00    +0.000 C 
ATOM     17  C   UNL     1       2.465   1.432  -0.553  0.00  0.00    +0.000 C 
ATOM     18  S   UNL     1       0.883   1.231  -1.042  0.00  0.00    +0.000 S 
ENDBRANCH  15  17
ENDBRANCH   1  15
TORSDOF 4
