REMARK  Name = *****
REMARK  3 active torsions:
REMARK  status: ('A' for Active; 'I' for Inactive)
REMARK    1  A    between atoms: C_2  and  C_3
REMARK    2  A    between atoms: C_6  and  C_9
REMARK    3  A    between atoms: C_10  and  C_11
REMARK                            x       y       z     vdW  Elec       q    Type
REMARK                         _______ _______ _______ _____ _____    ______ ____
ROOT
ATOM      1  C   UNL     1       3.890   0.125  -0.073  0.00  0.00    +0.000 A 
ATOM      2  C   UNL     1       4.577   1.335  -0.189  0.00  0.00    +0.000 A 
ATOM      3  C   UNL     1       5.956   1.339  -0.418  0.00  0.00    +0.000 A 
ATOM      4  C   UNL     1       6.649   0.132  -0.532  0.00  0.00    +0.000 A 
ATOM      5  C   UNL     1       5.962  -1.079  -0.416  0.00  0.00    +0.000 A 
ATOM      6  C   UNL     1       4.583  -1.083  -0.186  0.00  0.00    +0.000 A 
ENDROOT
BRANCH   1   8
ATOM      7  C   UNL     1       1.293   0.117   0.355  0.00  0.00    +0.000 C 
ATOM      8  C   UNL     1       2.478   0.121   0.160  0.00  0.00    +0.000 C 
ENDBRANCH   1   8
BRANCH   4   9
ATOM      9  C   UNL     1       8.059   0.134  -0.771  0.00  0.00    +0.000 C 
ATOM     10  C   UNL     1       9.243   0.131  -0.974  0.00  0.00    +0.000 C 
BRANCH  10  11
ATOM     11  C   UNL     1      10.647   0.122  -1.218  0.00  0.00    +0.000 A 
ATOM     12  C   UNL     1      11.428   1.248  -1.373  0.00  0.00    +0.000 A 
ATOM     13  C   UNL     1      12.798   0.925  -1.608  0.00  0.00    +0.000 A 
ATOM     14  C   UNL     1      13.011  -0.435  -1.623  0.00  0.00    +0.000 A 
ATOM     15  S   UNL     1      11.566  -1.313  -1.356  0.00  0.00    +0.000 S 
ENDBRANCH  10  11
ENDBRANCH   4   9
TORSDOF 3
