MODEL 1
REMARK VINA RESULT:      -4.5      0.000      0.000
REMARK  Name = *****
REMARK  4 active torsions:
REMARK  status: ('A' for Active; 'I' for Inactive)
REMARK    1  A    between atoms: C_1  and  C_2
REMARK    2  A    between atoms: C_6  and  O_10
REMARK    3  A    between atoms: O_10  and  C_11
REMARK    4  A    between atoms: C_11  and  C_12
REMARK                            x       y       z     vdW  Elec       q    Type
REMARK                         _______ _______ _______ _____ _____    ______ ____
ROOT
ATOM      1  C   UNL     1     106.552 126.991  81.384  0.00  0.00    +0.000 C 
ATOM      2  C   UNL     1     105.543 126.946  80.231  0.00  0.00    +0.000 C 
ATOM      3  C   UNL     1     105.668 125.643  79.424  0.00  0.00    +0.000 C 
ATOM      4  C   UNL     1     104.988 124.467  80.068  0.00  0.00    +0.000 C 
ATOM      5  C   UNL     1     104.072 124.590  81.042  0.00  0.00    +0.000 C 
ATOM      6  C   UNL     1     103.601 125.917  81.578  0.00  0.00    +0.000 C 
ATOM      7  C   UNL     1     104.102 127.109  80.720  0.00  0.00    +0.000 C 
ATOM      8  F   UNL     1     104.008 128.262  81.442  0.00  0.00    +0.000 F 
ATOM      9  F   UNL     1     103.296 127.285  79.635  0.00  0.00    +0.000 F 
ENDROOT
BRANCH   6  10
ATOM     10  O   UNL     1     102.172 125.821  81.670  0.00  0.00    +0.000 OA
BRANCH  10  11
ATOM     11  C   UNL     1     101.678 125.939  83.004  0.00  0.00    +0.000 C 
BRANCH  11  12
ATOM     12  C   UNL     1     100.817 127.173  83.110  0.00  0.00    +0.000 A 
ATOM     13  C   UNL     1      99.482 127.151  82.681  0.00  0.00    +0.000 A 
ATOM     14  C   UNL     1      98.676 128.283  82.813  0.00  0.00    +0.000 A 
ATOM     15  C   UNL     1      99.191 129.447  83.382  0.00  0.00    +0.000 A 
ATOM     16  C   UNL     1     100.512 129.478  83.823  0.00  0.00    +0.000 A 
ATOM     17  C   UNL     1     101.319 128.347  83.692  0.00  0.00    +0.000 A 
ENDBRANCH  11  12
ENDBRANCH  10  11
ENDBRANCH   6  10
TORSDOF 3
ENDMDL
