MODEL 1
REMARK VINA RESULT:      -4.0      0.000      0.000
REMARK  Name = *****
REMARK  6 active torsions:
REMARK  status: ('A' for Active; 'I' for Inactive)
REMARK    1  A    between atoms: C_1  and  O_2
REMARK    2  A    between atoms: O_2  and  C_3
REMARK    3  A    between atoms: C_3  and  C_5
REMARK    4  A    between atoms: C_5  and  S_11
REMARK    5  A    between atoms: S_11  and  C_12
REMARK    6  A    between atoms: C_12  and  C_13
REMARK                            x       y       z     vdW  Elec       q    Type
REMARK                         _______ _______ _______ _____ _____    ______ ____
ROOT
ATOM      1  C   UNL     1      88.600  68.206  86.669  0.00  0.00    +0.000 C 
ATOM      2  C   UNL     1      89.769  69.163  87.015  0.00  0.00    +0.000 C 
ATOM      3  C   UNL     1      89.330  70.545  87.503  0.00  0.00    +0.000 C 
ATOM      4  C   UNL     1      88.347  70.453  88.663  0.00  0.00    +0.000 C 
ATOM      5  C   UNL     1      87.155  69.569  88.318  0.00  0.00    +0.000 C 
ATOM      6  C   UNL     1      87.603  68.184  87.852  0.00  0.00    +0.000 C 
ENDROOT
BRANCH   1   7
ATOM      7  C   UNL     1      89.130  66.779  86.428  0.00  0.00    +0.000 C 
ATOM      8  O   UNL     1      88.415  65.812  86.186  0.00  0.00    +0.000 OA
BRANCH   7  10
ATOM      9  C   UNL     1      91.066  65.893  85.442  0.00  0.00    +0.000 C 
ATOM     10  O   UNL     1      90.493  66.731  86.445  0.00  0.00    +0.000 OA
ENDBRANCH   7  10
ENDBRANCH   1   7
BRANCH   1  11
ATOM     11  S   UNL     1      87.788  68.805  85.099  0.00  0.00    +0.000 S 
BRANCH  11  12
ATOM     12  C   UNL     1      89.229  68.980  83.991  0.00  0.00    +0.000 C 
BRANCH  12  13
ATOM     13  C   UNL     1      89.580  70.435  83.794  0.00  0.00    +0.000 A 
ATOM     14  C   UNL     1      90.884  70.814  83.444  0.00  0.00    +0.000 A 
ATOM     15  C   UNL     1      91.209  72.160  83.269  0.00  0.00    +0.000 A 
ATOM     16  C   UNL     1      90.235  73.141  83.448  0.00  0.00    +0.000 A 
ATOM     17  C   UNL     1      88.938  72.778  83.805  0.00  0.00    +0.000 A 
ATOM     18  C   UNL     1      88.611  71.433  83.981  0.00  0.00    +0.000 A 
ENDBRANCH  12  13
ENDBRANCH  11  12
ENDBRANCH   1  11
TORSDOF 5
ENDMDL
