MODEL 1
REMARK VINA RESULT:      -4.0      0.000      0.000
REMARK  Name = *****
REMARK  3 active torsions:
REMARK  status: ('A' for Active; 'I' for Inactive)
REMARK    1  A    between atoms: N_4  and  C_6
REMARK    2  A    between atoms: C_6  and  C_8
REMARK    3  A    between atoms: C_8  and  C_9
REMARK                            x       y       z     vdW  Elec       q    Type
REMARK                         _______ _______ _______ _____ _____    ______ ____
ROOT
ATOM      1  C   UNL     1     103.170 127.887  81.951  0.00  0.00    +0.000 C 
ENDROOT
BRANCH   1   2
ATOM      2  C   UNL     1     103.587 126.474  81.594  0.00  0.00    +0.000 A 
ATOM      3  C   UNL     1     104.016 126.178  80.289  0.00  0.00    +0.000 A 
ATOM      4  C   UNL     1     104.424 124.886  79.949  0.00  0.00    +0.000 A 
ATOM      5  C   UNL     1     104.419 123.883  80.914  0.00  0.00    +0.000 A 
ATOM      6  C   UNL     1     104.016 124.163  82.218  0.00  0.00    +0.000 A 
ATOM      7  C   UNL     1     103.609 125.454  82.558  0.00  0.00    +0.000 A 
ATOM      8 CL   UNL     1     104.921 122.292  80.495  0.00  0.00    +0.000 Cl
ENDBRANCH   1   2
BRANCH   1   9
ATOM      9  C   UNL     1     102.363 128.007  83.250  0.00  0.00    +0.000 C 
ATOM     10  S   UNL     1     103.207 128.257  84.693  0.00  0.00    +0.000 S 
BRANCH   9  14
ATOM     11  C   UNL     1      98.684 128.369  83.574  0.00  0.00    +0.000 C 
ATOM     12  C   UNL     1      98.807 127.345  82.456  0.00  0.00    +0.000 C 
ATOM     13  C   UNL     1     100.216 126.806  82.653  0.00  0.00    +0.000 C 
ATOM     14  N   UNL     1     100.980 127.939  83.171  0.00  0.00    +0.000 N 
ATOM     15  C   UNL     1     100.069 129.001  83.606  0.00  0.00    +0.000 C 
ENDBRANCH   9  14
ENDBRANCH   1   9
TORSDOF 3
ENDMDL
