MODEL 1
REMARK VINA RESULT:      -4.5      0.000      0.000
REMARK  Name = *****
REMARK  4 active torsions:
REMARK  status: ('A' for Active; 'I' for Inactive)
REMARK    1  A    between atoms: C_1  and  C_2
REMARK    2  A    between atoms: C_2  and  C_8
REMARK    3  A    between atoms: C_8  and  C_9
REMARK    4  A    between atoms: C_9  and  C_10
REMARK                            x       y       z     vdW  Elec       q    Type
REMARK                         _______ _______ _______ _____ _____    ______ ____
ROOT
ATOM      1  C   UNL     1      89.285  70.168  87.593  0.00  0.00    +0.000 C 
ENDROOT
BRANCH   1   3
ATOM      2  C   UNL     1      89.606  67.922  86.452  0.00  0.00    +0.000 C 
ATOM      3  C   UNL     1      89.570  69.424  86.298  0.00  0.00    +0.000 C 
ATOM      4  C   UNL     1      89.819  70.030  85.120  0.00  0.00    +0.000 C 
ATOM      5  C   UNL     1      90.187  69.356  83.815  0.00  0.00    +0.000 C 
ATOM      6  C   UNL     1      90.715  70.481  82.921  0.00  0.00    +0.000 C 
ATOM      7  C   UNL     1      90.292  71.718  83.638  0.00  0.00    +0.000 C 
ATOM      8  C   UNL     1      89.811  71.450  84.855  0.00  0.00    +0.000 C 
ENDBRANCH   1   3
BRANCH   1   9
ATOM      9  C   UNL     1      87.911  69.814  88.182  0.00  0.00    +0.000 C 
BRANCH   9  10
ATOM     10  C   UNL     1      86.790  70.773  87.838  0.00  0.00    +0.000 A 
ATOM     11  C   UNL     1      86.502  71.039  86.490  0.00  0.00    +0.000 A 
ATOM     12  C   UNL     1      85.427  71.858  86.136  0.00  0.00    +0.000 A 
ATOM     13  C   UNL     1      84.622  72.419  87.123  0.00  0.00    +0.000 A 
ATOM     14  C   UNL     1      84.888  72.156  88.464  0.00  0.00    +0.000 A 
ATOM     15  C   UNL     1      85.959  71.332  88.819  0.00  0.00    +0.000 A 
ENDBRANCH   9  10
ENDBRANCH   1   9
TORSDOF 3
ENDMDL
