MODEL 1
REMARK VINA RESULT:      -4.1      0.000      0.000
REMARK  Name = *****
REMARK  5 active torsions:
REMARK  status: ('A' for Active; 'I' for Inactive)
REMARK    1  A    between atoms: C_1  and  C_2
REMARK    2  A    between atoms: C_3  and  C_15
REMARK    3  A    between atoms: N_6  and  C_7
REMARK    4  A    between atoms: C_7  and  C_8
REMARK    5  A    between atoms: C_7  and  C_9
REMARK                            x       y       z     vdW  Elec       q    Type
REMARK                         _______ _______ _______ _____ _____    ______ ____
ROOT
ATOM      1  C   UNL     1      87.324  71.058  85.368  0.00  0.00    +0.000 C 
ATOM      2  C   UNL     1      87.190  71.959  84.138  0.00  0.00    +0.000 C 
ENDROOT
BRANCH   1   8
ATOM      3  C   UNL     1      90.332  69.952  83.809  0.00  0.00    +0.000 C 
ATOM      4  C   UNL     1      89.660  69.125  84.898  0.00  0.00    +0.000 C 
ATOM      5  C   UNL     1      89.905  67.590  84.784  0.00  0.00    +0.000 C 
ATOM      6  S   UNL     1      88.176  67.298  84.291  0.00  0.00    +0.000 S 
ATOM      7  C   UNL     1      88.157  68.940  84.763  0.00  0.00    +0.000 C 
ATOM      8  N   UNL     1      87.128  69.671  84.932  0.00  0.00    +0.000 NA
ATOM      9  C   UNL     1      90.266  66.879  86.079  0.00  0.00    +0.000 C 
ENDBRANCH   1   8
BRANCH   1  10
ATOM     10  C   UNL     1      86.317  71.469  86.428  0.00  0.00    +0.000 A 
ATOM     11  C   UNL     1      86.600  71.259  87.788  0.00  0.00    +0.000 A 
ATOM     12  C   UNL     1      85.697  71.659  88.774  0.00  0.00    +0.000 A 
ATOM     13  C   UNL     1      84.500  72.277  88.417  0.00  0.00    +0.000 A 
ATOM     14  C   UNL     1      84.207  72.498  87.073  0.00  0.00    +0.000 A 
ATOM     15  C   UNL     1      85.110  72.099  86.085  0.00  0.00    +0.000 A 
ENDBRANCH   1  10
TORSDOF 2
ENDMDL
