MODEL 1
REMARK VINA RESULT:      -4.8      0.000      0.000
REMARK  Name = *****
REMARK  5 active torsions:
REMARK  status: ('A' for Active; 'I' for Inactive)
REMARK    1  A    between atoms: C_1  and  C_2
REMARK    2  A    between atoms: C_2  and  O_4
REMARK    3  A    between atoms: O_4  and  C_5
REMARK    4  A    between atoms: C_8  and  C_11
REMARK    5  A    between atoms: C_12  and  C_13
REMARK                            x       y       z     vdW  Elec       q    Type
REMARK                         _______ _______ _______ _____ _____    ______ ____
ROOT
ATOM      1  C   UNL     1      83.328  58.787  91.342  0.00  0.00    +0.000 A 
ATOM      2  C   UNL     1      82.753  59.928  90.787  0.00  0.00    +0.000 A 
ATOM      3  C   UNL     1      83.580  60.939  90.291  0.00  0.00    +0.000 A 
ATOM      4  C   UNL     1      84.975  60.827  90.375  0.00  0.00    +0.000 A 
ATOM      5  C   UNL     1      85.531  59.671  90.945  0.00  0.00    +0.000 A 
ATOM      6  C   UNL     1      84.710  58.656  91.441  0.00  0.00    +0.000 A 
ENDROOT
BRANCH   4   7
ATOM      7  C   UNL     1      85.877  61.856  89.838  0.00  0.00    +0.000 C 
ATOM      8  C   UNL     1      86.306  61.878  88.565  0.00  0.00    +0.000 C 
BRANCH   8   9
ATOM      9  C   UNL     1      87.193  62.915  88.021  0.00  0.00    +0.000 A 
ATOM     10  C   UNL     1      87.478  63.013  86.652  0.00  0.00    +0.000 A 
ATOM     11  C   UNL     1      88.302  64.034  86.168  0.00  0.00    +0.000 A 
ATOM     12  C   UNL     1      88.837  64.969  87.050  0.00  0.00    +0.000 A 
ATOM     13  C   UNL     1      88.550  64.896  88.410  0.00  0.00    +0.000 A 
ATOM     14  C   UNL     1      87.726  63.875  88.893  0.00  0.00    +0.000 A 
ATOM     15 CL   UNL     1      89.849  66.225  86.455  0.00  0.00    +0.000 Cl
ENDBRANCH   8   9
ENDBRANCH   4   7
BRANCH   1  16
ATOM     16  O   UNL     1      82.538  57.778  91.904  0.00  0.00    +0.000 OA
BRANCH  16  18
ATOM     17  C   UNL     1      82.519  55.485  92.413  0.00  0.00    +0.000 C 
ATOM     18  C   UNL     1      82.683  56.516  91.336  0.00  0.00    +0.000 C 
ATOM     19  O   UNL     1      82.917  56.256  90.164  0.00  0.00    +0.000 OA
ENDBRANCH  16  18
ENDBRANCH   1  16
TORSDOF 4
ENDMDL
