MODEL 1
REMARK VINA RESULT:      -4.3      0.000      0.000
REMARK  Name = *****
REMARK  5 active torsions:
REMARK  status: ('A' for Active; 'I' for Inactive)
REMARK    1  A    between atoms: C_1  and  C_2
REMARK    2  A    between atoms: C_3  and  C_17
REMARK    3  A    between atoms: C_5  and  C_8
REMARK    4  A    between atoms: C_8  and  C_10
REMARK    5  A    between atoms: C_10  and  C_11
REMARK                            x       y       z     vdW  Elec       q    Type
REMARK                         _______ _______ _______ _____ _____    ______ ____
ROOT
ATOM      1  C   UNL     1      89.350  70.045  86.368  0.00  0.00    +0.000 C 
ATOM      2  O   UNL     1      90.063  70.810  85.716  0.00  0.00    +0.000 OA
ENDROOT
BRANCH   1   7
ATOM      3  C   UNL     1      84.719  72.196  89.148  0.00  0.00    +0.000 C 
ATOM      4  C   UNL     1      85.911  71.642  88.416  0.00  0.00    +0.000 A 
ATOM      5  C   UNL     1      85.966  71.625  87.009  0.00  0.00    +0.000 A 
ATOM      6  C   UNL     1      87.101  71.097  86.372  0.00  0.00    +0.000 A 
ATOM      7  C   UNL     1      88.179  70.593  87.114  0.00  0.00    +0.000 A 
ATOM      8  C   UNL     1      88.127  70.631  88.508  0.00  0.00    +0.000 A 
ATOM      9  C   UNL     1      87.000  71.150  89.151  0.00  0.00    +0.000 A 
ATOM     10  C   UNL     1      84.829  72.144  86.171  0.00  0.00    +0.000 C 
ENDBRANCH   1   7
BRANCH   1  11
ATOM     11  C   UNL     1      89.667  68.564  86.427  0.00  0.00    +0.000 C 
BRANCH  11  12
ATOM     12  C   UNL     1      88.769  67.728  85.514  0.00  0.00    +0.000 C 
ATOM     13  S   UNL     1      89.644  66.600  84.380  0.00  0.00    +0.000 S 
ATOM     14  C   UNL     1      90.379  65.445  85.570  0.00  0.00    +0.000 C 
ATOM     15  C   UNL     1      89.333  64.714  86.402  0.00  0.00    +0.000 C 
ATOM     16  C   UNL     1      88.540  65.615  87.339  0.00  0.00    +0.000 C 
ATOM     17  S   UNL     1      87.500  66.825  86.470  0.00  0.00    +0.000 S 
ENDBRANCH  11  12
ENDBRANCH   1  11
TORSDOF 3
ENDMDL
