MODEL 1
REMARK VINA RESULT:      -4.2      0.000      0.000
REMARK  Name = *****
REMARK  4 active torsions:
REMARK  status: ('A' for Active; 'I' for Inactive)
REMARK    1  A    between atoms: C_1  and  C_2
REMARK    2  A    between atoms: C_3  and  C_4
REMARK    3  A    between atoms: C_3  and  C_11
REMARK    4  A    between atoms: C_4  and  C_5
REMARK                            x       y       z     vdW  Elec       q    Type
REMARK                         _______ _______ _______ _____ _____    ______ ____
ROOT
ATOM      1  C   UNL     1      87.359  66.921  87.914  0.00  0.00    +0.000 C 
ATOM      2  C   UNL     1      86.856  65.583  87.472  0.00  0.00    +0.000 C 
ATOM      3  C   UNL     1      86.935  64.417  88.145  0.00  0.00    +0.000 C 
ENDROOT
BRANCH   3   4
ATOM      4  C   UNL     1      87.529  64.311  89.467  0.00  0.00    +0.000 C 
ATOM      5  C   UNL     1      88.786  63.881  89.658  0.00  0.00    +0.000 C 
ATOM      6  C   UNL     1      89.191  63.883  91.094  0.00  0.00    +0.000 C 
ATOM      7  C   UNL     1      87.952  64.395  91.830  0.00  0.00    +0.000 C 
ATOM      8  C   UNL     1      86.942  64.673  90.749  0.00  0.00    +0.000 C 
ATOM      9  C   UNL     1      85.719  65.175  90.953  0.00  0.00    +0.000 C 
ENDBRANCH   3   4
BRANCH   3  10
ATOM     10  C   UNL     1      86.343  63.137  87.588  0.00  0.00    +0.000 C 
BRANCH  10  11
ATOM     11  C   UNL     1      85.469  62.389  88.572  0.00  0.00    +0.000 A 
ATOM     12  C   UNL     1      84.113  62.722  88.716  0.00  0.00    +0.000 A 
ATOM     13  C   UNL     1      83.305  62.023  89.614  0.00  0.00    +0.000 A 
ATOM     14  C   UNL     1      83.840  60.984  90.373  0.00  0.00    +0.000 A 
ATOM     15  C   UNL     1      85.183  60.641  90.234  0.00  0.00    +0.000 A 
ATOM     16  C   UNL     1      85.993  61.338  89.337  0.00  0.00    +0.000 A 
ENDBRANCH  10  11
ENDBRANCH   3  10
TORSDOF 3
ENDMDL
