MODEL 1
REMARK VINA RESULT:      -4.2      0.000      0.000
REMARK  Name = *****
REMARK  8 active torsions:
REMARK  status: ('A' for Active; 'I' for Inactive)
REMARK    1  A    between atoms: C_1  and  C_2
REMARK    2  A    between atoms: C_3  and  N_9
REMARK    3  A    between atoms: C_4  and  C_8
REMARK    4  A    between atoms: C_10  and  O_11
REMARK    5  A    between atoms: C_10  and  S_19
REMARK    6  A    between atoms: O_11  and  C_12
REMARK    7  A    between atoms: C_17  and  C_18
REMARK    8  A    between atoms: S_19  and  O_20
REMARK                            x       y       z     vdW  Elec       q    Type
REMARK                         _______ _______ _______ _____ _____    ______ ____
ROOT
ATOM      1  N   UNL     1      86.211  62.828  87.037  0.00  0.00    +0.000 NA
ATOM      2  C   UNL     1      87.021  63.828  87.243  0.00  0.00    +0.000 C 
ENDROOT
BRANCH   1   5
ATOM      3  C   UNL     1      83.852  64.251  86.188  0.00  0.00    +0.000 C 
ATOM      4  C   UNL     1      83.885  63.430  87.446  0.00  0.00    +0.000 A 
ATOM      5  C   UNL     1      85.056  62.750  87.838  0.00  0.00    +0.000 A 
ATOM      6  C   UNL     1      85.051  61.957  89.003  0.00  0.00    +0.000 A 
ATOM      7  C   UNL     1      83.895  61.901  89.795  0.00  0.00    +0.000 A 
ATOM      8  C   UNL     1      82.748  62.599  89.424  0.00  0.00    +0.000 A 
ATOM      9  C   UNL     1      82.740  63.356  88.254  0.00  0.00    +0.000 A 
ATOM     10  C   UNL     1      86.276  61.197  89.433  0.00  0.00    +0.000 C 
ENDBRANCH   1   5
BRANCH   2  11
ATOM     11  O   UNL     1      86.775  64.787  88.230  0.00  0.00    +0.000 OA
BRANCH  11  12
ATOM     12  C   UNL     1      87.320  64.624  89.515  0.00  0.00    +0.000 A 
ATOM     13  C   UNL     1      88.615  64.117  89.623  0.00  0.00    +0.000 A 
ATOM     14  C   UNL     1      89.165  63.925  90.888  0.00  0.00    +0.000 A 
ATOM     15  C   UNL     1      88.415  64.226  92.025  0.00  0.00    +0.000 A 
ATOM     16  C   UNL     1      87.109  64.710  91.903  0.00  0.00    +0.000 A 
ATOM     17  C   UNL     1      86.535  64.901  90.641  0.00  0.00    +0.000 A 
ATOM     18  C   UNL     1      85.133  65.415  90.510  0.00  0.00    +0.000 C 
ENDBRANCH  11  12
ENDBRANCH   2  11
BRANCH   2  19
ATOM     19  S   UNL     1      88.456  63.879  86.189  0.00  0.00    +0.000 S 
BRANCH  19  20
ATOM     20  O   UNL     1      88.365  62.280  85.695  0.00  0.00    +0.000 OA
ATOM     21  H   UNL     1      88.368  61.701  86.473  0.00  0.00    +0.000 HD
ENDBRANCH  19  20
ENDBRANCH   2  19
TORSDOF 5
ENDMDL
