MODEL 1
REMARK VINA RESULT:      -5.4      0.000      0.000
REMARK  Name = *****
REMARK  2 active torsions:
REMARK  status: ('A' for Active; 'I' for Inactive)
REMARK    1  A    between atoms: C_3  and  N_9
REMARK    2  A    between atoms: C_10  and  C_11
REMARK                            x       y       z     vdW  Elec       q    Type
REMARK                         _______ _______ _______ _____ _____    ______ ____
ROOT
ATOM      1  C   UNL     1     103.716 125.186  81.610  0.00  0.00    +0.000 A 
ATOM      2  C   UNL     1     104.248 125.350  80.331  0.00  0.00    +0.000 A 
ATOM      3  C   UNL     1     105.104 124.393  79.794  0.00  0.00    +0.000 A 
ATOM      4  C   UNL     1     105.435 123.265  80.531  0.00  0.00    +0.000 A 
ATOM      5  C   UNL     1     104.910 123.094  81.804  0.00  0.00    +0.000 A 
ATOM      6  C   UNL     1     104.053 124.048  82.347  0.00  0.00    +0.000 A 
ATOM      7  F   UNL     1     103.566 123.839  83.577  0.00  0.00    +0.000 F 
ATOM      8  F   UNL     1     105.228 122.002  82.514  0.00  0.00    +0.000 F 
ATOM      9  F   UNL     1     106.258 122.343  80.013  0.00  0.00    +0.000 F 
ATOM     10  F   UNL     1     105.605 124.562  78.564  0.00  0.00    +0.000 F 
ATOM     11  F   UNL     1     103.938 126.431  79.600  0.00  0.00    +0.000 F 
ENDROOT
BRANCH   1  13
ATOM     12  N   UNL     1     101.540 126.076  82.193  0.00  0.00    +0.000 NA
ATOM     13  C   UNL     1     102.821 126.234  82.125  0.00  0.00    +0.000 C 
BRANCH  12  16
ATOM     14  C   UNL     1     100.741 129.264  83.879  0.00  0.00    +0.000 A 
ATOM     15  C   UNL     1     101.448 128.176  83.361  0.00  0.00    +0.000 A 
ATOM     16  C   UNL     1     100.774 127.130  82.722  0.00  0.00    +0.000 A 
ATOM     17  C   UNL     1      99.377 127.217  82.590  0.00  0.00    +0.000 A 
ATOM     18  C   UNL     1      98.665 128.297  83.102  0.00  0.00    +0.000 A 
ATOM     19  C   UNL     1      99.357 129.312  83.745  0.00  0.00    +0.000 A 
ATOM     20  F   UNL     1      98.683 130.357  84.243  0.00  0.00    +0.000 F 
ATOM     21  F   UNL     1      98.699 126.242  81.966  0.00  0.00    +0.000 F 
ENDBRANCH  12  16
ENDBRANCH   1  13
TORSDOF 2
ENDMDL
