MODEL 1
REMARK VINA RESULT:      -5.1      0.000      0.000
REMARK  Name = *****
REMARK  4 active torsions:
REMARK  status: ('A' for Active; 'I' for Inactive)
REMARK    1  A    between atoms: C_3  and  O_8
REMARK    2  A    between atoms: O_8  and  C_9
REMARK    3  A    between atoms: C_9  and  C_11
REMARK    4  A    between atoms: C_13  and  C_17
REMARK                            x       y       z     vdW  Elec       q    Type
REMARK                         _______ _______ _______ _____ _____    ______ ____
ROOT
ATOM      1  C   UNL     1     103.523 124.982  82.341  0.00  0.00    +0.000 A 
ATOM      2  C   UNL     1     104.073 123.717  82.560  0.00  0.00    +0.000 A 
ATOM      3  C   UNL     1     104.773 123.052  81.549  0.00  0.00    +0.000 A 
ATOM      4  C   UNL     1     104.911 123.667  80.296  0.00  0.00    +0.000 A 
ATOM      5  C   UNL     1     104.354 124.924  80.061  0.00  0.00    +0.000 A 
ATOM      6  C   UNL     1     103.661 125.579  81.080  0.00  0.00    +0.000 A 
ATOM      7  F   UNL     1     103.926 123.097  83.740  0.00  0.00    +0.000 F 
ENDROOT
BRANCH   3   8
ATOM      8  C   UNL     1     105.350 121.695  81.834  0.00  0.00    +0.000 C 
ATOM      9  F   UNL     1     104.398 120.765  82.113  0.00  0.00    +0.000 F 
ATOM     10  F   UNL     1     106.079 121.202  80.797  0.00  0.00    +0.000 F 
ATOM     11  F   UNL     1     106.191 121.692  82.909  0.00  0.00    +0.000 F 
ENDBRANCH   3   8
BRANCH   1  12
ATOM     12  C   UNL     1     102.774 125.728  83.381  0.00  0.00    +0.000 C 
ATOM     13  O   UNL     1     102.384 125.198  84.412  0.00  0.00    +0.000 OA
BRANCH  12  14
ATOM     14  O   UNL     1     102.541 127.024  82.969  0.00  0.00    +0.000 OA
BRANCH  14  17
ATOM     15  C   UNL     1      98.918 126.973  82.367  0.00  0.00    +0.000 A 
ATOM     16  C   UNL     1     100.259 126.587  82.401  0.00  0.00    +0.000 A 
ATOM     17  C   UNL     1     101.199 127.423  83.006  0.00  0.00    +0.000 A 
ATOM     18  C   UNL     1     100.832 128.654  83.543  0.00  0.00    +0.000 A 
ATOM     19  C   UNL     1      99.494 129.023  83.503  0.00  0.00    +0.000 A 
ATOM     20  C   UNL     1      98.535 128.195  82.924  0.00  0.00    +0.000 A 
ATOM     21  F   UNL     1      99.118 130.199  84.022  0.00  0.00    +0.000 F 
ENDBRANCH  14  17
ENDBRANCH  12  14
ENDBRANCH   1  12
TORSDOF 4
ENDMDL
