MODEL 1
REMARK VINA RESULT:      -3.8      0.000      0.000
REMARK  Name = *****
REMARK  3 active torsions:
REMARK  status: ('A' for Active; 'I' for Inactive)
REMARK    1  A    between atoms: C_4  and  N_7
REMARK    2  A    between atoms: N_7  and  C_8
REMARK    3  A    between atoms: C_8  and  C_9
REMARK                            x       y       z     vdW  Elec       q    Type
REMARK                         _______ _______ _______ _____ _____    ______ ____
ROOT
ATOM      1  N   UNL     1     103.698 128.321  82.543  0.00  0.00    +0.000 NA
ENDROOT
BRANCH   1   5
ATOM      2  C   UNL     1     104.108 124.379  80.965  0.00  0.00    +0.000 C 
ATOM      3  C   UNL     1     104.037 125.530  79.967  0.00  0.00    +0.000 C 
ATOM      4  C   UNL     1     103.523 126.810  80.621  0.00  0.00    +0.000 C 
ATOM      5  C   UNL     1     104.354 127.195  81.853  0.00  0.00    +0.000 C 
ATOM      6  C   UNL     1     104.435 126.028  82.847  0.00  0.00    +0.000 C 
ATOM      7  C   UNL     1     104.943 124.750  82.186  0.00  0.00    +0.000 C 
ENDBRANCH   1   5
BRANCH   1   8
ATOM      8  C   UNL     1     102.583 128.153  82.866  0.00  0.00    +0.000 C 
BRANCH   8   9
ATOM      9  C   UNL     1     101.357 127.978  83.272  0.00  0.00    +0.000 C 
ATOM     10  C   UNL     1     100.517 129.090  83.850  0.00  0.00    +0.000 C 
ATOM     11  C   UNL     1      99.202 129.238  83.083  0.00  0.00    +0.000 C 
ATOM     12  C   UNL     1      98.454 127.909  82.969  0.00  0.00    +0.000 C 
ATOM     13  C   UNL     1      99.336 126.817  82.366  0.00  0.00    +0.000 C 
ATOM     14  C   UNL     1     100.645 126.656  83.139  0.00  0.00    +0.000 C 
ENDBRANCH   8   9
ENDBRANCH   1   8
TORSDOF 3
ENDMDL
