MODEL 1
REMARK VINA RESULT:      -4.4      0.000      0.000
REMARK  Name = *****
REMARK  4 active torsions:
REMARK  status: ('A' for Active; 'I' for Inactive)
REMARK    1  A    between atoms: C_1  and  C_2
REMARK    2  A    between atoms: C_5  and  O_8
REMARK    3  A    between atoms: O_8  and  C_9
REMARK    4  A    between atoms: C_9  and  C_10
REMARK                            x       y       z     vdW  Elec       q    Type
REMARK                         _______ _______ _______ _____ _____    ______ ____
ROOT
ATOM      1  O   UNL     1     103.382 125.108  80.189  0.00  0.00    +0.000 OA
ENDROOT
BRANCH   1   6
ATOM      2  C   UNL     1     102.191 129.189  83.951  0.00  0.00    +0.000 C 
ATOM      3  C   UNL     1     102.462 128.104  82.952  0.00  0.00    +0.000 A 
ATOM      4  C   UNL     1     101.670 126.951  82.921  0.00  0.00    +0.000 A 
ATOM      5  C   UNL     1     101.938 125.922  82.010  0.00  0.00    +0.000 A 
ATOM      6  C   UNL     1     103.011 126.033  81.125  0.00  0.00    +0.000 A 
ATOM      7  C   UNL     1     103.816 127.173  81.170  0.00  0.00    +0.000 A 
ATOM      8  C   UNL     1     103.549 128.201  82.078  0.00  0.00    +0.000 A 
ENDBRANCH   1   6
BRANCH   1   9
ATOM      9  C   UNL     1     104.664 124.503  80.349  0.00  0.00    +0.000 C 
BRANCH   9  10
ATOM     10  C   UNL     1     104.589 123.273  81.234  0.00  0.00    +0.000 A 
ATOM     11  C   UNL     1     104.502 123.357  82.633  0.00  0.00    +0.000 A 
ATOM     12  C   UNL     1     104.455 122.200  83.413  0.00  0.00    +0.000 A 
ATOM     13  C   UNL     1     104.503 120.955  82.798  0.00  0.00    +0.000 A 
ATOM     14  C   UNL     1     104.598 120.845  81.416  0.00  0.00    +0.000 A 
ATOM     15  C   UNL     1     104.642 122.001  80.635  0.00  0.00    +0.000 A 
ATOM     16  F   UNL     1     104.463 119.845  83.547  0.00  0.00    +0.000 F 
ENDBRANCH   9  10
ENDBRANCH   1   9
TORSDOF 3
ENDMDL
