MODEL 1
REMARK VINA RESULT:      -4.9      0.000      0.000
REMARK  Name = *****
REMARK  3 active torsions:
REMARK  status: ('A' for Active; 'I' for Inactive)
REMARK    1  A    between atoms: C_3  and  O_8
REMARK    2  A    between atoms: O_8  and  C_9
REMARK    3  A    between atoms: C_9  and  C_11
REMARK                            x       y       z     vdW  Elec       q    Type
REMARK                         _______ _______ _______ _____ _____    ______ ____
ROOT
ATOM      1  C   UNL     1     103.525 127.960  82.712  0.00  0.00    +0.000 C 
ATOM      2  O   UNL     1     104.096 128.992  82.389  0.00  0.00    +0.000 OA
ENDROOT
BRANCH   1   3
ATOM      3  C   UNL     1     103.781 126.669  82.026  0.00  0.00    +0.000 A 
ATOM      4  C   UNL     1     103.648 126.491  80.645  0.00  0.00    +0.000 A 
ATOM      5  C   UNL     1     103.905 125.254  80.055  0.00  0.00    +0.000 A 
ATOM      6  C   UNL     1     104.303 124.190  80.850  0.00  0.00    +0.000 A 
ATOM      7  C   UNL     1     104.451 124.340  82.225  0.00  0.00    +0.000 A 
ATOM      8  C   UNL     1     104.192 125.580  82.814  0.00  0.00    +0.000 A 
ATOM      9  F   UNL     1     104.551 123.001  80.287  0.00  0.00    +0.000 F 
ATOM     10  F   UNL     1     103.288 127.499  79.839  0.00  0.00    +0.000 F 
ENDBRANCH   1   3
BRANCH   1  11
ATOM     11  O   UNL     1     102.627 127.796  83.746  0.00  0.00    +0.000 OA
BRANCH  11  14
ATOM     12  C   UNL     1      99.300 129.323  83.448  0.00  0.00    +0.000 A 
ATOM     13  C   UNL     1     100.656 129.151  83.731  0.00  0.00    +0.000 A 
ATOM     14  C   UNL     1     101.280 127.948  83.395  0.00  0.00    +0.000 A 
ATOM     15  C   UNL     1     100.566 126.901  82.817  0.00  0.00    +0.000 A 
ATOM     16  C   UNL     1      99.218 127.090  82.542  0.00  0.00    +0.000 A 
ATOM     17  C   UNL     1      98.579 128.289  82.849  0.00  0.00    +0.000 A 
ATOM     18  F   UNL     1      98.515 126.097  81.980  0.00  0.00    +0.000 F 
ENDBRANCH  11  14
ENDBRANCH   1  11
TORSDOF 3
ENDMDL
