MODEL 1
REMARK VINA RESULT:      -4.0      0.000      0.000
REMARK  Name = *****
REMARK  5 active torsions:
REMARK  status: ('A' for Active; 'I' for Inactive)
REMARK    1  A    between atoms: C_1  and  C_2
REMARK    2  A    between atoms: C_7  and  C_8
REMARK    3  A    between atoms: C_8  and  S_9
REMARK    4  A    between atoms: S_9  and  C_10
REMARK    5  A    between atoms: C_15  and  C_16
REMARK                            x       y       z     vdW  Elec       q    Type
REMARK                         _______ _______ _______ _____ _____    ______ ____
ROOT
ATOM      1  C   UNL     1     103.039 126.617  84.488  0.00  0.00    +0.000 C 
ENDROOT
BRANCH   1   8
ATOM      2  C   UNL     1     103.880 129.209  83.178  0.00  0.00    +0.000 C 
ATOM      3  C   UNL     1     103.621 127.959  82.381  0.00  0.00    +0.000 A 
ATOM      4  C   UNL     1     103.775 128.003  80.984  0.00  0.00    +0.000 A 
ATOM      5  C   UNL     1     103.550 126.870  80.202  0.00  0.00    +0.000 A 
ATOM      6  C   UNL     1     103.171 125.676  80.804  0.00  0.00    +0.000 A 
ATOM      7  C   UNL     1     103.013 125.616  82.187  0.00  0.00    +0.000 A 
ATOM      8  C   UNL     1     103.224 126.751  82.993  0.00  0.00    +0.000 A 
ENDBRANCH   1   8
BRANCH   1   9
ATOM      9  S   UNL     1     101.305 126.259  84.924  0.00  0.00    +0.000 S 
BRANCH   9  10
ATOM     10  C   UNL     1     100.581 127.822  84.437  0.00  0.00    +0.000 A 
ATOM     11  C   UNL     1     100.864 128.943  85.232  0.00  0.00    +0.000 A 
ATOM     12  C   UNL     1     100.330 130.191  84.917  0.00  0.00    +0.000 A 
ATOM     13  C   UNL     1      99.508 130.332  83.803  0.00  0.00    +0.000 A 
ATOM     14  C   UNL     1      99.228 129.226  83.000  0.00  0.00    +0.000 A 
ATOM     15  C   UNL     1      99.763 127.961  83.301  0.00  0.00    +0.000 A 
ATOM     16  C   UNL     1      99.441 126.803  82.395  0.00  0.00    +0.000 C 
ENDBRANCH   9  10
ENDBRANCH   1   9
TORSDOF 3
ENDMDL
