MODEL 1
REMARK VINA RESULT:      -5.0      0.000      0.000
REMARK  Name = *****
REMARK  3 active torsions:
REMARK  status: ('A' for Active; 'I' for Inactive)
REMARK    1  A    between atoms: C_3  and  C_20
REMARK    2  A    between atoms: C_6  and  C_7
REMARK    3  A    between atoms: C_8  and  C_9
REMARK                            x       y       z     vdW  Elec       q    Type
REMARK                         _______ _______ _______ _____ _____    ______ ____
ROOT
ATOM      1  C   UNL     1     101.408 126.983  83.131  0.00  0.00    +0.000 A 
ATOM      2  C   UNL     1     101.851 128.130  83.807  0.00  0.00    +0.000 A 
ATOM      3  C   UNL     1     101.014 129.229  83.998  0.00  0.00    +0.000 A 
ATOM      4  C   UNL     1      99.719 129.207  83.509  0.00  0.00    +0.000 A 
ATOM      5  C   UNL     1      99.262 128.094  82.822  0.00  0.00    +0.000 A 
ATOM      6  C   UNL     1     100.098 126.995  82.629  0.00  0.00    +0.000 A 
ATOM      7  F   UNL     1      99.622 125.950  81.935  0.00  0.00    +0.000 F 
ATOM      8  F   UNL     1      98.012 128.074  82.336  0.00  0.00    +0.000 F 
ATOM      9  F   UNL     1      98.913 130.263  83.691  0.00  0.00    +0.000 F 
ATOM     10  F   UNL     1     101.466 130.306  84.654  0.00  0.00    +0.000 F 
ATOM     11  F   UNL     1     103.103 128.183  84.287  0.00  0.00    +0.000 F 
ENDROOT
BRANCH   1  13
ATOM     12  C   UNL     1     103.043 125.620  81.814  0.00  0.00    +0.000 C 
ATOM     13  C   UNL     1     102.351 125.865  82.940  0.00  0.00    +0.000 C 
BRANCH  12  19
ATOM     14  C   UNL     1     104.494 124.125  80.403  0.00  0.00    +0.000 A 
ATOM     15  C   UNL     1     105.335 123.014  80.281  0.00  0.00    +0.000 A 
ATOM     16  C   UNL     1     105.639 122.236  81.401  0.00  0.00    +0.000 A 
ATOM     17  C   UNL     1     105.093 122.571  82.643  0.00  0.00    +0.000 A 
ATOM     18  C   UNL     1     104.252 123.683  82.763  0.00  0.00    +0.000 A 
ATOM     19  C   UNL     1     103.956 124.479  81.648  0.00  0.00    +0.000 A 
BRANCH  16  20
ATOM     20  C   UNL     1     106.500 121.096  81.277  0.00  0.00    +0.000 C 
ATOM     21  N   UNL     1     107.198 120.174  81.177  0.00  0.00    +0.000 NA
ENDBRANCH  16  20
ENDBRANCH  12  19
ENDBRANCH   1  13
TORSDOF 3
ENDMDL
