MODEL 1
REMARK VINA RESULT:      -4.3      0.000      0.000
REMARK  Name = *****
REMARK  4 active torsions:
REMARK  status: ('A' for Active; 'I' for Inactive)
REMARK    1  A    between atoms: C_1  and  C_2
REMARK    2  A    between atoms: C_2  and  C_10
REMARK    3  A    between atoms: N_3  and  O_4
REMARK    4  A    between atoms: O_4  and  C_5
REMARK                            x       y       z     vdW  Elec       q    Type
REMARK                         _______ _______ _______ _____ _____    ______ ____
ROOT
ATOM      1  C   UNL     1      89.762  70.709  85.576  0.00  0.00    +0.000 C 
ATOM      2  C   UNL     1      88.761  70.009  86.479  0.00  0.00    +0.000 C 
ATOM      3  N   UNL     1      88.943  68.819  86.976  0.00  0.00    +0.000 NA
ENDROOT
BRANCH   2   4
ATOM      4  C   UNL     1      87.482  70.730  86.802  0.00  0.00    +0.000 A 
ATOM      5  C   UNL     1      86.638  71.229  85.800  0.00  0.00    +0.000 A 
ATOM      6  C   UNL     1      85.456  71.894  86.139  0.00  0.00    +0.000 A 
ATOM      7  C   UNL     1      85.103  72.062  87.477  0.00  0.00    +0.000 A 
ATOM      8  C   UNL     1      85.932  71.564  88.480  0.00  0.00    +0.000 A 
ATOM      9  C   UNL     1      87.115  70.902  88.145  0.00  0.00    +0.000 A 
ENDBRANCH   2   4
BRANCH   3  10
ATOM     10  O   UNL     1      90.162  68.259  86.580  0.00  0.00    +0.000 OA
BRANCH  10  11
ATOM     11  C   UNL     1      90.026  66.930  86.332  0.00  0.00    +0.000 A 
ATOM     12  C   UNL     1      90.872  66.149  85.571  0.00  0.00    +0.000 A 
ATOM     13  S   UNL     1      90.354  64.519  85.496  0.00  0.00    +0.000 S 
ATOM     14  C   UNL     1      88.995  64.849  86.482  0.00  0.00    +0.000 A 
ATOM     15  C   UNL     1      88.940  66.173  86.858  0.00  0.00    +0.000 A 
ENDBRANCH  10  11
ENDBRANCH   3  10
TORSDOF 3
ENDMDL
