MODEL 1
REMARK VINA RESULT:      -4.4      0.000      0.000
REMARK  Name = *****
REMARK  4 active torsions:
REMARK  status: ('A' for Active; 'I' for Inactive)
REMARK    1  A    between atoms: C_4  and  C_7
REMARK    2  A    between atoms: C_7  and  C_8
REMARK    3  A    between atoms: C_8  and  O_9
REMARK    4  A    between atoms: O_9  and  C_10
REMARK                            x       y       z     vdW  Elec       q    Type
REMARK                         _______ _______ _______ _____ _____    ______ ____
ROOT
ATOM      1  C   UNL     1      89.588  69.071  86.272  0.00  0.00    +0.000 C 
ENDROOT
BRANCH   1   2
ATOM      2  C   UNL     1      89.191  69.849  87.526  0.00  0.00    +0.000 C 
BRANCH   2   6
ATOM      3  C   UNL     1      85.443  71.908  86.996  0.00  0.00    +0.000 A 
ATOM      4  C   UNL     1      85.901  71.612  88.279  0.00  0.00    +0.000 A 
ATOM      5  C   UNL     1      87.119  70.953  88.452  0.00  0.00    +0.000 A 
ATOM      6  C   UNL     1      87.892  70.588  87.342  0.00  0.00    +0.000 A 
ATOM      7  C   UNL     1      87.421  70.886  86.056  0.00  0.00    +0.000 A 
ATOM      8  C   UNL     1      86.203  71.545  85.885  0.00  0.00    +0.000 A 
ENDBRANCH   2   6
ENDBRANCH   1   2
BRANCH   1   9
ATOM      9  O   UNL     1      90.415  67.976  86.670  0.00  0.00    +0.000 OA
BRANCH   9  10
ATOM     10  C   UNL     1      89.989  66.720  86.336  0.00  0.00    +0.000 A 
ATOM     11  C   UNL     1      88.814  66.108  86.774  0.00  0.00    +0.000 A 
ATOM     12  C   UNL     1      88.498  64.812  86.351  0.00  0.00    +0.000 A 
ATOM     13  C   UNL     1      89.357  64.130  85.492  0.00  0.00    +0.000 A 
ATOM     14  C   UNL     1      90.533  64.732  85.051  0.00  0.00    +0.000 A 
ATOM     15  C   UNL     1      90.845  66.025  85.476  0.00  0.00    +0.000 A 
ATOM     16 CL   UNL     1      88.964  62.538  84.974  0.00  0.00    +0.000 Cl
ENDBRANCH   9  10
ENDBRANCH   1   9
TORSDOF 4
ENDMDL
