MODEL 1
REMARK VINA RESULT:      -4.9      0.000      0.000
REMARK  Name = *****
REMARK  3 active torsions:
REMARK  status: ('A' for Active; 'I' for Inactive)
REMARK    1  A    between atoms: C_4  and  C_9
REMARK    2  A    between atoms: C_5  and  C_7
REMARK    3  A    between atoms: C_10  and  C_11
REMARK                            x       y       z     vdW  Elec       q    Type
REMARK                         _______ _______ _______ _____ _____    ______ ____
ROOT
ATOM      1  C   UNL     1     102.023 126.907  82.507  0.00  0.00    +0.000 C 
ATOM      2  C   UNL     1     102.760 126.102  82.005  0.00  0.00    +0.000 C 
ENDROOT
BRANCH   2   3
ATOM      3  C   UNL     1     103.670 125.170  81.414  0.00  0.00    +0.000 A 
ATOM      4  C   UNL     1     104.253 125.447  80.178  0.00  0.00    +0.000 A 
ATOM      5  C   UNL     1     105.116 124.516  79.609  0.00  0.00    +0.000 A 
ATOM      6  C   UNL     1     105.408 123.317  80.250  0.00  0.00    +0.000 A 
ATOM      7  C   UNL     1     104.829 123.041  81.489  0.00  0.00    +0.000 A 
ATOM      8  C   UNL     1     103.961 123.969  82.071  0.00  0.00    +0.000 A 
ATOM      9  F   UNL     1     105.671 124.776  78.418  0.00  0.00    +0.000 F 
ENDBRANCH   2   3
BRANCH   1  13
ATOM     10  C   UNL     1      99.617 129.894  84.312  0.00  0.00    +0.000 A 
ATOM     11  C   UNL     1     101.006 129.940  84.410  0.00  0.00    +0.000 A 
ATOM     12  C   UNL     1     101.783 128.940  83.817  0.00  0.00    +0.000 A 
ATOM     13  C   UNL     1     101.176 127.887  83.122  0.00  0.00    +0.000 A 
ATOM     14  C   UNL     1      99.778 127.841  83.030  0.00  0.00    +0.000 A 
ATOM     15  C   UNL     1      99.002 128.846  83.625  0.00  0.00    +0.000 A 
BRANCH  14  16
ATOM     16  C   UNL     1      99.081 126.748  82.312  0.00  0.00    +0.000 C 
ATOM     17  O   UNL     1      97.898 126.492  82.508  0.00  0.00    +0.000 OA
ENDBRANCH  14  16
ENDBRANCH   1  13
TORSDOF 3
ENDMDL
