MODEL 1
REMARK VINA RESULT:      -5.0      0.000      0.000
REMARK  Name = *****
REMARK  5 active torsions:
REMARK  status: ('A' for Active; 'I' for Inactive)
REMARK    1  A    between atoms: C_4  and  C_7
REMARK    2  A    between atoms: C_7  and  C_8
REMARK    3  A    between atoms: C_8  and  C_10
REMARK    4  A    between atoms: C_10  and  C_11
REMARK    5  A    between atoms: C_16  and  C_17
REMARK                            x       y       z     vdW  Elec       q    Type
REMARK                         _______ _______ _______ _____ _____    ______ ____
ROOT
ATOM      1  C   UNL     1     102.786 125.366  83.290  0.00  0.00    +0.000 C 
ATOM      2  O   UNL     1     102.264 125.165  84.391  0.00  0.00    +0.000 OA
ENDROOT
BRANCH   1   3
ATOM      3  C   UNL     1     101.994 125.957  82.141  0.00  0.00    +0.000 C 
BRANCH   3   7
ATOM      4  C   UNL     1      99.185 128.950  83.469  0.00  0.00    +0.000 A 
ATOM      5  C   UNL     1      98.725 127.791  82.845  0.00  0.00    +0.000 A 
ATOM      6  C   UNL     1      99.631 126.821  82.414  0.00  0.00    +0.000 A 
ATOM      7  C   UNL     1     101.008 127.003  82.600  0.00  0.00    +0.000 A 
ATOM      8  C   UNL     1     101.458 128.167  83.242  0.00  0.00    +0.000 A 
ATOM      9  C   UNL     1     100.550 129.137  83.670  0.00  0.00    +0.000 A 
ENDBRANCH   3   7
ENDBRANCH   1   3
BRANCH   1  10
ATOM     10  C   UNL     1     104.244 125.029  83.037  0.00  0.00    +0.000 C 
BRANCH  10  11
ATOM     11  C   UNL     1     104.425 123.655  82.429  0.00  0.00    +0.000 A 
ATOM     12  C   UNL     1     104.404 122.543  83.292  0.00  0.00    +0.000 A 
ATOM     13  C   UNL     1     104.571 121.248  82.804  0.00  0.00    +0.000 A 
ATOM     14  C   UNL     1     104.768 121.043  81.444  0.00  0.00    +0.000 A 
ATOM     15  C   UNL     1     104.798 122.134  80.575  0.00  0.00    +0.000 A 
ATOM     16  C   UNL     1     104.629 123.446  81.050  0.00  0.00    +0.000 A 
ATOM     17  C   UNL     1     104.687 124.581  80.065  0.00  0.00    +0.000 C 
ENDBRANCH  10  11
ENDBRANCH   1  10
TORSDOF 4
ENDMDL
