MODEL 1
REMARK VINA RESULT:      -4.5      0.000      0.000
REMARK  Name = *****
REMARK  4 active torsions:
REMARK  status: ('A' for Active; 'I' for Inactive)
REMARK    1  A    between atoms: C_4  and  C_7
REMARK    2  A    between atoms: C_7  and  C_8
REMARK    3  A    between atoms: C_7  and  C_10
REMARK    4  A    between atoms: C_8  and  S_9
REMARK                            x       y       z     vdW  Elec       q    Type
REMARK                         _______ _______ _______ _____ _____    ______ ____
ROOT
ATOM      1  C   UNL     1     100.013 127.295  83.612  0.00  0.00    +0.000 C 
ENDROOT
BRANCH   1   2
ATOM      2  C   UNL     1     101.192 126.486  83.132  0.00  0.00    +0.000 A 
ATOM      3  N   UNL     1     101.936 125.648  83.833  0.00  0.00    +0.000 NA
ATOM      4  C   UNL     1     102.850 125.186  82.919  0.00  0.00    +0.000 A 
ATOM      5  C   UNL     1     103.903 124.270  83.049  0.00  0.00    +0.000 A 
ATOM      6  C   UNL     1     104.682 123.994  81.913  0.00  0.00    +0.000 A 
ATOM      7  C   UNL     1     104.417 124.613  80.685  0.00  0.00    +0.000 A 
ATOM      8  C   UNL     1     103.367 125.529  80.541  0.00  0.00    +0.000 A 
ATOM      9  C   UNL     1     102.622 125.774  81.686  0.00  0.00    +0.000 A 
ATOM     10  O   UNL     1     101.556 126.613  81.815  0.00  0.00    +0.000 OA
ENDBRANCH   1   2
BRANCH   1  14
ATOM     11  C   UNL     1     100.852 131.493  84.457  0.00  0.00    +0.000 A 
ATOM     12  C   UNL     1      99.614 131.123  83.943  0.00  0.00    +0.000 A 
ATOM     13  C   UNL     1      99.340 129.781  83.662  0.00  0.00    +0.000 A 
ATOM     14  C   UNL     1     100.307 128.781  83.866  0.00  0.00    +0.000 A 
ATOM     15  C   UNL     1     101.539 129.178  84.421  0.00  0.00    +0.000 A 
ATOM     16  C   UNL     1     101.813 130.519  84.702  0.00  0.00    +0.000 A 
ENDBRANCH   1  14
BRANCH   1  17
ATOM     17  C   UNL     1      98.772 126.951  82.752  0.00  0.00    +0.000 C 
BRANCH  17  18
ATOM     18  S   UNL     1      97.244 126.494  83.653  0.00  0.00    +0.000 S 
ATOM     19  H   UNL     1      97.062 127.345  84.698  0.00  0.00    +0.000 HD
ENDBRANCH  17  18
ENDBRANCH   1  17
TORSDOF 4
ENDMDL
