MODEL 1
REMARK VINA RESULT:      -4.7      0.000      0.000
REMARK  Name = *****
REMARK  6 active torsions:
REMARK  status: ('A' for Active; 'I' for Inactive)
REMARK    1  A    between atoms: C_1  and  C_2
REMARK    2  A    between atoms: C_4  and  C_20
REMARK    3  A    between atoms: C_5  and  C_8
REMARK    4  A    between atoms: C_8  and  C_9
REMARK    5  A    between atoms: C_9  and  C_10
REMARK    6  A    between atoms: C_10  and  C_12
REMARK                            x       y       z     vdW  Elec       q    Type
REMARK                         _______ _______ _______ _____ _____    ______ ____
ROOT
ATOM      1  C   UNL     1      89.750  68.558  86.455  0.00  0.00    +0.000 C 
ENDROOT
BRANCH   1   2
ATOM      2  C   UNL     1      88.547  67.672  86.195  0.00  0.00    +0.000 C 
ATOM      3  O   UNL     1      87.929  67.708  85.130  0.00  0.00    +0.000 OA
BRANCH   2   4
ATOM      4  C   UNL     1      88.087  66.719  87.249  0.00  0.00    +0.000 A 
ATOM      5  C   UNL     1      87.015  66.984  88.107  0.00  0.00    +0.000 A 
ATOM      6  C   UNL     1      86.625  66.061  89.075  0.00  0.00    +0.000 A 
ATOM      7  C   UNL     1      87.312  64.860  89.187  0.00  0.00    +0.000 A 
ATOM      8  C   UNL     1      88.380  64.569  88.349  0.00  0.00    +0.000 A 
ATOM      9  C   UNL     1      88.768  65.496  87.379  0.00  0.00    +0.000 A 
ATOM     10  F   UNL     1      86.939  63.972  90.116  0.00  0.00    +0.000 F 
ATOM     11  F   UNL     1      86.323  68.127  88.032  0.00  0.00    +0.000 F 
ENDBRANCH   2   4
ENDBRANCH   1   2
BRANCH   1  12
ATOM     12  C   UNL     1      89.428  70.034  86.214  0.00  0.00    +0.000 C 
BRANCH  12  17
ATOM     13  C   UNL     1      85.480  71.952  90.058  0.00  0.00    +0.000 C 
ATOM     14  C   UNL     1      86.496  71.488  89.058  0.00  0.00    +0.000 A 
ATOM     15  C   UNL     1      86.206  71.508  87.688  0.00  0.00    +0.000 A 
ATOM     16  C   UNL     1      87.133  71.050  86.736  0.00  0.00    +0.000 A 
ATOM     17  C   UNL     1      88.370  70.535  87.173  0.00  0.00    +0.000 A 
ATOM     18  C   UNL     1      88.650  70.509  88.550  0.00  0.00    +0.000 A 
ATOM     19  C   UNL     1      87.722  70.973  89.482  0.00  0.00    +0.000 A 
ATOM     20  C   UNL     1      86.758  71.091  85.279  0.00  0.00    +0.000 C 
ENDBRANCH  12  17
ENDBRANCH   1  12
TORSDOF 4
ENDMDL
