REMARK  Name = *****
REMARK  4 active torsions:
REMARK  status: ('A' for Active; 'I' for Inactive)
REMARK    1  A    between atoms: C_1  and  C_2
REMARK    2  A    between atoms: C_2  and  C_9
REMARK    3  A    between atoms: C_9  and  S_10
REMARK    4  A    between atoms: S_10  and  C_11
REMARK                            x       y       z     vdW  Elec       q    Type
REMARK                         _______ _______ _______ _____ _____    ______ ____
ROOT
ATOM      1  C   UNL     1       1.138  -0.129  -0.072  0.00  0.00    +0.000 C 
ATOM      2  C   UNL     1       2.678  -0.005  -0.011  0.00  0.00    +0.000 C 
ATOM      3  C   UNL     1       3.078   1.197  -0.905  0.00  0.00    +0.000 C 
ATOM      4  C   UNL     1       4.571   1.515  -0.958  0.00  0.00    +0.000 C 
ATOM      5  C   UNL     1       5.371   0.668  -1.944  0.00  0.00    +0.000 C 
ATOM      6  C   UNL     1       4.942  -0.788  -2.096  0.00  0.00    +0.000 C 
ATOM      7  C   UNL     1       4.517  -1.445  -0.793  0.00  0.00    +0.000 C 
ATOM      8  O   UNL     1       3.128  -1.261  -0.555  0.00  0.00    +0.000 OA
ENDROOT
BRANCH   2   9
ATOM      9  C   UNL     1       3.121   0.104   1.476  0.00  0.00    +0.000 C 
BRANCH   9  10
ATOM     10  S   UNL     1       2.555   1.603   2.366  0.00  0.00    +0.000 S 
BRANCH  10  11
ATOM     11  C   UNL     1       3.234   1.254   3.976  0.00  0.00    +0.000 A 
ATOM     12  C   UNL     1       4.614   1.295   4.198  0.00  0.00    +0.000 A 
ATOM     13  C   UNL     1       5.131   1.026   5.466  0.00  0.00    +0.000 A 
ATOM     14  C   UNL     1       4.271   0.722   6.520  0.00  0.00    +0.000 A 
ATOM     15  C   UNL     1       2.893   0.691   6.308  0.00  0.00    +0.000 A 
ATOM     16  C   UNL     1       2.376   0.960   5.039  0.00  0.00    +0.000 A 
ENDBRANCH  10  11
ENDBRANCH   9  10
ENDBRANCH   2   9
TORSDOF 3
