REMARK  Name = *****
REMARK  6 active torsions:
REMARK  status: ('A' for Active; 'I' for Inactive)
REMARK    1  A    between atoms: C_1  and  C_2
REMARK    2  A    between atoms: C_5  and  N_8
REMARK    3  A    between atoms: N_8  and  C_9
REMARK    4  A    between atoms: N_8  and  C_10
REMARK    5  A    between atoms: C_10  and  C_11
REMARK    6  A    between atoms: C_10  and  C_12
REMARK                            x       y       z     vdW  Elec       q    Type
REMARK                         _______ _______ _______ _____ _____    ______ ____
ROOT
ATOM      1  N   UNL     1      -3.243  -0.196  -0.451  0.00  0.00    +0.000 N 
ATOM      2  C   UNL     1      -3.947  -1.468  -0.336  0.00  0.00    +0.000 C 
ENDROOT
BRANCH   1   7
ATOM      3  C   UNL     1       2.420  -0.077   0.531  0.00  0.00    +0.000 C 
ATOM      4  C   UNL     1       0.938  -0.092   0.303  0.00  0.00    +0.000 A 
ATOM      5  C   UNL     1       0.336   0.843  -0.539  0.00  0.00    +0.000 A 
ATOM      6  C   UNL     1      -1.044   0.800  -0.774  0.00  0.00    +0.000 A 
ATOM      7  C   UNL     1      -1.870  -0.173  -0.187  0.00  0.00    +0.000 A 
ATOM      8  C   UNL     1      -1.238  -1.121   0.631  0.00  0.00    +0.000 A 
ATOM      9  C   UNL     1       0.141  -1.084   0.875  0.00  0.00    +0.000 A 
ENDBRANCH   1   7
BRANCH   1  10
ATOM     10  C   UNL     1      -4.000   1.076  -0.302  0.00  0.00    +0.000 C 
ATOM     11  C   UNL     1      -4.858   1.309  -1.552  0.00  0.00    +0.000 C 
BRANCH  10  12
ATOM     12  C   UNL     1      -4.826   1.235   1.013  0.00  0.00    +0.000 C 
ATOM     13  C   UNL     1      -4.066   0.941   2.287  0.00  0.00    +0.000 C 
ATOM     14  C   UNL     1      -4.759   0.079   3.047  0.00  0.00    +0.000 C 
ATOM     15  C   UNL     1      -5.987  -0.271   2.378  0.00  0.00    +0.000 C 
ATOM     16  C   UNL     1      -6.052   0.366   1.200  0.00  0.00    +0.000 C 
ENDBRANCH  10  12
ENDBRANCH   1  10
TORSDOF 3
