MODEL 1
REMARK VINA RESULT:      -4.9      0.000      0.000
REMARK  Name = *****
REMARK  4 active torsions:
REMARK  status: ('A' for Active; 'I' for Inactive)
REMARK    1  A    between atoms: C_1  and  C_2
REMARK    2  A    between atoms: C_5  and  S_8
REMARK    3  A    between atoms: S_8  and  C_10
REMARK    4  A    between atoms: C_11  and  C_12
REMARK                            x       y       z     vdW  Elec       q    Type
REMARK                         _______ _______ _______ _____ _____    ______ ____
ROOT
ATOM      1  S   UNL     1     101.503 126.583  83.589  0.00  0.00    +0.000 S 
ATOM      2  O   UNL     1     101.079 125.649  84.686  0.00  0.00    +0.000 OA
ENDROOT
BRANCH   1   7
ATOM      3  C   UNL     1     105.432 123.412  80.129  0.00  0.00    +0.000 C 
ATOM      4  C   UNL     1     104.449 124.165  80.976  0.00  0.00    +0.000 A 
ATOM      5  C   UNL     1     103.656 125.172  80.414  0.00  0.00    +0.000 A 
ATOM      6  C   UNL     1     102.767 125.900  81.209  0.00  0.00    +0.000 A 
ATOM      7  C   UNL     1     102.664 125.631  82.578  0.00  0.00    +0.000 A 
ATOM      8  C   UNL     1     103.472 124.642  83.146  0.00  0.00    +0.000 A 
ATOM      9  C   UNL     1     104.361 123.916  82.350  0.00  0.00    +0.000 A 
ENDBRANCH   1   7
BRANCH   1  10
ATOM     10  C   UNL     1     100.109 126.600  82.468  0.00  0.00    +0.000 C 
ATOM     11  C   UNL     1      99.098 127.476  82.590  0.00  0.00    +0.000 C 
BRANCH  11  12
ATOM     12  C   UNL     1      98.944 128.515  83.611  0.00  0.00    +0.000 A 
ATOM     13  C   UNL     1      99.433 129.802  83.360  0.00  0.00    +0.000 A 
ATOM     14  C   UNL     1      99.291 130.808  84.318  0.00  0.00    +0.000 A 
ATOM     15  C   UNL     1      98.654 130.535  85.527  0.00  0.00    +0.000 A 
ATOM     16  C   UNL     1      98.153 129.259  85.778  0.00  0.00    +0.000 A 
ATOM     17  C   UNL     1      98.293 128.252  84.821  0.00  0.00    +0.000 A 
ENDBRANCH  11  12
ENDBRANCH   1  10
TORSDOF 3
ENDMDL
