MODEL 1
REMARK VINA RESULT:      -4.1      0.000      0.000
REMARK  Name = *****
REMARK  3 active torsions:
REMARK  status: ('A' for Active; 'I' for Inactive)
REMARK    1  A    between atoms: C_1  and  C_2
REMARK    2  A    between atoms: C_7  and  N_8
REMARK    3  A    between atoms: C_9  and  C_10
REMARK                            x       y       z     vdW  Elec       q    Type
REMARK                         _______ _______ _______ _____ _____    ______ ____
ROOT
ATOM      1  C   UNL     1     102.626 128.633  84.114  0.00  0.00    +0.000 C 
ATOM      2  C   UNL     1     101.270 128.278  83.571  0.00  0.00    +0.000 A 
ATOM      3  C   UNL     1     100.215 129.198  83.668  0.00  0.00    +0.000 A 
ATOM      4  C   UNL     1      98.952 128.887  83.163  0.00  0.00    +0.000 A 
ATOM      5  C   UNL     1      98.730 127.655  82.554  0.00  0.00    +0.000 A 
ATOM      6  C   UNL     1      99.769 126.730  82.461  0.00  0.00    +0.000 A 
ATOM      7  C   UNL     1     101.035 127.023  82.981  0.00  0.00    +0.000 A 
ENDROOT
BRANCH   7   8
ATOM      8  N   UNL     1     102.059 126.067  82.870  0.00  0.00    +0.000 NA
ATOM      9  C   UNL     1     102.536 125.895  81.677  0.00  0.00    +0.000 C 
BRANCH   9  10
ATOM     10  C   UNL     1     103.588 124.938  81.439  0.00  0.00    +0.000 A 
ATOM     11  C   UNL     1     104.219 124.618  80.254  0.00  0.00    +0.000 A 
ATOM     12  C   UNL     1     105.217 123.615  80.427  0.00  0.00    +0.000 A 
ATOM     13  C   UNL     1     105.312 123.206  81.738  0.00  0.00    +0.000 A 
ATOM     14  S   UNL     1     104.203 124.028  82.749  0.00  0.00    +0.000 S 
ENDBRANCH   9  10
ENDBRANCH   7   8
TORSDOF 2
ENDMDL
