REMARK  Name = *****
REMARK  6 active torsions:
REMARK  status: ('A' for Active; 'I' for Inactive)
REMARK    1  A    between atoms: C_1  and  O_2
REMARK    2  A    between atoms: O_2  and  C_3
REMARK    3  A    between atoms: C_3  and  C_4
REMARK    4  A    between atoms: C_3  and  C_12
REMARK    5  A    between atoms: C_4  and  S_5
REMARK    6  A    between atoms: S_5  and  C_6
REMARK                            x       y       z     vdW  Elec       q    Type
REMARK                         _______ _______ _______ _____ _____    ______ ____
ROOT
ATOM      1  C   UNL     1       2.866   0.803   1.012  0.00  0.00    +0.000 C 
ENDROOT
BRANCH   1   2
ATOM      2  C   UNL     1       2.792   2.321   0.984  0.00  0.00    +0.000 A 
ATOM      3  C   UNL     1       1.762   2.963   0.279  0.00  0.00    +0.000 A 
ATOM      4  C   UNL     1       1.673   4.357   0.259  0.00  0.00    +0.000 A 
ATOM      5  C   UNL     1       2.611   5.126   0.944  0.00  0.00    +0.000 A 
ATOM      6  C   UNL     1       3.637   4.504   1.650  0.00  0.00    +0.000 A 
ATOM      7  C   UNL     1       3.727   3.111   1.672  0.00  0.00    +0.000 A 
ENDBRANCH   1   2
BRANCH   1   9
ATOM      8  C   UNL     1       4.436  -0.726   0.076  0.00  0.00    +0.000 C 
ATOM      9  O   UNL     1       4.252   0.426   0.889  0.00  0.00    +0.000 OA
ENDBRANCH   1   9
BRANCH   1  10
ATOM     10  C   UNL     1       2.309   0.206   2.322  0.00  0.00    +0.000 C 
BRANCH  10  11
ATOM     11  S   UNL     1       0.477   0.226   2.381  0.00  0.00    +0.000 S 
BRANCH  11  12
ATOM     12  C   UNL     1       0.151  -0.271   4.119  0.00  0.00    +0.000 C 
ATOM     13  C   UNL     1       0.565   0.815   5.120  0.00  0.00    +0.000 C 
ATOM     14  C   UNL     1       0.209   0.404   6.550  0.00  0.00    +0.000 C 
ATOM     15  C   UNL     1       0.801  -0.956   6.911  0.00  0.00    +0.000 C 
ATOM     16  C   UNL     1       0.400  -2.033   5.905  0.00  0.00    +0.000 C 
ATOM     17  C   UNL     1       0.763  -1.630   4.475  0.00  0.00    +0.000 C 
ENDBRANCH  11  12
ENDBRANCH  10  11
ENDBRANCH   1  10
TORSDOF 5
