MODEL 1
REMARK VINA RESULT:      -3.9      0.000      0.000
REMARK  Name = *****
REMARK  4 active torsions:
REMARK  status: ('A' for Active; 'I' for Inactive)
REMARK    1  A    between atoms: C_4  and  C_6
REMARK    2  A    between atoms: C_6  and  C_7
REMARK    3  A    between atoms: C_7  and  O_9
REMARK    4  A    between atoms: O_9  and  C_10
REMARK                            x       y       z     vdW  Elec       q    Type
REMARK                         _______ _______ _______ _____ _____    ______ ____
ROOT
ATOM      1  C   UNL     1     101.137 127.179  82.909  0.00  0.00    +0.000 C 
ATOM      2  O   UNL     1     100.247 126.668  82.239  0.00  0.00    +0.000 OA
ENDROOT
BRANCH   1   3
ATOM      3  C   UNL     1     100.947 127.701  84.314  0.00  0.00    +0.000 C 
BRANCH   3   7
ATOM      4  C   UNL     1      99.485 131.165  83.883  0.00  0.00    +0.000 A 
ATOM      5  C   UNL     1     100.632 131.608  84.506  0.00  0.00    +0.000 A 
ATOM      6  S   UNL     1     101.676 130.320  84.918  0.00  0.00    +0.000 S 
ATOM      7  C   UNL     1     100.601 129.155  84.268  0.00  0.00    +0.000 A 
ATOM      8  C   UNL     1      99.468 129.748  83.744  0.00  0.00    +0.000 A 
ENDBRANCH   3   7
ENDBRANCH   1   3
BRANCH   1   9
ATOM      9  O   UNL     1     102.465 127.357  82.529  0.00  0.00    +0.000 OA
BRANCH   9  10
ATOM     10  C   UNL     1     103.057 126.202  82.017  0.00  0.00    +0.000 A 
ATOM     11  C   UNL     1     103.381 126.123  80.663  0.00  0.00    +0.000 A 
ATOM     12  C   UNL     1     104.019 124.978  80.183  0.00  0.00    +0.000 A 
ATOM     13  C   UNL     1     104.336 123.940  81.062  0.00  0.00    +0.000 A 
ATOM     14  C   UNL     1     104.026 124.038  82.421  0.00  0.00    +0.000 A 
ATOM     15  C   UNL     1     103.387 125.180  82.904  0.00  0.00    +0.000 A 
ATOM     16 CL   UNL     1     105.126 122.532  80.468  0.00  0.00    +0.000 Cl
ENDBRANCH   9  10
ENDBRANCH   1   9
TORSDOF 4
ENDMDL
