MODEL 1
REMARK VINA RESULT:      -4.3      0.000      0.000
REMARK  Name = *****
REMARK  4 active torsions:
REMARK  status: ('A' for Active; 'I' for Inactive)
REMARK    1  A    between atoms: C_1  and  C_2
REMARK    2  A    between atoms: C_3  and  C_15
REMARK    3  A    between atoms: C_5  and  N_8
REMARK    4  A    between atoms: C_9  and  C_10
REMARK                            x       y       z     vdW  Elec       q    Type
REMARK                         _______ _______ _______ _____ _____    ______ ____
ROOT
ATOM      1  C   UNL     1      99.216 129.405  84.109  0.00  0.00    +0.000 C 
ATOM      2  C   UNL     1     100.347 128.585  83.550  0.00  0.00    +0.000 A 
ATOM      3  C   UNL     1     100.106 127.413  82.805  0.00  0.00    +0.000 A 
ATOM      4  C   UNL     1     101.198 126.685  82.299  0.00  0.00    +0.000 A 
ATOM      5  C   UNL     1     102.512 127.103  82.523  0.00  0.00    +0.000 A 
ATOM      6  C   UNL     1     102.740 128.278  83.237  0.00  0.00    +0.000 A 
ATOM      7  C   UNL     1     101.669 129.011  83.751  0.00  0.00    +0.000 A 
ATOM      8  C   UNL     1      98.710 126.921  82.541  0.00  0.00    +0.000 C 
ENDROOT
BRANCH   5   9
ATOM      9  N   UNL     1     103.583 126.367  82.001  0.00  0.00    +0.000 NA
ATOM     10  C   UNL     1     103.271 125.233  81.454  0.00  0.00    +0.000 C 
BRANCH  10  11
ATOM     11  C   UNL     1     104.290 124.388  80.885  0.00  0.00    +0.000 A 
ATOM     12  C   UNL     1     104.593 123.074  81.180  0.00  0.00    +0.000 A 
ATOM     13  C   UNL     1     105.677 122.580  80.398  0.00  0.00    +0.000 A 
ATOM     14  C   UNL     1     106.164 123.536  79.533  0.00  0.00    +0.000 A 
ATOM     15  S   UNL     1     105.316 125.016  79.669  0.00  0.00    +0.000 S 
ENDBRANCH  10  11
ENDBRANCH   5   9
TORSDOF 2
ENDMDL
