MODEL 1
REMARK VINA RESULT:      -4.8      0.000      0.000
REMARK  Name = *****
REMARK  6 active torsions:
REMARK  status: ('A' for Active; 'I' for Inactive)
REMARK    1  A    between atoms: C_1  and  C_2
REMARK    2  A    between atoms: C_5  and  O_8
REMARK    3  A    between atoms: O_8  and  C_9
REMARK    4  A    between atoms: C_9  and  C_11
REMARK    5  A    between atoms: C_13  and  C_18
REMARK    6  A    between atoms: C_14  and  C_17
REMARK                            x       y       z     vdW  Elec       q    Type
REMARK                         _______ _______ _______ _____ _____    ______ ____
ROOT
ATOM      1  C   UNL     1      88.431  70.461  86.246  0.00  0.00    +0.000 C 
ATOM      2  O   UNL     1      88.782  70.685  85.098  0.00  0.00    +0.000 OA
ENDROOT
BRANCH   1   3
ATOM      3  C   UNL     1      87.191  71.036  86.842  0.00  0.00    +0.000 A 
ATOM      4  C   UNL     1      86.203  71.519  85.972  0.00  0.00    +0.000 A 
ATOM      5  C   UNL     1      85.010  72.074  86.465  0.00  0.00    +0.000 A 
ATOM      6  C   UNL     1      84.803  72.136  87.859  0.00  0.00    +0.000 A 
ATOM      7  C   UNL     1      85.802  71.663  88.723  0.00  0.00    +0.000 A 
ATOM      8  C   UNL     1      86.986  71.118  88.222  0.00  0.00    +0.000 A 
ATOM      9  C   UNL     1      83.545  72.724  88.441  0.00  0.00    +0.000 C 
ATOM     10  C   UNL     1      83.974  72.571  85.494  0.00  0.00    +0.000 C 
ENDBRANCH   1   3
BRANCH   1  11
ATOM     11  O   UNL     1      89.047  69.650  87.172  0.00  0.00    +0.000 OA
BRANCH  11  16
ATOM     12  C   UNL     1      89.473  64.142  86.104  0.00  0.00    +0.000 C 
ATOM     13  C   UNL     1      89.312  65.595  86.416  0.00  0.00    +0.000 A 
ATOM     14  C   UNL     1      90.341  66.501  86.177  0.00  0.00    +0.000 A 
ATOM     15  N   UNL     1      90.253  67.831  86.407  0.00  0.00    +0.000 NA
ATOM     16  C   UNL     1      89.066  68.286  86.861  0.00  0.00    +0.000 A 
ATOM     17  C   UNL     1      87.983  67.468  87.151  0.00  0.00    +0.000 A 
ATOM     18  C   UNL     1      88.107  66.103  86.906  0.00  0.00    +0.000 A 
ENDBRANCH  11  16
ENDBRANCH   1  11
TORSDOF 3
ENDMDL
