MODEL 1
REMARK VINA RESULT:      -4.0      0.000      0.000
REMARK  Name = *****
REMARK  4 active torsions:
REMARK  status: ('A' for Active; 'I' for Inactive)
REMARK    1  A    between atoms: C_4  and  S_16
REMARK    2  A    between atoms: C_5  and  O_7
REMARK    3  A    between atoms: O_7  and  C_8
REMARK    4  A    between atoms: C_8  and  C_10
REMARK                            x       y       z     vdW  Elec       q    Type
REMARK                         _______ _______ _______ _____ _____    ______ ____
ROOT
ATOM      1  O   UNL     1     103.325 126.769  83.154  0.00  0.00    +0.000 OA
ENDROOT
BRANCH   1   6
ATOM      2  C   UNL     1     103.471 125.618  80.361  0.00  0.00    +0.000 C 
ATOM      3  C   UNL     1     104.185 124.309  80.680  0.00  0.00    +0.000 C 
ATOM      4  C   UNL     1     104.487 124.178  82.172  0.00  0.00    +0.000 C 
ATOM      5  C   UNL     1     105.237 125.386  82.755  0.00  0.00    +0.000 C 
ATOM      6  C   UNL     1     104.554 126.720  82.387  0.00  0.00    +0.000 C 
ATOM      7  C   UNL     1     104.235 126.831  80.889  0.00  0.00    +0.000 C 
BRANCH   5   8
ATOM      8  S   UNL     1     107.008 125.360  82.278  0.00  0.00    +0.000 S 
ATOM      9  H   UNL     1     107.189 126.118  81.164  0.00  0.00    +0.000 HD
ENDBRANCH   5   8
ENDBRANCH   1   6
BRANCH   1  10
ATOM     10  C   UNL     1     102.762 127.990  83.327  0.00  0.00    +0.000 C 
ATOM     11  O   UNL     1     103.349 129.007  83.657  0.00  0.00    +0.000 OA
BRANCH  10  12
ATOM     12  C   UNL     1     101.292 127.915  83.107  0.00  0.00    +0.000 A 
ATOM     13  C   UNL     1     100.498 128.975  83.564  0.00  0.00    +0.000 A 
ATOM     14  C   UNL     1      99.110 128.929  83.420  0.00  0.00    +0.000 A 
ATOM     15  C   UNL     1      98.507 127.824  82.820  0.00  0.00    +0.000 A 
ATOM     16  C   UNL     1      99.290 126.767  82.357  0.00  0.00    +0.000 A 
ATOM     17  C   UNL     1     100.679 126.811  82.497  0.00  0.00    +0.000 A 
ENDBRANCH  10  12
ENDBRANCH   1  10
TORSDOF 4
ENDMDL
