MODEL 1
REMARK VINA RESULT:      -5.1      0.000      0.000
REMARK  Name = *****
REMARK  1 active torsions:
REMARK  status: ('A' for Active; 'I' for Inactive)
REMARK    1  A    between atoms: C_8  and  C_12
REMARK                            x       y       z     vdW  Elec       q    Type
REMARK                         _______ _______ _______ _____ _____    ______ ____
ROOT
ATOM      1  C   UNL     1     101.027 131.040  84.861  0.00  0.00    +0.000 A 
ATOM      2  C   UNL     1      99.650 130.992  84.672  0.00  0.00    +0.000 A 
ATOM      3  C   UNL     1      99.081 129.905  84.010  0.00  0.00    +0.000 A 
ATOM      4  C   UNL     1      99.885 128.854  83.531  0.00  0.00    +0.000 A 
ATOM      5  C   UNL     1     101.272 128.900  83.719  0.00  0.00    +0.000 A 
ATOM      6  C   UNL     1     101.832 130.002  84.388  0.00  0.00    +0.000 A 
ATOM      7  C   UNL     1     102.172 127.849  83.245  0.00  0.00    +0.000 A 
ATOM      8  C   UNL     1     101.762 126.740  82.619  0.00  0.00    +0.000 A 
ATOM      9  S   UNL     1     100.127 126.355  82.265  0.00  0.00    +0.000 S 
ATOM     10  C   UNL     1      99.207 127.732  82.836  0.00  0.00    +0.000 A 
ATOM     11  O   UNL     1      97.994 127.760  82.663  0.00  0.00    +0.000 OA
ENDROOT
BRANCH   8  12
ATOM     12  C   UNL     1     102.753 125.743  82.188  0.00  0.00    +0.000 A 
ATOM     13  C   UNL     1     103.119 125.647  80.837  0.00  0.00    +0.000 A 
ATOM     14  C   UNL     1     104.044 124.685  80.424  0.00  0.00    +0.000 A 
ATOM     15  C   UNL     1     104.601 123.814  81.359  0.00  0.00    +0.000 A 
ATOM     16  C   UNL     1     104.243 123.895  82.702  0.00  0.00    +0.000 A 
ATOM     17  C   UNL     1     103.318 124.858  83.117  0.00  0.00    +0.000 A 
ATOM     18 CL   UNL     1     105.739 122.628  80.848  0.00  0.00    +0.000 Cl
ENDBRANCH   8  12
TORSDOF 1
ENDMDL
