MODEL 1
REMARK VINA RESULT:      -3.7      0.000      0.000
REMARK  Name = *****
REMARK  3 active torsions:
REMARK  status: ('A' for Active; 'I' for Inactive)
REMARK    1  A    between atoms: C_6  and  C_7
REMARK    2  A    between atoms: C_7  and  S_8
REMARK    3  A    between atoms: S_8  and  C_9
REMARK                            x       y       z     vdW  Elec       q    Type
REMARK                         _______ _______ _______ _____ _____    ______ ____
ROOT
ATOM      1  C   UNL     1     103.688 124.949  82.670  0.00  0.00    +0.000 A 
ATOM      2  C   UNL     1     104.200 123.653  82.769  0.00  0.00    +0.000 A 
ATOM      3  C   UNL     1     104.689 123.013  81.633  0.00  0.00    +0.000 A 
ATOM      4  C   UNL     1     104.666 123.654  80.396  0.00  0.00    +0.000 A 
ATOM      5  C   UNL     1     104.153 124.949  80.297  0.00  0.00    +0.000 A 
ATOM      6  C   UNL     1     103.666 125.613  81.433  0.00  0.00    +0.000 A 
ATOM      7 BR   UNL     1     105.383 121.260  81.768  0.00  0.00    +0.000 Br
ENDROOT
BRANCH   6   8
ATOM      8  C   UNL     1     103.099 127.007  81.322  0.00  0.00    +0.000 C 
BRANCH   8   9
ATOM      9  S   UNL     1     102.816 127.745  82.959  0.00  0.00    +0.000 S 
BRANCH   9  10
ATOM     10  C   UNL     1     101.062 127.763  82.990  0.00  0.00    +0.000 A 
ATOM     11  C   UNL     1     100.278 126.751  82.485  0.00  0.00    +0.000 A 
ATOM     12  S   UNL     1      98.608 127.082  82.676  0.00  0.00    +0.000 S 
ATOM     13  C   UNL     1      98.938 128.569  83.459  0.00  0.00    +0.000 A 
ATOM     14  C   UNL     1     100.291 128.810  83.567  0.00  0.00    +0.000 A 
ENDBRANCH   9  10
ENDBRANCH   8   9
ENDBRANCH   6   8
TORSDOF 3
ENDMDL
