REMARK  Name = *****
REMARK  5 active torsions:
REMARK  status: ('A' for Active; 'I' for Inactive)
REMARK    1  A    between atoms: C_1  and  C_2
REMARK    2  A    between atoms: C_2  and  C_14
REMARK    3  A    between atoms: N_3  and  O_4
REMARK    4  A    between atoms: O_4  and  C_5
REMARK    5  A    between atoms: C_5  and  C_6
REMARK                            x       y       z     vdW  Elec       q    Type
REMARK                         _______ _______ _______ _____ _____    ______ ____
ROOT
ATOM      1  O   UNL     1       4.644  -0.791  -0.693  0.00  0.00    +0.000 OA
ENDROOT
BRANCH   1   4
ATOM      2  C   UNL     1       1.120   0.015  -0.140  0.00  0.00    +0.000 C 
ATOM      3  C   UNL     1       2.635   0.071  -0.121  0.00  0.00    +0.000 C 
ATOM      4  N   UNL     1       3.249  -0.938  -0.672  0.00  0.00    +0.000 NA
BRANCH   3   5
ATOM      5  C   UNL     1       3.274   1.227   0.502  0.00  0.00    +0.000 A 
ATOM      6  C   UNL     1       4.431   1.283   1.260  0.00  0.00    +0.000 A 
ATOM      7  C   UNL     1       4.741   2.601   1.703  0.00  0.00    +0.000 A 
ATOM      8  C   UNL     1       3.809   3.518   1.275  0.00  0.00    +0.000 A 
ATOM      9  S   UNL     1       2.571   2.788   0.351  0.00  0.00    +0.000 S 
ENDBRANCH   3   5
ENDBRANCH   1   4
BRANCH   1  10
ATOM     10  C   UNL     1       5.244  -1.982  -1.212  0.00  0.00    +0.000 C 
BRANCH  10  11
ATOM     11  C   UNL     1       5.354  -3.034  -0.149  0.00  0.00    +0.000 A 
ATOM     12  C   UNL     1       4.706  -4.262  -0.279  0.00  0.00    +0.000 A 
ATOM     13  C   UNL     1       4.800  -5.242   0.710  0.00  0.00    +0.000 A 
ATOM     14  C   UNL     1       5.555  -5.001   1.856  0.00  0.00    +0.000 A 
ATOM     15  C   UNL     1       6.214  -3.782   2.001  0.00  0.00    +0.000 A 
ATOM     16  C   UNL     1       6.109  -2.814   1.003  0.00  0.00    +0.000 A 
ATOM     17  F   UNL     1       6.763  -1.655   1.163  0.00  0.00    +0.000 F 
ATOM     18  F   UNL     1       3.984  -4.529  -1.376  0.00  0.00    +0.000 F 
ENDBRANCH  10  11
ENDBRANCH   1  10
TORSDOF 4
