REMARK  Name = *****
REMARK  5 active torsions:
REMARK  status: ('A' for Active; 'I' for Inactive)
REMARK    1  A    between atoms: C_1  and  C_2
REMARK    2  A    between atoms: C_2  and  C_3
REMARK    3  A    between atoms: C_2  and  O_8
REMARK    4  A    between atoms: O_8  and  C_9
REMARK    5  A    between atoms: C_9  and  C_11
REMARK                            x       y       z     vdW  Elec       q    Type
REMARK                         _______ _______ _______ _____ _____    ______ ____
ROOT
ATOM      1  C   UNL     1       3.206   1.761  -1.253  0.00  0.00    +0.000 C 
ATOM      2  O   UNL     1       2.894   2.602  -0.428  0.00  0.00    +0.000 OA
ENDROOT
BRANCH   1   3
ATOM      3  C   UNL     1       3.544   2.075  -2.646  0.00  0.00    +0.000 A 
ATOM      4  C   UNL     1       2.528   2.601  -3.455  0.00  0.00    +0.000 A 
ATOM      5  C   UNL     1       2.794   2.915  -4.788  0.00  0.00    +0.000 A 
ATOM      6  C   UNL     1       4.073   2.714  -5.307  0.00  0.00    +0.000 A 
ATOM      7  C   UNL     1       5.090   2.206  -4.494  0.00  0.00    +0.000 A 
ATOM      8  C   UNL     1       4.830   1.888  -3.157  0.00  0.00    +0.000 A 
ATOM      9 CL   UNL     1       6.141   1.316  -2.192  0.00  0.00    +0.000 Cl
ENDBRANCH   1   3
BRANCH   1  10
ATOM     10  O   UNL     1       3.184   0.414  -1.115  0.00  0.00    +0.000 OA
BRANCH  10  12
ATOM     11  C   UNL     1       1.256  -0.031   0.288  0.00  0.00    +0.000 C 
ATOM     12  C   UNL     1       2.781  -0.083   0.177  0.00  0.00    +0.000 C 
BRANCH  12  13
ATOM     13  C   UNL     1       3.296  -1.522   0.355  0.00  0.00    +0.000 C 
ATOM     14  C   UNL     1       4.818  -1.645   0.267  0.00  0.00    +0.000 C 
ATOM     15  C   UNL     1       5.048  -3.144   0.128  0.00  0.00    +0.000 C 
ATOM     16  C   UNL     1       3.823  -3.682  -0.609  0.00  0.00    +0.000 C 
ATOM     17  C   UNL     1       2.841  -2.517  -0.717  0.00  0.00    +0.000 C 
ENDBRANCH  12  13
ENDBRANCH  10  12
ENDBRANCH   1  10
TORSDOF 4
