MODEL 1
REMARK VINA RESULT:      -3.4      0.000      0.000
REMARK  Name = *****
REMARK  5 active torsions:
REMARK  status: ('A' for Active; 'I' for Inactive)
REMARK    1  A    between atoms: C_4  and  C_7
REMARK    2  A    between atoms: C_7  and  C_8
REMARK    3  A    between atoms: C_8  and  S_9
REMARK    4  A    between atoms: S_9  and  C_10
REMARK    5  A    between atoms: C_10  and  C_11
REMARK                            x       y       z     vdW  Elec       q    Type
REMARK                         _______ _______ _______ _____ _____    ______ ____
ROOT
ATOM      1  C   UNL     1      85.146  64.522  86.435  0.00  0.00    +0.000 C 
ENDROOT
BRANCH   1   2
ATOM      2  C   UNL     1      85.455  63.035  86.625  0.00  0.00    +0.000 C 
BRANCH   2   6
ATOM      3  C   UNL     1      84.775  61.860  90.802  0.00  0.00    +0.000 C 
ATOM      4  C   UNL     1      85.632  60.947  89.933  0.00  0.00    +0.000 C 
ATOM      5  C   UNL     1      86.168  61.695  88.708  0.00  0.00    +0.000 C 
ATOM      6  C   UNL     1      85.130  62.557  88.026  0.00  0.00    +0.000 C 
ATOM      7  C   UNL     1      83.961  62.859  88.623  0.00  0.00    +0.000 C 
ATOM      8  C   UNL     1      83.593  62.421  90.011  0.00  0.00    +0.000 C 
ENDBRANCH   2   6
ENDBRANCH   1   2
BRANCH   1   9
ATOM      9  S   UNL     1      86.646  65.496  86.077  0.00  0.00    +0.000 S 
BRANCH   9  10
ATOM     10  C   UNL     1      86.764  66.444  87.627  0.00  0.00    +0.000 C 
BRANCH  10  11
ATOM     11  C   UNL     1      87.181  65.566  88.780  0.00  0.00    +0.000 A 
ATOM     12  C   UNL     1      86.440  65.554  89.972  0.00  0.00    +0.000 A 
ATOM     13  C   UNL     1      86.829  64.746  91.041  0.00  0.00    +0.000 A 
ATOM     14  C   UNL     1      87.965  63.946  90.933  0.00  0.00    +0.000 A 
ATOM     15  C   UNL     1      88.717  63.957  89.759  0.00  0.00    +0.000 A 
ATOM     16  C   UNL     1      88.329  64.764  88.689  0.00  0.00    +0.000 A 
ENDBRANCH  10  11
ENDBRANCH   9  10
ENDBRANCH   1   9
TORSDOF 5
ENDMDL
