REMARK  Name = *****
REMARK  3 active torsions:
REMARK  status: ('A' for Active; 'I' for Inactive)
REMARK    1  A    between atoms: C_3  and  C_8
REMARK    2  A    between atoms: C_8  and  N_10
REMARK    3  A    between atoms: N_10  and  C_11
REMARK                            x       y       z     vdW  Elec       q    Type
REMARK                         _______ _______ _______ _____ _____    ______ ____
ROOT
ATOM      1  C   UNL     1      -2.257   2.238   0.646  0.00  0.00    +0.000 C 
ATOM      2  S   UNL     1      -3.797   1.855   1.187  0.00  0.00    +0.000 S 
ENDROOT
BRANCH   1   5
ATOM      3  C   UNL     1       0.811   0.029   0.703  0.00  0.00    +0.000 A 
ATOM      4  C   UNL     1      -0.104   1.035   1.021  0.00  0.00    +0.000 A 
ATOM      5  C   UNL     1      -1.306   1.139   0.306  0.00  0.00    +0.000 A 
ATOM      6  C   UNL     1      -1.591   0.246  -0.731  0.00  0.00    +0.000 A 
ATOM      7  C   UNL     1      -0.669  -0.748  -1.035  0.00  0.00    +0.000 A 
ATOM      8  C   UNL     1       0.526  -0.864  -0.329  0.00  0.00    +0.000 A 
ATOM      9  F   UNL     1      -0.930  -1.606  -2.029  0.00  0.00    +0.000 F 
ENDBRANCH   1   5
BRANCH   1  10
ATOM     10  N   UNL     1      -1.696   3.487   0.405  0.00  0.00    +0.000 N 
ATOM     11  H   UNL     1      -0.824   3.448  -0.051  0.00  0.00    +0.000 HD
BRANCH  10  12
ATOM     12  C   UNL     1      -2.134   4.803   0.687  0.00  0.00    +0.000 A 
ATOM     13  C   UNL     1      -3.177   5.142   1.548  0.00  0.00    +0.000 A 
ATOM     14  C   UNL     1      -3.505   6.484   1.764  0.00  0.00    +0.000 A 
ATOM     15  C   UNL     1      -2.795   7.504   1.136  0.00  0.00    +0.000 A 
ATOM     16  C   UNL     1      -1.741   7.180   0.289  0.00  0.00    +0.000 A 
ATOM     17  C   UNL     1      -1.411   5.840   0.073  0.00  0.00    +0.000 A 
ATOM     18 CL   UNL     1      -4.792   6.887   2.835  0.00  0.00    +0.000 Cl
ENDBRANCH  10  12
ENDBRANCH   1  10
TORSDOF 3
