MODEL 1
REMARK VINA RESULT:      -5.5      0.000      0.000
REMARK  Name = *****
REMARK  3 active torsions:
REMARK  status: ('A' for Active; 'I' for Inactive)
REMARK    1  A    between atoms: C_1  and  C_2
REMARK    2  A    between atoms: C_5  and  C_8
REMARK    3  A    between atoms: C_8  and  C_9
REMARK                            x       y       z     vdW  Elec       q    Type
REMARK                         _______ _______ _______ _____ _____    ______ ____
ROOT
ATOM      1  C   UNL     1      88.895  70.295  87.504  0.00  0.00    +0.000 C 
ATOM      2  F   UNL     1      89.924  70.985  86.915  0.00  0.00    +0.000 F 
ATOM      3  F   UNL     1      89.140  70.423  88.849  0.00  0.00    +0.000 F 
ENDROOT
BRANCH   1   4
ATOM      4  C   UNL     1      88.962  68.839  87.107  0.00  0.00    +0.000 A 
ATOM      5  N   UNL     1      88.054  67.882  87.248  0.00  0.00    +0.000 NA
ATOM      6  C   UNL     1      88.662  66.769  86.725  0.00  0.00    +0.000 A 
ATOM      7  C   UNL     1      88.210  65.451  86.586  0.00  0.00    +0.000 A 
ATOM      8  C   UNL     1      89.077  64.514  86.002  0.00  0.00    +0.000 A 
ATOM      9  C   UNL     1      90.357  64.882  85.568  0.00  0.00    +0.000 A 
ATOM     10  C   UNL     1      90.822  66.196  85.701  0.00  0.00    +0.000 A 
ATOM     11  C   UNL     1      89.935  67.092  86.283  0.00  0.00    +0.000 A 
ATOM     12  O   UNL     1      90.139  68.417  86.525  0.00  0.00    +0.000 OA
ENDBRANCH   1   4
BRANCH   1  17
ATOM     13  C   UNL     1      83.744  72.672  86.104  0.00  0.00    +0.000 C 
ATOM     14  C   UNL     1      85.067  72.055  86.452  0.00  0.00    +0.000 A 
ATOM     15  C   UNL     1      85.984  71.709  85.455  0.00  0.00    +0.000 A 
ATOM     16  C   UNL     1      87.213  71.137  85.791  0.00  0.00    +0.000 A 
ATOM     17  C   UNL     1      87.548  70.900  87.133  0.00  0.00    +0.000 A 
ATOM     18  C   UNL     1      86.627  71.253  88.131  0.00  0.00    +0.000 A 
ATOM     19  C   UNL     1      85.397  71.823  87.793  0.00  0.00    +0.000 A 
ENDBRANCH   1  17
TORSDOF 2
ENDMDL
