REMARK  Name = *****
REMARK  4 active torsions:
REMARK  status: ('A' for Active; 'I' for Inactive)
REMARK    1  A    between atoms: C_4  and  S_7
REMARK    2  A    between atoms: S_7  and  C_8
REMARK    3  A    between atoms: C_8  and  C_9
REMARK    4  A    between atoms: C_8  and  C_11
REMARK                            x       y       z     vdW  Elec       q    Type
REMARK                         _______ _______ _______ _____ _____    ______ ____
ROOT
ATOM      1  C   UNL     1      -3.980  -0.856   0.195  0.00  0.00    +0.000 C 
ENDROOT
BRANCH   1   2
ATOM      2  C   UNL     1      -5.446  -0.789  -0.228  0.00  0.00    +0.000 A 
ATOM      3  C   UNL     1      -5.877  -1.477  -1.377  0.00  0.00    +0.000 A 
ATOM      4  C   UNL     1      -7.212  -1.415  -1.787  0.00  0.00    +0.000 A 
ATOM      5  C   UNL     1      -8.128  -0.663  -1.057  0.00  0.00    +0.000 A 
ATOM      6  C   UNL     1      -7.722   0.032   0.078  0.00  0.00    +0.000 A 
ATOM      7  C   UNL     1      -6.388  -0.026   0.490  0.00  0.00    +0.000 A 
ATOM      8 CL   UNL     1      -9.770  -0.588  -1.565  0.00  0.00    +0.000 Cl
ENDBRANCH   1   2
BRANCH   1   9
ATOM      9  C   UNL     1      -3.820  -1.163   1.634  0.00  0.00    +0.000 C 
ATOM     10  N   UNL     1      -3.696  -1.408   2.764  0.00  0.00    +0.000 NA
ENDBRANCH   1   9
BRANCH   1  11
ATOM     11  S   UNL     1      -3.133   0.713  -0.290  0.00  0.00    +0.000 S 
BRANCH  11  15
ATOM     12  C   UNL     1       1.222  -0.543   0.359  0.00  0.00    +0.000 A 
ATOM     13  C   UNL     1       0.544  -0.956  -0.787  0.00  0.00    +0.000 A 
ATOM     14  C   UNL     1      -0.783  -0.572  -0.991  0.00  0.00    +0.000 A 
ATOM     15  C   UNL     1      -1.438   0.221  -0.044  0.00  0.00    +0.000 A 
ATOM     16  C   UNL     1      -0.750   0.643   1.097  0.00  0.00    +0.000 A 
ATOM     17  C   UNL     1       0.577   0.258   1.299  0.00  0.00    +0.000 A 
ENDBRANCH  11  15
ENDBRANCH   1  11
TORSDOF 4
