REMARK  Name = *****
REMARK  4 active torsions:
REMARK  status: ('A' for Active; 'I' for Inactive)
REMARK    1  A    between atoms: C_1  and  C_2
REMARK    2  A    between atoms: C_5  and  O_8
REMARK    3  A    between atoms: O_8  and  C_9
REMARK    4  A    between atoms: C_9  and  C_10
REMARK                            x       y       z     vdW  Elec       q    Type
REMARK                         _______ _______ _______ _____ _____    ______ ____
ROOT
ATOM      1  C   UNL     1      -4.938   1.505  -1.066  0.00  0.00    +0.000 A 
ATOM      2  C   UNL     1      -5.674   0.669  -1.910  0.00  0.00    +0.000 A 
ATOM      3  C   UNL     1      -7.065   0.727  -1.944  0.00  0.00    +0.000 A 
ATOM      4  C   UNL     1      -7.741   1.620  -1.127  0.00  0.00    +0.000 A 
ATOM      5  C   UNL     1      -7.029   2.455  -0.278  0.00  0.00    +0.000 A 
ATOM      6  C   UNL     1      -5.638   2.394  -0.246  0.00  0.00    +0.000 A 
ATOM      7  F   UNL     1      -4.964   3.208   0.578  0.00  0.00    +0.000 F 
ATOM      8  F   UNL     1      -7.678   3.323   0.510  0.00  0.00    +0.000 F 
ATOM      9  F   UNL     1      -9.080   1.681  -1.161  0.00  0.00    +0.000 F 
ATOM     10  F   UNL     1      -7.748  -0.079  -2.769  0.00  0.00    +0.000 F 
ATOM     11  F   UNL     1      -5.033  -0.197  -2.709  0.00  0.00    +0.000 F 
ENDROOT
BRANCH   1  12
ATOM     12  C   UNL     1      -3.442   1.405  -0.998  0.00  0.00    +0.000 C 
BRANCH  12  13
ATOM     13  O   UNL     1      -3.130   0.377  -0.063  0.00  0.00    +0.000 OA
BRANCH  13  18
ATOM     14  C   UNL     1       2.232  -1.203   0.930  0.00  0.00    +0.000 C 
ATOM     15  C   UNL     1       0.827  -0.777   0.625  0.00  0.00    +0.000 A 
ATOM     16  C   UNL     1       0.581   0.316  -0.214  0.00  0.00    +0.000 A 
ATOM     17  C   UNL     1      -0.728   0.736  -0.476  0.00  0.00    +0.000 A 
ATOM     18  C   UNL     1      -1.807   0.072   0.106  0.00  0.00    +0.000 A 
ATOM     19  C   UNL     1      -1.563  -1.006   0.960  0.00  0.00    +0.000 A 
ATOM     20  C   UNL     1      -0.257  -1.427   1.222  0.00  0.00    +0.000 A 
ENDBRANCH  13  18
ENDBRANCH  12  13
ENDBRANCH   1  12
TORSDOF 3
