MODEL 1
REMARK VINA RESULT:      -4.5      0.000      0.000
REMARK  Name = *****
REMARK  4 active torsions:
REMARK  status: ('A' for Active; 'I' for Inactive)
REMARK    1  A    between atoms: C_4  and  C_7
REMARK    2  A    between atoms: C_7  and  O_8
REMARK    3  A    between atoms: O_8  and  C_9
REMARK    4  A    between atoms: C_9  and  C_11
REMARK                            x       y       z     vdW  Elec       q    Type
REMARK                         _______ _______ _______ _____ _____    ______ ____
ROOT
ATOM      1  C   UNL     1     104.677 124.282  80.131  0.00  0.00    +0.000 C 
ATOM      2  O   UNL     1     105.619 124.432  79.370  0.00  0.00    +0.000 OA
ENDROOT
BRANCH   1   3
ATOM      3  C   UNL     1     104.609 123.187  81.137  0.00  0.00    +0.000 A 
ATOM      4  C   UNL     1     104.492 123.437  82.510  0.00  0.00    +0.000 A 
ATOM      5  C   UNL     1     104.431 122.368  83.399  0.00  0.00    +0.000 A 
ATOM      6  C   UNL     1     104.483 121.057  82.938  0.00  0.00    +0.000 A 
ATOM      7  C   UNL     1     104.597 120.795  81.578  0.00  0.00    +0.000 A 
ATOM      8  C   UNL     1     104.659 121.860  80.676  0.00  0.00    +0.000 A 
ATOM      9  F   UNL     1     104.424 120.035  83.802  0.00  0.00    +0.000 F 
ATOM     10  F   UNL     1     104.320 122.615  84.712  0.00  0.00    +0.000 F 
ENDBRANCH   1   3
BRANCH   1  11
ATOM     11  O   UNL     1     103.564 125.050  80.197  0.00  0.00    +0.000 OA
BRANCH  11  12
ATOM     12  C   UNL     1     103.759 126.470  80.299  0.00  0.00    +0.000 C 
BRANCH  12  16
ATOM     13  C   UNL     1     101.699 127.484  84.049  0.00  0.00    +0.000 C 
ATOM     14  C   UNL     1     102.586 128.536  83.391  0.00  0.00    +0.000 C 
ATOM     15  C   UNL     1     103.546 127.912  82.380  0.00  0.00    +0.000 C 
ATOM     16  C   UNL     1     102.794 127.087  81.323  0.00  0.00    +0.000 C 
ATOM     17  C   UNL     1     101.924 126.020  82.004  0.00  0.00    +0.000 C 
ATOM     18  C   UNL     1     100.961 126.643  83.012  0.00  0.00    +0.000 C 
ENDBRANCH  12  16
ENDBRANCH  11  12
ENDBRANCH   1  11
TORSDOF 4
ENDMDL
