MODEL 1
REMARK VINA RESULT:      -4.4      0.000      0.000
REMARK  Name = *****
REMARK  5 active torsions:
REMARK  status: ('A' for Active; 'I' for Inactive)
REMARK    1  A    between atoms: C_1  and  C_2
REMARK    2  A    between atoms: C_3  and  O_9
REMARK    3  A    between atoms: C_4  and  C_8
REMARK    4  A    between atoms: O_9  and  C_10
REMARK    5  A    between atoms: C_10  and  C_11
REMARK                            x       y       z     vdW  Elec       q    Type
REMARK                         _______ _______ _______ _____ _____    ______ ____
ROOT
ATOM      1  C   UNL     1     104.157 123.545  83.348  0.00  0.00    +0.000 C 
ATOM      2  C   UNL     1     104.439 124.226  82.040  0.00  0.00    +0.000 A 
ATOM      3  C   UNL     1     103.940 125.506  81.749  0.00  0.00    +0.000 A 
ATOM      4  C   UNL     1     104.160 126.106  80.497  0.00  0.00    +0.000 A 
ATOM      5  C   UNL     1     104.975 125.446  79.568  0.00  0.00    +0.000 A 
ATOM      6  C   UNL     1     105.522 124.199  79.867  0.00  0.00    +0.000 A 
ATOM      7  C   UNL     1     105.252 123.590  81.092  0.00  0.00    +0.000 A 
ATOM      8  C   UNL     1     103.570 127.444  80.152  0.00  0.00    +0.000 C 
ENDROOT
BRANCH   3   9
ATOM      9  O   UNL     1     103.157 126.154  82.673  0.00  0.00    +0.000 OA
BRANCH   9  10
ATOM     10  C   UNL     1     101.779 125.794  82.497  0.00  0.00    +0.000 C 
BRANCH  10  11
ATOM     11  C   UNL     1     100.892 126.986  82.777  0.00  0.00    +0.000 A 
ATOM     12  C   UNL     1     101.398 128.139  83.395  0.00  0.00    +0.000 A 
ATOM     13  C   UNL     1     100.560 129.216  83.690  0.00  0.00    +0.000 A 
ATOM     14  C   UNL     1      99.202 129.147  83.382  0.00  0.00    +0.000 A 
ATOM     15  C   UNL     1      98.683 128.002  82.782  0.00  0.00    +0.000 A 
ATOM     16  C   UNL     1      99.522 126.926  82.485  0.00  0.00    +0.000 A 
ENDBRANCH  10  11
ENDBRANCH   9  10
ENDBRANCH   3   9
TORSDOF 3
ENDMDL
