MODEL 1
REMARK VINA RESULT:      -5.1      0.000      0.000
REMARK  Name = *****
REMARK  2 active torsions:
REMARK  status: ('A' for Active; 'I' for Inactive)
REMARK    1  A    between atoms: C_1  and  C_2
REMARK    2  A    between atoms: C_3  and  C_12
REMARK                            x       y       z     vdW  Elec       q    Type
REMARK                         _______ _______ _______ _____ _____    ______ ____
ROOT
ATOM      1  C   UNL     1     103.187 127.081  80.257  0.00  0.00    +0.000 C 
ATOM      2  C   UNL     1     103.331 125.971  81.266  0.00  0.00    +0.000 A 
ATOM      3  C   UNL     1     102.582 125.966  82.449  0.00  0.00    +0.000 A 
ATOM      4  N   UNL     1     102.747 124.997  83.375  0.00  0.00    +0.000 NA
ATOM      5  N   UNL     1     103.630 123.972  83.164  0.00  0.00    +0.000 NA
ATOM      6  C   UNL     1     104.336 123.899  82.031  0.00  0.00    +0.000 A 
ATOM      7  C   UNL     1     105.201 122.828  81.842  0.00  0.00    +0.000 A 
ATOM      8  C   UNL     1     105.959 122.691  80.680  0.00  0.00    +0.000 A 
ATOM      9  C   UNL     1     105.851 123.645  79.679  0.00  0.00    +0.000 A 
ATOM     10  C   UNL     1     104.990 124.730  79.852  0.00  0.00    +0.000 A 
ATOM     11  C   UNL     1     104.217 124.885  81.031  0.00  0.00    +0.000 A 
ENDROOT
BRANCH   3  12
ATOM     12  C   UNL     1     101.567 126.967  82.806  0.00  0.00    +0.000 A 
ATOM     13  C   UNL     1     101.918 128.161  83.459  0.00  0.00    +0.000 A 
ATOM     14  C   UNL     1     100.946 129.109  83.793  0.00  0.00    +0.000 A 
ATOM     15  C   UNL     1      99.610 128.881  83.470  0.00  0.00    +0.000 A 
ATOM     16  C   UNL     1      99.246 127.711  82.808  0.00  0.00    +0.000 A 
ATOM     17  C   UNL     1     100.217 126.763  82.475  0.00  0.00    +0.000 A 
ENDBRANCH   3  12
TORSDOF 1
ENDMDL
