MODEL 1
REMARK VINA RESULT:      -5.1      0.000      0.000
REMARK  Name = *****
REMARK  2 active torsions:
REMARK  status: ('A' for Active; 'I' for Inactive)
REMARK    1  A    between atoms: C_2  and  C_11
REMARK    2  A    between atoms: C_3  and  C_4
REMARK                            x       y       z     vdW  Elec       q    Type
REMARK                         _______ _______ _______ _____ _____    ______ ____
ROOT
ATOM      1  C   UNL     1     103.591 127.325  80.396  0.00  0.00    +0.000 C 
ATOM      2  C   UNL     1     103.237 126.822  81.771  0.00  0.00    +0.000 C 
ATOM      3  C   UNL     1     103.240 125.870  80.582  0.00  0.00    +0.000 C 
ENDROOT
BRANCH   3   4
ATOM      4  C   UNL     1     104.312 124.813  80.472  0.00  0.00    +0.000 A 
ATOM      5  C   UNL     1     104.305 123.677  81.302  0.00  0.00    +0.000 A 
ATOM      6  C   UNL     1     105.290 122.691  81.194  0.00  0.00    +0.000 A 
ATOM      7  C   UNL     1     106.292 122.829  80.244  0.00  0.00    +0.000 A 
ATOM      8  C   UNL     1     106.325 123.930  79.401  0.00  0.00    +0.000 A 
ATOM      9  C   UNL     1     105.337 124.912  79.513  0.00  0.00    +0.000 A 
ATOM     10  F   UNL     1     107.238 121.886  80.138  0.00  0.00    +0.000 F 
ENDBRANCH   3   4
BRANCH   2  11
ATOM     11  C   UNL     1     101.933 127.235  82.411  0.00  0.00    +0.000 A 
ATOM     12  C   UNL     1     101.832 128.407  83.183  0.00  0.00    +0.000 A 
ATOM     13  C   UNL     1     100.619 128.794  83.760  0.00  0.00    +0.000 A 
ATOM     14  C   UNL     1      99.488 128.015  83.562  0.00  0.00    +0.000 A 
ATOM     15  C   UNL     1      99.548 126.859  82.797  0.00  0.00    +0.000 A 
ATOM     16  C   UNL     1     100.762 126.475  82.225  0.00  0.00    +0.000 A 
ATOM     17  F   UNL     1      98.325 128.385  84.112  0.00  0.00    +0.000 F 
ENDBRANCH   2  11
TORSDOF 2
ENDMDL
