MODEL 1
REMARK VINA RESULT:      -5.0      0.000      0.000
REMARK  Name = *****
REMARK  1 active torsions:
REMARK  status: ('A' for Active; 'I' for Inactive)
REMARK    1  A    between atoms: C_10  and  C_12
REMARK                            x       y       z     vdW  Elec       q    Type
REMARK                         _______ _______ _______ _____ _____    ______ ____
ROOT
ATOM      1  C   UNL     1     105.292 123.775  80.184  0.00  0.00    +0.000 A 
ATOM      2  C   UNL     1     104.744 123.322  81.386  0.00  0.00    +0.000 A 
ATOM      3  C   UNL     1     103.860 124.116  82.127  0.00  0.00    +0.000 A 
ATOM      4  C   UNL     1     103.555 125.381  81.607  0.00  0.00    +0.000 A 
ATOM      5  C   UNL     1     104.090 125.851  80.415  0.00  0.00    +0.000 A 
ATOM      6  C   UNL     1     104.973 125.044  79.684  0.00  0.00    +0.000 A 
ATOM      7  N   UNL     1     103.619 127.108  80.158  0.00  0.00    +0.000 NA
ATOM      8  N   UNL     1     102.804 127.453  81.145  0.00  0.00    +0.000 NA
ATOM      9  N   UNL     1     102.750 126.422  82.030  0.00  0.00    +0.000 N 
ATOM     10  C   UNL     1     101.948 126.538  83.172  0.00  0.00    +0.000 C 
ATOM     11  O   UNL     1     101.903 125.606  83.972  0.00  0.00    +0.000 OA
ENDROOT
BRANCH  10  12
ATOM     12  C   UNL     1     101.150 127.739  83.450  0.00  0.00    +0.000 A 
ATOM     13  C   UNL     1     101.728 128.821  84.121  0.00  0.00    +0.000 A 
ATOM     14  C   UNL     1     100.966 129.961  84.385  0.00  0.00    +0.000 A 
ATOM     15  C   UNL     1      99.632 130.022  83.981  0.00  0.00    +0.000 A 
ATOM     16  C   UNL     1      99.055 128.941  83.312  0.00  0.00    +0.000 A 
ATOM     17  C   UNL     1      99.813 127.797  83.046  0.00  0.00    +0.000 A 
ATOM     18 CL   UNL     1      99.044 126.486  82.226  0.00  0.00    +0.000 Cl
ATOM     19 CL   UNL     1     103.370 128.800  84.653  0.00  0.00    +0.000 Cl
ENDBRANCH  10  12
TORSDOF 1
ENDMDL
