MODEL 1
REMARK VINA RESULT:      -4.4      0.000      0.000
REMARK  Name = *****
REMARK  3 active torsions:
REMARK  status: ('A' for Active; 'I' for Inactive)
REMARK    1  A    between atoms: C_2  and  C_3
REMARK    2  A    between atoms: C_4  and  C_8
REMARK    3  A    between atoms: C_9  and  C_10
REMARK                            x       y       z     vdW  Elec       q    Type
REMARK                         _______ _______ _______ _____ _____    ______ ____
ROOT
ATOM      1  C   UNL     1      97.607 117.644  79.936  0.00  0.00    +0.000 C 
ATOM      2  C   UNL     1      98.054 118.552  80.583  0.00  0.00    +0.000 C 
ENDROOT
BRANCH   2   3
ATOM      3  C   UNL     1      98.577 119.673  81.390  0.00  0.00    +0.000 C 
ATOM      4  C   UNL     1      98.935 119.211  82.809  0.00  0.00    +0.000 C 
ATOM      5  C   UNL     1      97.706 118.942  83.679  0.00  0.00    +0.000 C 
ATOM      6  C   UNL     1      96.761 120.139  83.702  0.00  0.00    +0.000 C 
ATOM      7  C   UNL     1      96.363 120.570  82.294  0.00  0.00    +0.000 C 
ATOM      8  C   UNL     1      97.586 120.844  81.420  0.00  0.00    +0.000 C 
ENDBRANCH   2   3
BRANCH   1  10
ATOM      9  C   UNL     1      96.522 115.464  79.691  0.00  0.00    +0.000 C 
ATOM     10  C   UNL     1      97.061 116.579  79.180  0.00  0.00    +0.000 C 
ATOM     11  C   UNL     1      97.007 116.566  77.685  0.00  0.00    +0.000 C 
ATOM     12  C   UNL     1      96.681 115.104  77.371  0.00  0.00    +0.000 C 
ATOM     13  C   UNL     1      96.028 114.535  78.630  0.00  0.00    +0.000 C 
BRANCH   9  15
ATOM     14  C   UNL     1      96.313 114.902  82.451  0.00  0.00    +0.000 C 
ATOM     15  C   UNL     1      96.409 115.162  81.176  0.00  0.00    +0.000 C 
ENDBRANCH   9  15
ENDBRANCH   1  10
TORSDOF 3
ENDMDL
