REMARK  Name = *****
REMARK  4 active torsions:
REMARK  status: ('A' for Active; 'I' for Inactive)
REMARK    1  A    between atoms: C_1  and  C_2
REMARK    2  A    between atoms: N_7  and  C_8
REMARK    3  A    between atoms: C_8  and  C_9
REMARK    4  A    between atoms: C_8  and  C_10
REMARK                            x       y       z     vdW  Elec       q    Type
REMARK                         _______ _______ _______ _____ _____    ______ ____
ROOT
ATOM      1  C   UNL     1       1.049  -0.029   0.288  0.00  0.00    +0.000 C 
ATOM      2  C   UNL     1       2.567  -0.031   0.078  0.00  0.00    +0.000 C 
ATOM      3  C   UNL     1       3.004   1.054  -0.923  0.00  0.00    +0.000 C 
ATOM      4  C   UNL     1       2.631   0.725  -2.372  0.00  0.00    +0.000 C 
ATOM      5  C   UNL     1       3.158  -0.642  -2.794  0.00  0.00    +0.000 C 
ATOM      6  C   UNL     1       2.679  -1.679  -1.800  0.00  0.00    +0.000 C 
ATOM      7  N   UNL     1       1.996  -2.739  -2.048  0.00  0.00    +0.000 NA
ATOM      8  C   UNL     1       3.067  -1.413  -0.356  0.00  0.00    +0.000 C 
ENDROOT
BRANCH   7   9
ATOM      9  C   UNL     1       1.536  -3.080  -3.396  0.00  0.00    +0.000 C 
ATOM     10  C   UNL     1       2.645  -3.838  -4.127  0.00  0.00    +0.000 C 
BRANCH   9  11
ATOM     11  C   UNL     1       0.276  -3.935  -3.353  0.00  0.00    +0.000 A 
ATOM     12  C   UNL     1      -0.691  -3.813  -4.364  0.00  0.00    +0.000 A 
ATOM     13  C   UNL     1      -1.840  -4.607  -4.351  0.00  0.00    +0.000 A 
ATOM     14  C   UNL     1      -2.035  -5.535  -3.331  0.00  0.00    +0.000 A 
ATOM     15  C   UNL     1      -1.082  -5.673  -2.325  0.00  0.00    +0.000 A 
ATOM     16  C   UNL     1       0.067  -4.880  -2.338  0.00  0.00    +0.000 A 
ENDBRANCH   9  11
ENDBRANCH   7   9
TORSDOF 2
