MODEL 1
REMARK VINA RESULT:      -4.6      0.000      0.000
REMARK  Name = *****
REMARK  4 active torsions:
REMARK  status: ('A' for Active; 'I' for Inactive)
REMARK    1  A    between atoms: C_3  and  C_16
REMARK    2  A    between atoms: C_6  and  C_7
REMARK    3  A    between atoms: C_8  and  C_9
REMARK    4  A    between atoms: C_11  and  C_14
REMARK                            x       y       z     vdW  Elec       q    Type
REMARK                         _______ _______ _______ _____ _____    ______ ____
ROOT
ATOM      1  C   UNL     1     100.340 126.697  82.412  0.00  0.00    +0.000 A 
ATOM      2  C   UNL     1      99.627 127.764  82.973  0.00  0.00    +0.000 A 
ATOM      3  C   UNL     1     100.303 128.828  83.586  0.00  0.00    +0.000 A 
ATOM      4  C   UNL     1     101.704 128.807  83.618  0.00  0.00    +0.000 A 
ATOM      5  C   UNL     1     102.413 127.741  83.056  0.00  0.00    +0.000 A 
ATOM      6  C   UNL     1     101.739 126.669  82.460  0.00  0.00    +0.000 A 
ENDROOT
BRANCH   3   7
ATOM      7  C   UNL     1      99.552 129.987  84.193  0.00  0.00    +0.000 C 
ATOM      8  F   UNL     1      99.130 130.904  83.277  0.00  0.00    +0.000 F 
ATOM      9  F   UNL     1      98.434 129.592  84.864  0.00  0.00    +0.000 F 
ATOM     10  F   UNL     1     100.303 130.680  85.094  0.00  0.00    +0.000 F 
ENDBRANCH   3   7
BRANCH   6  11
ATOM     11  C   UNL     1     102.526 125.585  81.856  0.00  0.00    +0.000 C 
ATOM     12  C   UNL     1     103.521 124.938  82.484  0.00  0.00    +0.000 C 
BRANCH  12  13
ATOM     13  C   UNL     1     104.253 123.904  81.837  0.00  0.00    +0.000 A 
ATOM     14  N   UNL     1     104.849 122.864  82.410  0.00  0.00    +0.000 NA
ATOM     15  C   UNL     1     105.434 122.153  81.383  0.00  0.00    +0.000 A 
ATOM     16  C   UNL     1     105.157 122.783  80.195  0.00  0.00    +0.000 A 
ATOM     17  O   UNL     1     104.416 123.888  80.463  0.00  0.00    +0.000 OA
BRANCH  15  18
ATOM     18  C   UNL     1     106.189 120.906  81.635  0.00  0.00    +0.000 C 
ATOM     19 CL   UNL     1     105.135 119.698  82.401  0.00  0.00    +0.000 Cl
ENDBRANCH  15  18
ENDBRANCH  12  13
ENDBRANCH   6  11
TORSDOF 4
ENDMDL
