MODEL 1
REMARK VINA RESULT:      -4.4      0.000      0.000
REMARK  Name = *****
REMARK  5 active torsions:
REMARK  status: ('A' for Active; 'I' for Inactive)
REMARK    1  A    between atoms: C_1  and  C_2
REMARK    2  A    between atoms: C_4  and  S_10
REMARK    3  A    between atoms: S_10  and  C_11
REMARK    4  A    between atoms: C_11  and  C_12
REMARK    5  A    between atoms: C_15  and  C_17
REMARK                            x       y       z     vdW  Elec       q    Type
REMARK                         _______ _______ _______ _____ _____    ______ ____
ROOT
ATOM      1  C   UNL     1      84.921  72.172  85.011  0.00  0.00    +0.000 C 
ATOM      2  C   UNL     1      85.669  71.778  86.254  0.00  0.00    +0.000 A 
ATOM      3  C   UNL     1      86.913  71.135  86.136  0.00  0.00    +0.000 A 
ATOM      4  C   UNL     1      87.642  70.737  87.269  0.00  0.00    +0.000 A 
ATOM      5  C   UNL     1      87.118  71.016  88.541  0.00  0.00    +0.000 A 
ATOM      6  C   UNL     1      85.881  71.650  88.671  0.00  0.00    +0.000 A 
ATOM      7  C   UNL     1      85.160  72.025  87.536  0.00  0.00    +0.000 A 
ATOM      8 CL   UNL     1      83.636  72.805  87.767  0.00  0.00    +0.000 Cl
ATOM      9 CL   UNL     1      87.962  70.624  90.001  0.00  0.00    +0.000 Cl
ENDROOT
BRANCH   4  10
ATOM     10  S   UNL     1      89.212  69.921  86.979  0.00  0.00    +0.000 S 
BRANCH  10  11
ATOM     11  C   UNL     1      88.946  69.333  85.267  0.00  0.00    +0.000 C 
BRANCH  11  12
ATOM     12  C   UNL     1      89.946  69.891  84.316  0.00  0.00    +0.000 A 
ATOM     13  N   UNL     1      90.341  69.181  83.250  0.00  0.00    +0.000 NA
ATOM     14  O   UNL     1      91.260  69.973  82.588  0.00  0.00    +0.000 OA
ATOM     15  C   UNL     1      91.417  71.144  83.259  0.00  0.00    +0.000 A 
ATOM     16  C   UNL     1      90.607  71.142  84.366  0.00  0.00    +0.000 A 
ATOM     17  C   UNL     1      92.371  72.112  82.688  0.00  0.00    +0.000 C 
ENDBRANCH  11  12
ENDBRANCH  10  11
ENDBRANCH   4  10
TORSDOF 3
ENDMDL
