MODEL 1
REMARK VINA RESULT:      -4.5      0.000      0.000
REMARK  Name = *****
REMARK  3 active torsions:
REMARK  status: ('A' for Active; 'I' for Inactive)
REMARK    1  A    between atoms: C_4  and  O_7
REMARK    2  A    between atoms: O_7  and  C_8
REMARK    3  A    between atoms: C_8  and  C_10
REMARK                            x       y       z     vdW  Elec       q    Type
REMARK                         _______ _______ _______ _____ _____    ______ ____
ROOT
ATOM      1  C   UNL     1     102.773 125.626  83.437  0.00  0.00    +0.000 C 
ATOM      2  O   UNL     1     102.389 125.168  84.502  0.00  0.00    +0.000 OA
ENDROOT
BRANCH   1   3
ATOM      3  C   UNL     1     103.541 124.826  82.441  0.00  0.00    +0.000 A 
ATOM      4  C   UNL     1     104.191 123.630  82.771  0.00  0.00    +0.000 A 
ATOM      5  C   UNL     1     104.893 122.931  81.789  0.00  0.00    +0.000 A 
ATOM      6  C   UNL     1     104.956 123.409  80.482  0.00  0.00    +0.000 A 
ATOM      7  C   UNL     1     104.312 124.598  80.147  0.00  0.00    +0.000 A 
ATOM      8  C   UNL     1     103.606 125.305  81.123  0.00  0.00    +0.000 A 
ATOM      9 CL   UNL     1     105.692 121.462  82.197  0.00  0.00    +0.000 Cl
ENDBRANCH   1   3
BRANCH   1  10
ATOM     10  O   UNL     1     102.587 126.910  82.959  0.00  0.00    +0.000 OA
BRANCH  10  14
ATOM     11  C   UNL     1      98.682 128.387  82.995  0.00  0.00    +0.000 A 
ATOM     12  C   UNL     1      99.703 129.145  83.574  0.00  0.00    +0.000 A 
ATOM     13  C   UNL     1     101.011 128.663  83.583  0.00  0.00    +0.000 A 
ATOM     14  C   UNL     1     101.281 127.412  83.029  0.00  0.00    +0.000 A 
ATOM     15  C   UNL     1     100.273 126.657  82.430  0.00  0.00    +0.000 A 
ATOM     16  C   UNL     1      98.967 127.146  82.422  0.00  0.00    +0.000 A 
ENDBRANCH  10  14
ENDBRANCH   1  10
TORSDOF 3
ENDMDL
