REMARK  Name = *****
REMARK  5 active torsions:
REMARK  status: ('A' for Active; 'I' for Inactive)
REMARK    1  A    between atoms: C_1  and  C_2
REMARK    2  A    between atoms: C_3  and  N_9
REMARK    3  A    between atoms: C_4  and  C_8
REMARK    4  A    between atoms: C_10  and  C_11
REMARK    5  A    between atoms: C_11  and  C_12
REMARK                            x       y       z     vdW  Elec       q    Type
REMARK                         _______ _______ _______ _____ _____    ______ ____
ROOT
ATOM      1  N   UNL     1       0.238   2.296   1.081  0.00  0.00    +0.000 NA
ATOM      2  C   UNL     1       0.861   3.191   0.382  0.00  0.00    +0.000 C 
ENDROOT
BRANCH   1   5
ATOM      3  C   UNL     1       2.483   0.539   1.599  0.00  0.00    +0.000 C 
ATOM      4  C   UNL     1       1.302   0.116   0.769  0.00  0.00    +0.000 A 
ATOM      5  C   UNL     1       0.227   0.999   0.533  0.00  0.00    +0.000 A 
ATOM      6  C   UNL     1      -0.879   0.567  -0.226  0.00  0.00    +0.000 A 
ATOM      7  C   UNL     1      -0.877  -0.720  -0.783  0.00  0.00    +0.000 A 
ATOM      8  C   UNL     1       0.201  -1.578  -0.576  0.00  0.00    +0.000 A 
ATOM      9  C   UNL     1       1.283  -1.164   0.197  0.00  0.00    +0.000 A 
ATOM     10  C   UNL     1      -2.054   1.476  -0.458  0.00  0.00    +0.000 C 
ENDBRANCH   1   5
BRANCH   2  11
ATOM     11  C   UNL     1       0.968   4.611   0.865  0.00  0.00    +0.000 C 
BRANCH  11  12
ATOM     12  C   UNL     1       2.394   4.965   1.202  0.00  0.00    +0.000 A 
ATOM     13  C   UNL     1       3.171   5.734   0.326  0.00  0.00    +0.000 A 
ATOM     14  C   UNL     1       4.498   6.036   0.640  0.00  0.00    +0.000 A 
ATOM     15  C   UNL     1       5.059   5.570   1.828  0.00  0.00    +0.000 A 
ATOM     16  C   UNL     1       4.296   4.800   2.703  0.00  0.00    +0.000 A 
ATOM     17  C   UNL     1       2.970   4.497   2.392  0.00  0.00    +0.000 A 
ENDBRANCH  11  12
ENDBRANCH   2  11
TORSDOF 3
