MODEL 1
REMARK VINA RESULT:      -4.8      0.000      0.000
REMARK  Name = *****
REMARK  1 active torsions:
REMARK  status: ('A' for Active; 'I' for Inactive)
REMARK    1  A    between atoms: C_5  and  C_13
REMARK                            x       y       z     vdW  Elec       q    Type
REMARK                         _______ _______ _______ _____ _____    ______ ____
ROOT
ATOM      1  C   UNL     1      95.401 115.081  77.504  0.00  0.00    +0.000 C 
ATOM      2  C   UNL     1      96.909 115.237  77.279  0.00  0.00    +0.000 C 
ATOM      3  O   UNL     1      97.643 115.234  78.510  0.00  0.00    +0.000 OA
ATOM      4  C   UNL     1      97.575 116.430  79.159  0.00  0.00    +0.000 C 
ATOM      5  C   UNL     1      96.646 116.842  80.037  0.00  0.00    +0.000 C 
ATOM      6  S   UNL     1      95.194 116.081  80.584  0.00  0.00    +0.000 S 
ATOM      7  C   UNL     1      95.164 114.410  79.954  0.00  0.00    +0.000 A 
ATOM      8  C   UNL     1      95.011 113.395  80.913  0.00  0.00    +0.000 A 
ATOM      9  C   UNL     1      94.860 112.060  80.534  0.00  0.00    +0.000 A 
ATOM     10  C   UNL     1      94.846 111.719  79.187  0.00  0.00    +0.000 A 
ATOM     11  C   UNL     1      94.988 112.712  78.220  0.00  0.00    +0.000 A 
ATOM     12  C   UNL     1      95.140 114.062  78.588  0.00  0.00    +0.000 A 
ENDROOT
BRANCH   5  13
ATOM     13  C   UNL     1      96.857 118.182  80.622  0.00  0.00    +0.000 A 
ATOM     14  C   UNL     1      95.762 118.981  80.985  0.00  0.00    +0.000 A 
ATOM     15  C   UNL     1      95.966 120.255  81.516  0.00  0.00    +0.000 A 
ATOM     16  C   UNL     1      97.262 120.742  81.687  0.00  0.00    +0.000 A 
ATOM     17  C   UNL     1      98.357 119.956  81.326  0.00  0.00    +0.000 A 
ATOM     18  C   UNL     1      98.155 118.681  80.794  0.00  0.00    +0.000 A 
ENDBRANCH   5  13
TORSDOF 1
ENDMDL
