MODEL 1
REMARK VINA RESULT:      -4.3      0.000      0.000
REMARK  Name = *****
REMARK  2 active torsions:
REMARK  status: ('A' for Active; 'I' for Inactive)
REMARK    1  A    between atoms: C_4  and  S_8
REMARK    2  A    between atoms: S_8  and  C_9
REMARK                            x       y       z     vdW  Elec       q    Type
REMARK                         _______ _______ _______ _____ _____    ______ ____
ROOT
ATOM      1  S   UNL     1      87.549  65.037  86.860  0.00  0.00    +0.000 S 
ENDROOT
BRANCH   1   5
ATOM      2  C   UNL     1      87.196  62.953  89.496  0.00  0.00    +0.000 C 
ATOM      3  C   UNL     1      86.750  64.036  90.480  0.00  0.00    +0.000 C 
ATOM      4  C   UNL     1      86.716  65.277  89.561  0.00  0.00    +0.000 C 
ATOM      5  C   UNL     1      87.965  65.068  88.647  0.00  0.00    +0.000 C 
ATOM      6  C   UNL     1      88.491  63.686  89.124  0.00  0.00    +0.000 C 
ATOM      7  C   UNL     1      89.043  63.887  90.522  0.00  0.00    +0.000 C 
ATOM      8  C   UNL     1      87.996  64.109  91.332  0.00  0.00    +0.000 C 
ENDBRANCH   1   5
BRANCH   1   9
ATOM      9  C   UNL     1      89.177  64.898  86.141  0.00  0.00    +0.000 A 
ATOM     10  C   UNL     1      89.658  63.689  85.632  0.00  0.00    +0.000 A 
ATOM     11  C   UNL     1      90.934  63.630  85.071  0.00  0.00    +0.000 A 
ATOM     12  C   UNL     1      91.734  64.769  85.003  0.00  0.00    +0.000 A 
ATOM     13  C   UNL     1      91.253  65.980  85.494  0.00  0.00    +0.000 A 
ATOM     14  C   UNL     1      89.975  66.045  86.057  0.00  0.00    +0.000 A 
ATOM     15 CL   UNL     1      91.525  62.136  84.454  0.00  0.00    +0.000 Cl
ENDBRANCH   1   9
TORSDOF 2
ENDMDL
