MODEL 1
REMARK VINA RESULT:      -4.3      0.000      0.000
REMARK  Name = *****
REMARK  5 active torsions:
REMARK  status: ('A' for Active; 'I' for Inactive)
REMARK    1  A    between atoms: C_1  and  C_2
REMARK    2  A    between atoms: C_4  and  C_9
REMARK    3  A    between atoms: C_5  and  C_8
REMARK    4  A    between atoms: C_9  and  N_10
REMARK    5  A    between atoms: N_10  and  C_11
REMARK                            x       y       z     vdW  Elec       q    Type
REMARK                         _______ _______ _______ _____ _____    ______ ____
ROOT
ATOM      1  C   UNL     1      83.846  72.725  86.046  0.00  0.00    +0.000 C 
ATOM      2  C   UNL     1      85.020  72.073  86.711  0.00  0.00    +0.000 A 
ATOM      3  C   UNL     1      86.098  71.607  85.949  0.00  0.00    +0.000 A 
ATOM      4  C   UNL     1      87.217  71.023  86.565  0.00  0.00    +0.000 A 
ATOM      5  C   UNL     1      87.275  70.909  87.966  0.00  0.00    +0.000 A 
ATOM      6  C   UNL     1      86.196  71.395  88.723  0.00  0.00    +0.000 A 
ATOM      7  C   UNL     1      85.085  71.974  88.103  0.00  0.00    +0.000 A 
ATOM      8  C   UNL     1      88.444  70.295  88.683  0.00  0.00    +0.000 C 
ENDROOT
BRANCH   4   9
ATOM      9  C   UNL     1      88.327  70.539  85.709  0.00  0.00    +0.000 C 
BRANCH   9  10
ATOM     10  N   UNL     1      88.127  69.731  84.722  0.00  0.00    +0.000 NA
BRANCH  10  11
ATOM     11  C   UNL     1      88.538  68.341  84.967  0.00  0.00    +0.000 C 
ATOM     12  C   UNL     1      87.373  67.623  85.658  0.00  0.00    +0.000 C 
ATOM     13  C   UNL     1      87.754  66.205  86.074  0.00  0.00    +0.000 C 
ATOM     14  C   UNL     1      89.007  66.193  86.945  0.00  0.00    +0.000 C 
ATOM     15  C   UNL     1      90.170  66.915  86.271  0.00  0.00    +0.000 C 
ATOM     16  C   UNL     1      89.787  68.332  85.854  0.00  0.00    +0.000 C 
ENDBRANCH  10  11
ENDBRANCH   9  10
ENDBRANCH   4   9
TORSDOF 3
ENDMDL
