MODEL 1
REMARK VINA RESULT:      -4.5      0.000      0.000
REMARK  Name = *****
REMARK  2 active torsions:
REMARK  status: ('A' for Active; 'I' for Inactive)
REMARK    1  A    between atoms: C_6  and  C_7
REMARK    2  A    between atoms: N_8  and  C_9
REMARK                            x       y       z     vdW  Elec       q    Type
REMARK                         _______ _______ _______ _____ _____    ______ ____
ROOT
ATOM      1  C   UNL     1     102.761 125.951  82.536  0.00  0.00    +0.000 C 
ATOM      2  N   UNL     1     101.487 125.968  82.298  0.00  0.00    +0.000 NA
ENDROOT
BRANCH   1   8
ATOM      3  C   UNL     1     104.029 123.914  83.139  0.00  0.00    +0.000 A 
ATOM      4  C   UNL     1     104.834 122.825  82.792  0.00  0.00    +0.000 A 
ATOM      5  C   UNL     1     105.215 122.638  81.462  0.00  0.00    +0.000 A 
ATOM      6  C   UNL     1     104.798 123.530  80.475  0.00  0.00    +0.000 A 
ATOM      7  C   UNL     1     103.994 124.619  80.817  0.00  0.00    +0.000 A 
ATOM      8  C   UNL     1     103.610 124.809  82.150  0.00  0.00    +0.000 A 
ATOM      9 CL   UNL     1     106.206 121.298  81.040  0.00  0.00    +0.000 Cl
ENDBRANCH   1   8
BRANCH   2  10
ATOM     10  C   UNL     1     100.799 127.113  82.718  0.00  0.00    +0.000 A 
ATOM     11  C   UNL     1      99.415 127.216  82.532  0.00  0.00    +0.000 A 
ATOM     12  C   UNL     1      98.729 128.352  82.966  0.00  0.00    +0.000 A 
ATOM     13  C   UNL     1      99.430 129.375  83.594  0.00  0.00    +0.000 A 
ATOM     14  C   UNL     1     100.801 129.282  83.800  0.00  0.00    +0.000 A 
ATOM     15  C   UNL     1     101.485 128.145  83.365  0.00  0.00    +0.000 A 
ATOM     16  F   UNL     1      98.772 130.464  84.011  0.00  0.00    +0.000 F 
ENDBRANCH   2  10
TORSDOF 2
ENDMDL
