MODEL 1
REMARK VINA RESULT:      -4.4      0.000      0.000
REMARK  Name = *****
REMARK  1 active torsions:
REMARK  status: ('A' for Active; 'I' for Inactive)
REMARK    1  A    between atoms: C_8  and  C_10
REMARK                            x       y       z     vdW  Elec       q    Type
REMARK                         _______ _______ _______ _____ _____    ______ ____
ROOT
ATOM      1  C   UNL     1      98.499 127.914  83.005  0.00  0.00    +0.000 A 
ATOM      2  C   UNL     1      99.118 129.007  83.598  0.00  0.00    +0.000 A 
ATOM      3  C   UNL     1     100.511 129.085  83.662  0.00  0.00    +0.000 A 
ATOM      4  C   UNL     1     101.279 128.039  83.116  0.00  0.00    +0.000 A 
ATOM      5  C   UNL     1     100.680 126.931  82.514  0.00  0.00    +0.000 A 
ATOM      6  C   UNL     1      99.266 126.878  82.464  0.00  0.00    +0.000 A 
ATOM      7  C   UNL     1     101.667 126.007  82.034  0.00  0.00    +0.000 A 
ATOM      8  C   UNL     1     102.965 126.415  82.274  0.00  0.00    +0.000 A 
ATOM      9  S   UNL     1     102.996 127.921  83.080  0.00  0.00    +0.000 S 
ENDROOT
BRANCH   8  10
ATOM     10  C   UNL     1     104.253 125.717  81.919  0.00  0.00    +0.000 C 
ATOM     11  C   UNL     1     104.763 126.020  80.526  0.00  0.00    +0.000 C 
ATOM     12  C   UNL     1     104.910 124.882  79.828  0.00  0.00    +0.000 C 
ATOM     13  C   UNL     1     104.535 123.764  80.654  0.00  0.00    +0.000 C 
ATOM     14  C   UNL     1     104.156 124.208  81.861  0.00  0.00    +0.000 C 
ENDBRANCH   8  10
TORSDOF 1
ENDMDL
