REMARK  Name = *****
REMARK  3 active torsions:
REMARK  status: ('A' for Active; 'I' for Inactive)
REMARK    1  A    between atoms: C_2  and  C_3
REMARK    2  A    between atoms: C_2  and  S_10
REMARK    3  A    between atoms: S_10  and  C_11
REMARK                            x       y       z     vdW  Elec       q    Type
REMARK                         _______ _______ _______ _____ _____    ______ ____
ROOT
ATOM      1  C   UNL     1       0.830  -0.165  -0.002  0.00  0.00    +0.000 C 
ATOM      2  C   UNL     1       2.157  -0.007  -0.102  0.00  0.00    +0.000 C 
ENDROOT
BRANCH   2   3
ATOM      3  C   UNL     1       3.016  -0.023   1.093  0.00  0.00    +0.000 A 
ATOM      4  C   UNL     1       3.925  -1.071   1.309  0.00  0.00    +0.000 A 
ATOM      5  C   UNL     1       4.738  -1.080   2.444  0.00  0.00    +0.000 A 
ATOM      6  C   UNL     1       4.640  -0.043   3.364  0.00  0.00    +0.000 A 
ATOM      7  C   UNL     1       3.744   1.002   3.173  0.00  0.00    +0.000 A 
ATOM      8  C   UNL     1       2.929   1.011   2.040  0.00  0.00    +0.000 A 
ATOM      9  F   UNL     1       5.422  -0.051   4.452  0.00  0.00    +0.000 F 
ENDBRANCH   2   3
BRANCH   2  10
ATOM     10  S   UNL     1       2.929   0.166  -1.646  0.00  0.00    +0.000 S 
BRANCH  10  11
ATOM     11  C   UNL     1       3.490   1.854  -1.495  0.00  0.00    +0.000 A 
ATOM     12  C   UNL     1       4.844   2.112  -1.252  0.00  0.00    +0.000 A 
ATOM     13  C   UNL     1       5.303   3.427  -1.131  0.00  0.00    +0.000 A 
ATOM     14  C   UNL     1       4.415   4.494  -1.259  0.00  0.00    +0.000 A 
ATOM     15  C   UNL     1       3.066   4.248  -1.510  0.00  0.00    +0.000 A 
ATOM     16  C   UNL     1       2.613   2.936  -1.628  0.00  0.00    +0.000 A 
ATOM     17  F   UNL     1       1.308   2.734  -1.870  0.00  0.00    +0.000 F 
ENDBRANCH  10  11
ENDBRANCH   2  10
TORSDOF 3
