MODEL 1
REMARK VINA RESULT:      -5.0      0.000      0.000
REMARK  Name = *****
REMARK  2 active torsions:
REMARK  status: ('A' for Active; 'I' for Inactive)
REMARK    1  A    between atoms: C_4  and  C_7
REMARK    2  A    between atoms: C_8  and  C_9
REMARK                            x       y       z     vdW  Elec       q    Type
REMARK                         _______ _______ _______ _____ _____    ______ ____
ROOT
ATOM      1  C   UNL     1     101.988 125.971  82.245  0.00  0.00    +0.000 C 
ATOM      2  C   UNL     1     102.871 126.147  81.247  0.00  0.00    +0.000 C 
ENDROOT
BRANCH   2   3
ATOM      3  C   UNL     1     103.847 125.129  80.830  0.00  0.00    +0.000 A 
ATOM      4  N   UNL     1     103.895 123.980  81.539  0.00  0.00    +0.000 NA
ATOM      5  C   UNL     1     104.792 123.052  81.155  0.00  0.00    +0.000 A 
ATOM      6  C   UNL     1     105.659 123.191  80.094  0.00  0.00    +0.000 A 
ATOM      7  C   UNL     1     105.587 124.379  79.384  0.00  0.00    +0.000 A 
ATOM      8  C   UNL     1     104.678 125.367  79.744  0.00  0.00    +0.000 A 
ATOM      9 CL   UNL     1     106.635 124.634  78.043  0.00  0.00    +0.000 Cl
ATOM     10 CL   UNL     1     104.792 121.625  82.107  0.00  0.00    +0.000 Cl
ENDBRANCH   2   3
BRANCH   1  14
ATOM     11  C   UNL     1      99.117 128.919  83.413  0.00  0.00    +0.000 A 
ATOM     12  C   UNL     1     100.466 129.128  83.692  0.00  0.00    +0.000 A 
ATOM     13  C   UNL     1     101.415 128.171  83.322  0.00  0.00    +0.000 A 
ATOM     14  C   UNL     1     101.023 126.990  82.678  0.00  0.00    +0.000 A 
ATOM     15  C   UNL     1      99.665 126.800  82.388  0.00  0.00    +0.000 A 
ATOM     16  C   UNL     1      98.716 127.756  82.758  0.00  0.00    +0.000 A 
ENDBRANCH   1  14
TORSDOF 2
ENDMDL
