REMARK  Name = *****
REMARK  3 active torsions:
REMARK  status: ('A' for Active; 'I' for Inactive)
REMARK    1  A    between atoms: C_5  and  O_7
REMARK    2  A    between atoms: O_7  and  C_8
REMARK    3  A    between atoms: C_8  and  C_9
REMARK                            x       y       z     vdW  Elec       q    Type
REMARK                         _______ _______ _______ _____ _____    ______ ____
ROOT
ATOM      1  C   UNL     1       2.283  -2.395  -0.044  0.00  0.00    +0.000 C 
ENDROOT
BRANCH   1   2
ATOM      2  C   UNL     1       2.752  -3.832   0.040  0.00  0.00    +0.000 A 
ATOM      3  C   UNL     1       2.119  -4.834  -0.714  0.00  0.00    +0.000 A 
ATOM      4  C   UNL     1       2.561  -6.160  -0.658  0.00  0.00    +0.000 A 
ATOM      5  C   UNL     1       3.651  -6.495   0.150  0.00  0.00    +0.000 A 
ATOM      6  C   UNL     1       4.293  -5.503   0.896  0.00  0.00    +0.000 A 
ATOM      7  C   UNL     1       3.849  -4.179   0.839  0.00  0.00    +0.000 A 
ATOM      8 CL   UNL     1       4.257  -8.109   0.269  0.00  0.00    +0.000 Cl
ATOM      9 CL   UNL     1       1.720  -7.329  -1.614  0.00  0.00    +0.000 Cl
ENDBRANCH   1   2
BRANCH   1  10
ATOM     10  O   UNL     1       0.871  -2.366   0.161  0.00  0.00    +0.000 OA
BRANCH  10  15
ATOM     11  C   UNL     1      -1.912  -0.042   0.152  0.00  0.00    +0.000 A 
ATOM     12  C   UNL     1      -1.302   1.189  -0.082  0.00  0.00    +0.000 A 
ATOM     13  C   UNL     1       0.081   1.254  -0.240  0.00  0.00    +0.000 A 
ATOM     14  C   UNL     1       0.848   0.090  -0.167  0.00  0.00    +0.000 A 
ATOM     15  C   UNL     1       0.250  -1.151   0.064  0.00  0.00    +0.000 A 
ATOM     16  C   UNL     1      -1.139  -1.204   0.225  0.00  0.00    +0.000 A 
ATOM     17  F   UNL     1       2.174   0.211  -0.324  0.00  0.00    +0.000 F 
ENDBRANCH  10  15
ENDBRANCH   1  10
TORSDOF 3
