REMARK  Name = *****
REMARK  5 active torsions:
REMARK  status: ('A' for Active; 'I' for Inactive)
REMARK    1  A    between atoms: C_1  and  C_2
REMARK    2  A    between atoms: C_4  and  N_8
REMARK    3  A    between atoms: N_8  and  C_9
REMARK    4  A    between atoms: N_8  and  C_10
REMARK    5  A    between atoms: C_10  and  C_11
REMARK                            x       y       z     vdW  Elec       q    Type
REMARK                         _______ _______ _______ _____ _____    ______ ____
ROOT
ATOM      1  N   UNL     1      -1.828   2.356  -0.441  0.00  0.00    +0.000 N 
ATOM      2  C   UNL     1      -3.269   2.482  -0.256  0.00  0.00    +0.000 C 
ENDROOT
BRANCH   1   6
ATOM      3  C   UNL     1      -2.298  -2.527  -1.242  0.00  0.00    +0.000 C 
ATOM      4  C   UNL     1      -1.440  -1.297  -1.180  0.00  0.00    +0.000 A 
ATOM      5  C   UNL     1      -2.003  -0.057  -0.824  0.00  0.00    +0.000 A 
ATOM      6  C   UNL     1      -1.255   1.135  -0.784  0.00  0.00    +0.000 A 
ATOM      7  C   UNL     1       0.098   1.022  -1.146  0.00  0.00    +0.000 A 
ATOM      8  C   UNL     1       0.674  -0.200  -1.515  0.00  0.00    +0.000 A 
ATOM      9  C   UNL     1      -0.094  -1.357  -1.535  0.00  0.00    +0.000 A 
ENDBRANCH   1   6
BRANCH   1  10
ATOM     10  C   UNL     1      -1.019   3.516  -0.047  0.00  0.00    +0.000 C 
BRANCH  10  11
ATOM     11  C   UNL     1      -0.862   4.550  -1.147  0.00  0.00    +0.000 A 
ATOM     12  C   UNL     1      -1.078   4.262  -2.503  0.00  0.00    +0.000 A 
ATOM     13  C   UNL     1      -0.894   5.241  -3.483  0.00  0.00    +0.000 A 
ATOM     14  C   UNL     1      -0.483   6.521  -3.122  0.00  0.00    +0.000 A 
ATOM     15  C   UNL     1      -0.253   6.824  -1.782  0.00  0.00    +0.000 A 
ATOM     16  C   UNL     1      -0.438   5.845  -0.803  0.00  0.00    +0.000 A 
ENDBRANCH  10  11
ENDBRANCH   1  10
TORSDOF 3
