REMARK  Name = *****
REMARK  3 active torsions:
REMARK  status: ('A' for Active; 'I' for Inactive)
REMARK    1  A    between atoms: C_7  and  O_8
REMARK    2  A    between atoms: O_8  and  C_9
REMARK    3  A    between atoms: C_9  and  C_11
REMARK                            x       y       z     vdW  Elec       q    Type
REMARK                         _______ _______ _______ _____ _____    ______ ____
ROOT
ATOM      1  O   UNL     1       2.485   0.261  -0.000  0.00  0.00    +0.000 OA
ENDROOT
BRANCH   1   8
ATOM      2  C   UNL     1      -1.718  -0.091  -0.505  0.00  0.00    +0.000 C 
ATOM      3  C   UNL     1      -1.126   1.276  -0.131  0.00  0.00    +0.000 C 
ATOM      4  C   UNL     1       0.214   0.903   0.523  0.00  0.00    +0.000 C 
ATOM      5  C   UNL     1      -0.153  -0.386   1.263  0.00  0.00    +0.000 C 
ATOM      6  C   UNL     1      -0.652  -1.079  -0.002  0.00  0.00    +0.000 C 
ATOM      7  C   UNL     1       0.584  -0.993  -0.916  0.00  0.00    +0.000 C 
ATOM      8  C   UNL     1       1.175   0.389  -0.571  0.00  0.00    +0.000 C 
ENDBRANCH   1   8
BRANCH   1   9
ATOM      9  C   UNL     1       3.486   0.045  -0.891  0.00  0.00    +0.000 C 
ATOM     10  O   UNL     1       3.359  -0.042  -2.102  0.00  0.00    +0.000 OA
BRANCH   9  11
ATOM     11  C   UNL     1       4.792  -0.083  -0.188  0.00  0.00    +0.000 A 
ATOM     12  C   UNL     1       4.912   0.033   1.204  0.00  0.00    +0.000 A 
ATOM     13  C   UNL     1       6.163  -0.099   1.813  0.00  0.00    +0.000 A 
ATOM     14  C   UNL     1       7.296  -0.345   1.038  0.00  0.00    +0.000 A 
ATOM     15  C   UNL     1       7.184  -0.461  -0.347  0.00  0.00    +0.000 A 
ATOM     16  C   UNL     1       5.936  -0.331  -0.959  0.00  0.00    +0.000 A 
ENDBRANCH   9  11
ENDBRANCH   1   9
TORSDOF 3
