MODEL 1
REMARK VINA RESULT:      -4.4      0.000      0.000
REMARK  Name = *****
REMARK  5 active torsions:
REMARK  status: ('A' for Active; 'I' for Inactive)
REMARK    1  A    between atoms: C_4  and  C_7
REMARK    2  A    between atoms: C_7  and  C_8
REMARK    3  A    between atoms: C_8  and  C_9
REMARK    4  A    between atoms: C_9  and  C_10
REMARK    5  A    between atoms: C_10  and  C_11
REMARK                            x       y       z     vdW  Elec       q    Type
REMARK                         _______ _______ _______ _____ _____    ______ ____
ROOT
ATOM      1  C   UNL     1     104.453 126.434  81.637  0.00  0.00    +0.000 C 
ATOM      2  F   UNL     1     105.471 126.714  80.768  0.00  0.00    +0.000 F 
ATOM      3  F   UNL     1     105.039 126.296  82.857  0.00  0.00    +0.000 F 
ENDROOT
BRANCH   1   4
ATOM      4  C   UNL     1     103.800 125.126  81.211  0.00  0.00    +0.000 C 
ATOM      5  F   UNL     1     103.193 124.542  82.288  0.00  0.00    +0.000 F 
ATOM      6  F   UNL     1     102.797 125.388  80.319  0.00  0.00    +0.000 F 
BRANCH   4   7
ATOM      7  C   UNL     1     104.800 124.171  80.591  0.00  0.00    +0.000 C 
ATOM      8  F   UNL     1     105.956 124.115  81.297  0.00  0.00    +0.000 F 
ATOM      9  F   UNL     1     104.317 122.904  80.548  0.00  0.00    +0.000 F 
ATOM     10  F   UNL     1     105.128 124.511  79.323  0.00  0.00    +0.000 F 
ENDBRANCH   4   7
ENDBRANCH   1   4
BRANCH   1  11
ATOM     11  C   UNL     1     103.528 127.649  81.672  0.00  0.00    +0.000 C 
BRANCH  11  12
ATOM     12  C   UNL     1     102.834 127.776  83.034  0.00  0.00    +0.000 C 
BRANCH  12  16
ATOM     13  C   UNL     1      98.507 127.836  82.939  0.00  0.00    +0.000 A 
ATOM     14  C   UNL     1      99.188 128.908  83.510  0.00  0.00    +0.000 A 
ATOM     15  C   UNL     1     100.586 128.915  83.552  0.00  0.00    +0.000 A 
ATOM     16  C   UNL     1     101.322 127.849  83.020  0.00  0.00    +0.000 A 
ATOM     17  C   UNL     1     100.619 126.773  82.449  0.00  0.00    +0.000 A 
ATOM     18  C   UNL     1      99.223 126.768  82.408  0.00  0.00    +0.000 A 
ENDBRANCH  12  16
ENDBRANCH  11  12
ENDBRANCH   1  11
TORSDOF 5
ENDMDL
