MODEL 1
REMARK VINA RESULT:      -4.7      0.000      0.000
REMARK  Name = *****
REMARK  5 active torsions:
REMARK  status: ('A' for Active; 'I' for Inactive)
REMARK    1  A    between atoms: C_1  and  C_2
REMARK    2  A    between atoms: C_4  and  C_8
REMARK    3  A    between atoms: C_8  and  O_9
REMARK    4  A    between atoms: O_9  and  C_10
REMARK    5  A    between atoms: C_15  and  C_16
REMARK                            x       y       z     vdW  Elec       q    Type
REMARK                         _______ _______ _______ _____ _____    ______ ____
ROOT
ATOM      1  O   UNL     1      87.535  70.767  84.597  0.00  0.00    +0.000 OA
ENDROOT
BRANCH   1   2
ATOM      2  C   UNL     1      88.675  71.411  84.207  0.00  0.00    +0.000 A 
ATOM      3  C   UNL     1      88.720  72.744  83.779  0.00  0.00    +0.000 A 
ATOM      4  C   UNL     1      89.918  73.313  83.336  0.00  0.00    +0.000 A 
ATOM      5  C   UNL     1      91.087  72.557  83.307  0.00  0.00    +0.000 A 
ATOM      6  C   UNL     1      91.060  71.231  83.732  0.00  0.00    +0.000 A 
ATOM      7  C   UNL     1      89.862  70.660  84.196  0.00  0.00    +0.000 A 
BRANCH   7   8
ATOM      8  C   UNL     1      89.918  69.245  84.657  0.00  0.00    +0.000 C 
ATOM      9  O   UNL     1      90.135  68.395  83.791  0.00  0.00    +0.000 OA
ATOM     10 CL   UNL     1      89.796  68.884  86.364  0.00  0.00    +0.000 Cl
ENDBRANCH   7   8
ENDBRANCH   1   2
BRANCH   1  11
ATOM     11  C   UNL     1      86.344  71.534  84.757  0.00  0.00    +0.000 C 
BRANCH  11  15
ATOM     12  C   UNL     1      87.612  70.541  89.536  0.00  0.00    +0.000 C 
ATOM     13  C   UNL     1      86.663  71.143  88.543  0.00  0.00    +0.000 A 
ATOM     14  C   UNL     1      86.928  71.067  87.170  0.00  0.00    +0.000 A 
ATOM     15  C   UNL     1      86.031  71.602  86.231  0.00  0.00    +0.000 A 
ATOM     16  C   UNL     1      84.863  72.225  86.686  0.00  0.00    +0.000 A 
ATOM     17  C   UNL     1      84.583  72.289  88.051  0.00  0.00    +0.000 A 
ATOM     18  C   UNL     1      85.474  71.744  88.975  0.00  0.00    +0.000 A 
ENDBRANCH  11  15
ENDBRANCH   1  11
TORSDOF 4
ENDMDL
