MODEL 1
REMARK VINA RESULT:      -3.7      0.000      0.000
REMARK  Name = *****
REMARK  3 active torsions:
REMARK  status: ('A' for Active; 'I' for Inactive)
REMARK    1  A    between atoms: C_4  and  C_6
REMARK    2  A    between atoms: C_7  and  C_8
REMARK    3  A    between atoms: C_7  and  C_10
REMARK                            x       y       z     vdW  Elec       q    Type
REMARK                         _______ _______ _______ _____ _____    ______ ____
ROOT
ATOM      1  C   UNL     1     101.509 128.128  83.347  0.00  0.00    +0.000 C 
ATOM      2  C   UNL     1     100.166 128.267  83.371  0.00  0.00    +0.000 C 
ENDROOT
BRANCH   1   6
ATOM      3  C   UNL     1     103.410 125.846  81.060  0.00  0.00    +0.000 A 
ATOM      4  C   UNL     1     103.386 124.977  82.125  0.00  0.00    +0.000 A 
ATOM      5  S   UNL     1     102.588 125.645  83.476  0.00  0.00    +0.000 S 
ATOM      6  C   UNL     1     102.225 127.114  82.641  0.00  0.00    +0.000 A 
ATOM      7  C   UNL     1     102.754 127.077  81.361  0.00  0.00    +0.000 A 
ENDBRANCH   1   6
BRANCH   2   8
ATOM      8  C   UNL     1      99.620 129.343  84.156  0.00  0.00    +0.000 A 
ATOM      9  C   UNL     1      99.782 130.714  84.008  0.00  0.00    +0.000 A 
ATOM     10  C   UNL     1      99.072 131.475  84.983  0.00  0.00    +0.000 A 
ATOM     11  C   UNL     1      98.383 130.670  85.857  0.00  0.00    +0.000 A 
ATOM     12  S   UNL     1      98.590 129.013  85.502  0.00  0.00    +0.000 S 
ENDBRANCH   2   8
BRANCH   2  13
ATOM     13  C   UNL     1      99.277 127.373  82.691  0.00  0.00    +0.000 C 
ATOM     14  N   UNL     1      98.558 126.650  82.137  0.00  0.00    +0.000 NA
ENDBRANCH   2  13
TORSDOF 3
ENDMDL
