MODEL 1
REMARK VINA RESULT:      -4.8      0.000      0.000
REMARK  Name = *****
REMARK  2 active torsions:
REMARK  status: ('A' for Active; 'I' for Inactive)
REMARK    1  A    between atoms: C_6  and  N_7
REMARK    2  A    between atoms: C_8  and  C_9
REMARK                            x       y       z     vdW  Elec       q    Type
REMARK                         _______ _______ _______ _____ _____    ______ ____
ROOT
ATOM      1  N   UNL     1     101.518 125.904  82.379  0.00  0.00    +0.000 NA
ATOM      2  C   UNL     1     102.807 125.922  82.517  0.00  0.00    +0.000 C 
ENDROOT
BRANCH   2   3
ATOM      3  C   UNL     1     103.639 124.771  82.129  0.00  0.00    +0.000 A 
ATOM      4  C   UNL     1     103.977 124.604  80.786  0.00  0.00    +0.000 A 
ATOM      5  C   UNL     1     104.761 123.530  80.380  0.00  0.00    +0.000 A 
ATOM      6  C   UNL     1     105.204 122.621  81.334  0.00  0.00    +0.000 A 
ATOM      7  C   UNL     1     104.877 122.771  82.679  0.00  0.00    +0.000 A 
ATOM      8  C   UNL     1     104.089 123.851  83.083  0.00  0.00    +0.000 A 
ATOM      9  F   UNL     1     105.960 121.583  80.952  0.00  0.00    +0.000 F 
ATOM     10  F   UNL     1     103.552 125.477  79.862  0.00  0.00    +0.000 F 
ENDBRANCH   2   3
BRANCH   1  16
ATOM     11  C   UNL     1      99.470 127.201  82.554  0.00  0.00    +0.000 A 
ATOM     12  C   UNL     1      98.803 128.362  82.946  0.00  0.00    +0.000 A 
ATOM     13  C   UNL     1      99.517 129.385  83.561  0.00  0.00    +0.000 A 
ATOM     14  C   UNL     1     100.884 129.270  83.785  0.00  0.00    +0.000 A 
ATOM     15  C   UNL     1     101.548 128.106  83.393  0.00  0.00    +0.000 A 
ATOM     16  C   UNL     1     100.842 127.062  82.787  0.00  0.00    +0.000 A 
ATOM     17  F   UNL     1      98.879 130.501  83.937  0.00  0.00    +0.000 F 
ENDBRANCH   1  16
TORSDOF 2
ENDMDL
