MODEL 1
REMARK VINA RESULT:      -4.5      0.000      0.000
REMARK  Name = *****
REMARK  3 active torsions:
REMARK  status: ('A' for Active; 'I' for Inactive)
REMARK    1  A    between atoms: C_1  and  C_2
REMARK    2  A    between atoms: C_5  and  C_8
REMARK    3  A    between atoms: C_9  and  C_10
REMARK                            x       y       z     vdW  Elec       q    Type
REMARK                         _______ _______ _______ _____ _____    ______ ____
ROOT
ATOM      1  C   UNL     1     106.967 122.294  80.584  0.00  0.00    +0.000 C 
ATOM      2  C   UNL     1     105.821 123.184  80.965  0.00  0.00    +0.000 A 
ATOM      3  C   UNL     1     105.307 123.163  82.267  0.00  0.00    +0.000 A 
ATOM      4  C   UNL     1     104.218 123.969  82.611  0.00  0.00    +0.000 A 
ATOM      5  C   UNL     1     103.628 124.795  81.653  0.00  0.00    +0.000 A 
ATOM      6  C   UNL     1     104.125 124.810  80.349  0.00  0.00    +0.000 A 
ATOM      7  C   UNL     1     105.213 124.004  80.006  0.00  0.00    +0.000 A 
ENDROOT
BRANCH   5   8
ATOM      8  C   UNL     1     102.513 125.618  82.007  0.00  0.00    +0.000 C 
ATOM      9  C   UNL     1     101.577 126.310  82.303  0.00  0.00    +0.000 C 
BRANCH   9  10
ATOM     10  C   UNL     1     100.474 127.120  82.656  0.00  0.00    +0.000 C 
ATOM     11  C   UNL     1      99.189 126.825  82.397  0.00  0.00    +0.000 C 
ATOM     12  C   UNL     1      98.346 127.882  82.903  0.00  0.00    +0.000 C 
ATOM     13  C   UNL     1      99.107 128.826  83.473  0.00  0.00    +0.000 C 
ATOM     14  C   UNL     1     100.557 128.437  83.376  0.00  0.00    +0.000 C 
ENDBRANCH   9  10
ENDBRANCH   5   8
TORSDOF 2
ENDMDL
