MODEL 1
REMARK VINA RESULT:      -4.2      0.000      0.000
REMARK  Name = *****
REMARK  3 active torsions:
REMARK  status: ('A' for Active; 'I' for Inactive)
REMARK    1  A    between atoms: C_1  and  C_2
REMARK    2  A    between atoms: C_4  and  S_8
REMARK    3  A    between atoms: S_8  and  C_9
REMARK                            x       y       z     vdW  Elec       q    Type
REMARK                         _______ _______ _______ _____ _____    ______ ____
ROOT
ATOM      1  S   UNL     1     103.134 127.036  84.204  0.00  0.00    +0.000 S 
ENDROOT
BRANCH   1   5
ATOM      2  C   UNL     1      99.300 130.654  83.799  0.00  0.00    +0.000 C 
ATOM      3  C   UNL     1      99.797 129.274  83.488  0.00  0.00    +0.000 A 
ATOM      4  C   UNL     1     101.070 128.866  83.913  0.00  0.00    +0.000 A 
ATOM      5  C   UNL     1     101.536 127.576  83.642  0.00  0.00    +0.000 A 
ATOM      6  C   UNL     1     100.694 126.666  82.995  0.00  0.00    +0.000 A 
ATOM      7  C   UNL     1      99.419 127.056  82.583  0.00  0.00    +0.000 A 
ATOM      8  C   UNL     1      98.973 128.354  82.829  0.00  0.00    +0.000 A 
ENDBRANCH   1   5
BRANCH   1   9
ATOM      9  C   UNL     1     104.170 127.060  82.694  0.00  0.00    +0.000 C 
ATOM     10  C   UNL     1     103.575 127.767  81.442  0.00  0.00    +0.000 C 
ATOM     11  C   UNL     1     104.052 126.851  80.289  0.00  0.00    +0.000 C 
ATOM     12  C   UNL     1     105.390 126.326  80.826  0.00  0.00    +0.000 C 
ATOM     13  C   UNL     1     104.762 125.749  82.110  0.00  0.00    +0.000 C 
ATOM     14  C   UNL     1     103.703 124.899  81.445  0.00  0.00    +0.000 C 
ATOM     15  C   UNL     1     103.266 125.566  80.366  0.00  0.00    +0.000 C 
ENDBRANCH   1   9
TORSDOF 2
ENDMDL
