MODEL 1
REMARK VINA RESULT:      -4.6      0.000      0.000
REMARK  Name = *****
REMARK  6 active torsions:
REMARK  status: ('A' for Active; 'I' for Inactive)
REMARK    1  A    between atoms: C_1  and  C_2
REMARK    2  A    between atoms: C_5  and  S_8
REMARK    3  A    between atoms: S_8  and  C_9
REMARK    4  A    between atoms: C_9  and  C_10
REMARK    5  A    between atoms: C_12  and  O_17
REMARK    6  A    between atoms: O_17  and  C_18
REMARK                            x       y       z     vdW  Elec       q    Type
REMARK                         _______ _______ _______ _____ _____    ______ ____
ROOT
ATOM      1  C   UNL     1      87.905  69.355  87.191  0.00  0.00    +0.000 C 
ENDROOT
BRANCH   1   2
ATOM      2  C   UNL     1      89.436  69.398  87.007  0.00  0.00    +0.000 C 
ATOM      3  C   UNL     1      90.011  68.174  86.265  0.00  0.00    +0.000 C 
ATOM      4  C   UNL     1      89.608  68.110  84.781  0.00  0.00    +0.000 C 
ATOM      5  C   UNL     1      89.967  69.423  84.062  0.00  0.00    +0.000 C 
ATOM      6  C   UNL     1      89.458  70.632  84.809  0.00  0.00    +0.000 C 
ATOM      7  C   UNL     1      88.702  71.577  84.229  0.00  0.00    +0.000 C 
ATOM      8  C   UNL     1      89.850  70.685  86.264  0.00  0.00    +0.000 C 
BRANCH   4   9
ATOM      9  O   UNL     1      90.313  67.000  84.209  0.00  0.00    +0.000 OA
ATOM     10  C   UNL     1      90.748  66.050  85.171  0.00  0.00    +0.000 C 
ENDBRANCH   4   9
ENDBRANCH   1   2
BRANCH   1  11
ATOM     11  S   UNL     1      87.360  70.321  88.646  0.00  0.00    +0.000 S 
BRANCH  11  16
ATOM     12  C   UNL     1      82.808  73.460  86.071  0.00  0.00    +0.000 C 
ATOM     13  C   UNL     1      83.940  72.718  86.719  0.00  0.00    +0.000 A 
ATOM     14  C   UNL     1      83.975  72.551  88.107  0.00  0.00    +0.000 A 
ATOM     15  C   UNL     1      85.010  71.829  88.709  0.00  0.00    +0.000 A 
ATOM     16  C   UNL     1      86.024  71.262  87.931  0.00  0.00    +0.000 A 
ATOM     17  C   UNL     1      85.973  71.403  86.541  0.00  0.00    +0.000 A 
ATOM     18  C   UNL     1      84.938  72.125  85.938  0.00  0.00    +0.000 A 
ENDBRANCH  11  16
ENDBRANCH   1  11
TORSDOF 4
ENDMDL
