MODEL 1
REMARK VINA RESULT:      -3.8      0.000      0.000
REMARK  Name = *****
REMARK  5 active torsions:
REMARK  status: ('A' for Active; 'I' for Inactive)
REMARK    1  A    between atoms: C_4  and  C_6
REMARK    2  A    between atoms: C_6  and  C_7
REMARK    3  A    between atoms: C_7  and  O_9
REMARK    4  A    between atoms: O_9  and  C_10
REMARK    5  A    between atoms: C_10  and  C_11
REMARK                            x       y       z     vdW  Elec       q    Type
REMARK                         _______ _______ _______ _____ _____    ______ ____
ROOT
ATOM      1  C   UNL     1      94.631 118.265  80.296  0.00  0.00    +0.000 C 
ATOM      2  O   UNL     1      93.479 118.020  79.970  0.00  0.00    +0.000 OA
ENDROOT
BRANCH   1   3
ATOM      3  C   UNL     1      95.758 117.263  80.217  0.00  0.00    +0.000 C 
BRANCH   3   7
ATOM      4  C   UNL     1      97.613 115.351  78.338  0.00  0.00    +0.000 C 
ATOM      5  C   UNL     1      96.818 115.839  77.142  0.00  0.00    +0.000 C 
ATOM      6  C   UNL     1      95.961 116.982  77.684  0.00  0.00    +0.000 C 
ATOM      7  C   UNL     1      96.643 117.465  78.980  0.00  0.00    +0.000 C 
ATOM      8  C   UNL     1      97.932 116.638  79.079  0.00  0.00    +0.000 C 
ENDBRANCH   3   7
ENDBRANCH   1   3
BRANCH   1   9
ATOM      9  O   UNL     1      95.081 119.453  80.785  0.00  0.00    +0.000 OA
BRANCH   9  10
ATOM     10  C   UNL     1      95.660 119.420  82.102  0.00  0.00    +0.000 C 
BRANCH  10  11
ATOM     11  C   UNL     1      96.625 120.604  82.295  0.00  0.00    +0.000 C 
ATOM     12  C   UNL     1      97.756 120.577  81.253  0.00  0.00    +0.000 C 
ATOM     13  C   UNL     1      98.689 119.373  81.428  0.00  0.00    +0.000 C 
ATOM     14  C   UNL     1      99.010 119.082  82.864  0.00  0.00    +0.000 C 
ATOM     15  C   UNL     1      98.366 119.654  83.892  0.00  0.00    +0.000 C 
ATOM     16  C   UNL     1      97.231 120.623  83.714  0.00  0.00    +0.000 C 
ENDBRANCH  10  11
ENDBRANCH   9  10
ENDBRANCH   1   9
TORSDOF 5
ENDMDL
