MODEL 1
REMARK VINA RESULT:      -4.4      0.000      0.000
REMARK  Name = *****
REMARK  2 active torsions:
REMARK  status: ('A' for Active; 'I' for Inactive)
REMARK    1  A    between atoms: C_1  and  C_2
REMARK    2  A    between atoms: C_5  and  C_7
REMARK                            x       y       z     vdW  Elec       q    Type
REMARK                         _______ _______ _______ _____ _____    ______ ____
ROOT
ATOM      1  C   UNL     1     102.129 126.010  82.469  0.00  0.00    +0.000 A 
ATOM      2  N   UNL     1     102.651 125.203  83.384  0.00  0.00    +0.000 NA
ATOM      3  C   UNL     1     103.580 124.466  82.695  0.00  0.00    +0.000 A 
ATOM      4  C   UNL     1     104.442 123.444  83.111  0.00  0.00    +0.000 A 
ATOM      5  C   UNL     1     105.289 122.863  82.155  0.00  0.00    +0.000 A 
ATOM      6  C   UNL     1     105.278 123.293  80.821  0.00  0.00    +0.000 A 
ATOM      7  C   UNL     1     104.423 124.315  80.392  0.00  0.00    +0.000 A 
ATOM      8  C   UNL     1     103.600 124.859  81.369  0.00  0.00    +0.000 A 
ATOM      9  O   UNL     1     102.678 125.849  81.215  0.00  0.00    +0.000 OA
ENDROOT
BRANCH   1  14
ATOM     10  C   UNL     1      99.332 130.233  84.012  0.00  0.00    +0.000 C 
ATOM     11  C   UNL     1      99.747 128.910  83.469  0.00  0.00    +0.000 A 
ATOM     12  C   UNL     1      98.967 127.940  82.876  0.00  0.00    +0.000 A 
ATOM     13  C   UNL     1      99.735 126.809  82.469  0.00  0.00    +0.000 A 
ATOM     14  C   UNL     1     101.079 126.948  82.761  0.00  0.00    +0.000 A 
ATOM     15  S   UNL     1     101.391 128.440  83.538  0.00  0.00    +0.000 S 
ENDBRANCH   1  14
TORSDOF 1
ENDMDL
