MODEL 1
REMARK VINA RESULT:      -4.6      0.000      0.000
REMARK  Name = *****
REMARK  5 active torsions:
REMARK  status: ('A' for Active; 'I' for Inactive)
REMARK    1  A    between atoms: C_1  and  C_2
REMARK    2  A    between atoms: C_2  and  C_3
REMARK    3  A    between atoms: C_2  and  O_8
REMARK    4  A    between atoms: O_8  and  C_9
REMARK    5  A    between atoms: C_9  and  C_11
REMARK                            x       y       z     vdW  Elec       q    Type
REMARK                         _______ _______ _______ _____ _____    ______ ____
ROOT
ATOM      1  C   UNL     1      99.336 127.366  82.937  0.00  0.00    +0.000 C 
ATOM      2  O   UNL     1      98.601 127.062  82.014  0.00  0.00    +0.000 OA
ENDROOT
BRANCH   1   3
ATOM      3  C   UNL     1      99.091 128.503  83.831  0.00  0.00    +0.000 A 
ATOM      4  C   UNL     1      99.453 129.776  83.372  0.00  0.00    +0.000 A 
ATOM      5  C   UNL     1      99.243 130.892  84.183  0.00  0.00    +0.000 A 
ATOM      6  C   UNL     1      98.665 130.737  85.442  0.00  0.00    +0.000 A 
ATOM      7  C   UNL     1      98.288 129.469  85.892  0.00  0.00    +0.000 A 
ATOM      8  C   UNL     1      98.496 128.345  85.085  0.00  0.00    +0.000 A 
ATOM      9 CL   UNL     1      97.959 126.815  85.674  0.00  0.00    +0.000 Cl
ENDBRANCH   1   3
BRANCH   1  10
ATOM     10  O   UNL     1     100.543 126.836  83.247  0.00  0.00    +0.000 OA
BRANCH  10  12
ATOM     11  C   UNL     1     102.607 128.048  82.849  0.00  0.00    +0.000 C 
ATOM     12  C   UNL     1     101.594 127.050  82.283  0.00  0.00    +0.000 C 
BRANCH  12  13
ATOM     13  C   UNL     1     102.270 125.707  81.956  0.00  0.00    +0.000 C 
ATOM     14  C   UNL     1     103.222 125.217  83.048  0.00  0.00    +0.000 C 
ATOM     15  C   UNL     1     104.000 124.098  82.368  0.00  0.00    +0.000 C 
ATOM     16  C   UNL     1     104.072 124.484  80.892  0.00  0.00    +0.000 C 
ATOM     17  C   UNL     1     103.185 125.717  80.727  0.00  0.00    +0.000 C 
ENDBRANCH  12  13
ENDBRANCH  10  12
ENDBRANCH   1  10
TORSDOF 4
ENDMDL
