MODEL 1
REMARK VINA RESULT:      -4.8      0.000      0.000
REMARK  Name = *****
REMARK  2 active torsions:
REMARK  status: ('A' for Active; 'I' for Inactive)
REMARK    1  A    between atoms: C_3  and  C_7
REMARK    2  A    between atoms: C_8  and  C_9
REMARK                            x       y       z     vdW  Elec       q    Type
REMARK                         _______ _______ _______ _____ _____    ______ ____
ROOT
ATOM      1  C   UNL     1     102.876 126.174  81.403  0.00  0.00    +0.000 C 
ATOM      2  C   UNL     1     101.885 125.966  82.286  0.00  0.00    +0.000 C 
ENDROOT
BRANCH   1   5
ATOM      3  C   UNL     1     104.901 122.823  81.093  0.00  0.00    +0.000 C 
ATOM      4  C   UNL     1     104.082 123.931  81.787  0.00  0.00    +0.000 C 
ATOM      5  C   UNL     1     103.863 125.191  80.970  0.00  0.00    +0.000 C 
ATOM      6  C   UNL     1     104.580 125.410  79.852  0.00  0.00    +0.000 C 
ATOM      7  C   UNL     1     105.594 124.495  79.391  0.00  0.00    +0.000 C 
ATOM      8  C   UNL     1     105.752 123.288  79.950  0.00  0.00    +0.000 C 
ENDBRANCH   1   5
BRANCH   2   9
ATOM      9  C   UNL     1     100.924 127.002  82.692  0.00  0.00    +0.000 A 
ATOM     10  C   UNL     1     101.325 128.184  83.329  0.00  0.00    +0.000 A 
ATOM     11  C   UNL     1     100.386 129.161  83.672  0.00  0.00    +0.000 A 
ATOM     12  C   UNL     1      99.039 128.970  83.371  0.00  0.00    +0.000 A 
ATOM     13  C   UNL     1      98.630 127.806  82.723  0.00  0.00    +0.000 A 
ATOM     14  C   UNL     1      99.569 126.830  82.379  0.00  0.00    +0.000 A 
ENDBRANCH   2   9
TORSDOF 2
ENDMDL
