MODEL 1
REMARK VINA RESULT:      -4.8      0.000      0.000
REMARK  Name = *****
REMARK  6 active torsions:
REMARK  status: ('A' for Active; 'I' for Inactive)
REMARK    1  A    between atoms: C_1  and  N_2
REMARK    2  A    between atoms: N_2  and  C_3
REMARK    3  A    between atoms: N_2  and  C_4
REMARK    4  A    between atoms: C_7  and  C_10
REMARK    5  A    between atoms: C_11  and  C_12
REMARK    6  A    between atoms: C_17  and  N_18
REMARK                            x       y       z     vdW  Elec       q    Type
REMARK                         _______ _______ _______ _____ _____    ______ ____
ROOT
ATOM      1  C   UNL     1     102.385 126.740  82.758  0.00  0.00    +0.000 C 
ATOM      2  C   UNL     1     101.768 127.695  83.141  0.00  0.00    +0.000 C 
ENDROOT
BRANCH   1   6
ATOM      3  C   UNL     1     104.595 123.335  81.390  0.00  0.00    +0.000 A 
ATOM      4  C   UNL     1     104.281 123.528  82.747  0.00  0.00    +0.000 A 
ATOM      5  C   UNL     1     103.556 124.640  83.202  0.00  0.00    +0.000 A 
ATOM      6  C   UNL     1     103.127 125.607  82.300  0.00  0.00    +0.000 A 
ATOM      7  C   UNL     1     103.430 125.460  80.952  0.00  0.00    +0.000 A 
ATOM      8  C   UNL     1     104.155 124.342  80.512  0.00  0.00    +0.000 A 
BRANCH   3  10
ATOM      9  C   UNL     1     106.690 122.432  80.432  0.00  0.00    +0.000 C 
ATOM     10  N   UNL     1     105.336 122.238  80.947  0.00  0.00    +0.000 N 
ATOM     11  C   UNL     1     105.038 120.904  81.467  0.00  0.00    +0.000 C 
ENDBRANCH   3  10
ENDBRANCH   1   6
BRANCH   2  12
ATOM     12  C   UNL     1     101.052 128.842  83.610  0.00  0.00    +0.000 A 
ATOM     13  C   UNL     1     101.729 129.852  84.294  0.00  0.00    +0.000 A 
ATOM     14  C   UNL     1     101.030 130.971  84.754  0.00  0.00    +0.000 A 
ATOM     15  C   UNL     1      99.656 131.091  84.535  0.00  0.00    +0.000 A 
ATOM     16  C   UNL     1      98.968 130.088  83.853  0.00  0.00    +0.000 A 
ATOM     17  C   UNL     1      99.679 128.971  83.397  0.00  0.00    +0.000 A 
BRANCH  17  18
ATOM     18  N   UNL     1      99.004 127.968  82.716  0.00  0.00    +0.000 NA
ATOM     19  N   UNL     1      98.449 127.191  82.192  0.00  0.00    +0.000 NA
ENDBRANCH  17  18
ENDBRANCH   2  12
TORSDOF 4
ENDMDL
