MODEL 1
REMARK VINA RESULT:      -4.6      0.000      0.000
REMARK  Name = *****
REMARK  4 active torsions:
REMARK  status: ('A' for Active; 'I' for Inactive)
REMARK    1  A    between atoms: C_1  and  C_2
REMARK    2  A    between atoms: C_5  and  C_8
REMARK    3  A    between atoms: C_8  and  O_10
REMARK    4  A    between atoms: O_10  and  C_11
REMARK                            x       y       z     vdW  Elec       q    Type
REMARK                         _______ _______ _______ _____ _____    ______ ____
ROOT
ATOM      1  C   UNL     1     102.691 125.328  82.722  0.00  0.00    +0.000 C 
ATOM      2  O   UNL     1     102.673 125.080  83.919  0.00  0.00    +0.000 OA
ENDROOT
BRANCH   1   7
ATOM      3  C   UNL     1     104.974 129.110  80.454  0.00  0.00    +0.000 C 
ATOM      4  C   UNL     1     104.946 127.593  80.622  0.00  0.00    +0.000 C 
ATOM      5  C   UNL     1     105.247 127.203  82.074  0.00  0.00    +0.000 C 
ATOM      6  C   UNL     1     105.168 125.691  82.291  0.00  0.00    +0.000 C 
ATOM      7  C   UNL     1     103.864 125.063  81.782  0.00  0.00    +0.000 C 
ATOM      8  C   UNL     1     103.543 125.506  80.352  0.00  0.00    +0.000 C 
ATOM      9  C   UNL     1     103.595 127.022  80.177  0.00  0.00    +0.000 C 
ENDBRANCH   1   7
BRANCH   1  10
ATOM     10  O   UNL     1     101.646 125.881  81.982  0.00  0.00    +0.000 OA
BRANCH  10  11
ATOM     11  C   UNL     1     101.000 126.955  82.601  0.00  0.00    +0.000 A 
ATOM     12  C   UNL     1      99.608 127.050  82.588  0.00  0.00    +0.000 A 
ATOM     13  C   UNL     1      98.997 128.162  83.170  0.00  0.00    +0.000 A 
ATOM     14  C   UNL     1      99.781 129.167  83.737  0.00  0.00    +0.000 A 
ATOM     15  C   UNL     1     101.175 129.074  83.727  0.00  0.00    +0.000 A 
ATOM     16  C   UNL     1     101.791 127.964  83.150  0.00  0.00    +0.000 A 
ATOM     17 CL   UNL     1      99.024 130.539  84.450  0.00  0.00    +0.000 Cl
ENDBRANCH  10  11
ENDBRANCH   1  10
TORSDOF 3
ENDMDL
