MODEL 1
REMARK VINA RESULT:      -4.4      0.000      0.000
REMARK  Name = *****
REMARK  4 active torsions:
REMARK  status: ('A' for Active; 'I' for Inactive)
REMARK    1  A    between atoms: C_2  and  C_3
REMARK    2  A    between atoms: C_3  and  C_4
REMARK    3  A    between atoms: C_3  and  C_11
REMARK    4  A    between atoms: C_4  and  C_5
REMARK                            x       y       z     vdW  Elec       q    Type
REMARK                         _______ _______ _______ _____ _____    ______ ____
ROOT
ATOM      1  C   UNL     1     103.164 126.241  81.738  0.00  0.00    +0.000 C 
ENDROOT
BRANCH   1   2
ATOM      2  C   UNL     1     103.878 124.907  81.579  0.00  0.00    +0.000 A 
ATOM      3  C   UNL     1     104.338 124.299  80.424  0.00  0.00    +0.000 A 
ATOM      4  C   UNL     1     104.950 123.039  80.676  0.00  0.00    +0.000 A 
ATOM      5  C   UNL     1     104.938 122.719  82.014  0.00  0.00    +0.000 A 
ATOM      6  S   UNL     1     104.193 123.933  82.958  0.00  0.00    +0.000 S 
ENDBRANCH   1   2
BRANCH   1   8
ATOM      7  C   UNL     1     104.138 128.174  80.426  0.00  0.00    +0.000 C 
ATOM      8  C   UNL     1     103.304 127.129  80.512  0.00  0.00    +0.000 C 
ENDBRANCH   1   8
BRANCH   1   9
ATOM      9  C   UNL     1     101.675 125.984  82.094  0.00  0.00    +0.000 C 
BRANCH   9  10
ATOM     10  C   UNL     1     100.927 127.169  82.665  0.00  0.00    +0.000 A 
ATOM     11  C   UNL     1      99.535 127.258  82.518  0.00  0.00    +0.000 A 
ATOM     12  C   UNL     1      98.830 128.337  83.058  0.00  0.00    +0.000 A 
ATOM     13  C   UNL     1      99.508 129.337  83.751  0.00  0.00    +0.000 A 
ATOM     14  C   UNL     1     100.889 129.255  83.912  0.00  0.00    +0.000 A 
ATOM     15  C   UNL     1     101.595 128.173  83.379  0.00  0.00    +0.000 A 
ENDBRANCH   9  10
ENDBRANCH   1   9
TORSDOF 4
ENDMDL
