MODEL 1
REMARK VINA RESULT:      -4.6      0.000      0.000
REMARK  Name = *****
REMARK  6 active torsions:
REMARK  status: ('A' for Active; 'I' for Inactive)
REMARK    1  A    between atoms: C_1  and  C_2
REMARK    2  A    between atoms: C_4  and  C_9
REMARK    3  A    between atoms: C_5  and  C_8
REMARK    4  A    between atoms: C_9  and  C_11
REMARK    5  A    between atoms: C_11  and  C_12
REMARK    6  A    between atoms: C_12  and  C_13
REMARK                            x       y       z     vdW  Elec       q    Type
REMARK                         _______ _______ _______ _____ _____    ______ ____
ROOT
ATOM      1  C   UNL     1      89.593  69.997  86.006  0.00  0.00    +0.000 C 
ATOM      2  O   UNL     1      90.241  70.766  85.302  0.00  0.00    +0.000 OA
ENDROOT
BRANCH   1   6
ATOM      3  C   UNL     1      87.842  71.004  90.593  0.00  0.00    +0.000 C 
ATOM      4  C   UNL     1      87.657  71.020  89.105  0.00  0.00    +0.000 A 
ATOM      5  C   UNL     1      88.667  70.544  88.258  0.00  0.00    +0.000 A 
ATOM      6  C   UNL     1      88.487  70.520  86.864  0.00  0.00    +0.000 A 
ATOM      7  C   UNL     1      87.276  70.969  86.302  0.00  0.00    +0.000 A 
ATOM      8  C   UNL     1      86.262  71.419  87.162  0.00  0.00    +0.000 A 
ATOM      9  C   UNL     1      86.449  71.444  88.545  0.00  0.00    +0.000 A 
ATOM     10  C   UNL     1      87.019  70.964  84.820  0.00  0.00    +0.000 C 
ENDBRANCH   1   6
BRANCH   1  11
ATOM     11  C   UNL     1      89.854  68.503  86.026  0.00  0.00    +0.000 C 
BRANCH  11  12
ATOM     12  C   UNL     1      88.590  67.717  85.676  0.00  0.00    +0.000 C 
BRANCH  12  13
ATOM     13  C   UNL     1      88.135  66.863  86.834  0.00  0.00    +0.000 A 
ATOM     14  C   UNL     1      87.057  67.272  87.634  0.00  0.00    +0.000 A 
ATOM     15  C   UNL     1      86.649  66.493  88.717  0.00  0.00    +0.000 A 
ATOM     16  C   UNL     1      87.320  65.310  89.002  0.00  0.00    +0.000 A 
ATOM     17  C   UNL     1      88.392  64.891  88.224  0.00  0.00    +0.000 A 
ATOM     18  C   UNL     1      88.802  65.668  87.140  0.00  0.00    +0.000 A 
ATOM     19  F   UNL     1      86.929  64.564  90.043  0.00  0.00    +0.000 F 
ENDBRANCH  12  13
ENDBRANCH  11  12
ENDBRANCH   1  11
TORSDOF 4
ENDMDL
