MODEL 1
REMARK VINA RESULT:      -4.4      0.000      0.000
REMARK  Name = *****
REMARK  3 active torsions:
REMARK  status: ('A' for Active; 'I' for Inactive)
REMARK    1  A    between atoms: C_4  and  N_7
REMARK    2  A    between atoms: N_7  and  S_8
REMARK    3  A    between atoms: S_8  and  C_10
REMARK                            x       y       z     vdW  Elec       q    Type
REMARK                         _______ _______ _______ _____ _____    ______ ____
ROOT
ATOM      1  S   UNL     1      88.934  70.355  86.553  0.00  0.00    +0.000 S 
ATOM      2  O   UNL     1      90.113  70.766  85.725  0.00  0.00    +0.000 OA
ENDROOT
BRANCH   1   3
ATOM      3  C   UNL     1      88.993  68.552  86.668  0.00  0.00    +0.000 A 
ATOM      4  C   UNL     1      90.055  67.858  86.077  0.00  0.00    +0.000 A 
ATOM      5  C   UNL     1      90.100  66.467  86.160  0.00  0.00    +0.000 A 
ATOM      6  C   UNL     1      89.101  65.761  86.828  0.00  0.00    +0.000 A 
ATOM      7  C   UNL     1      88.044  66.451  87.421  0.00  0.00    +0.000 A 
ATOM      8  C   UNL     1      87.991  67.843  87.342  0.00  0.00    +0.000 A 
ATOM      9 CL   UNL     1      91.404  65.615  85.427  0.00  0.00    +0.000 Cl
ENDBRANCH   1   3
BRANCH   1  10
ATOM     10  N   UNL     1      89.258  70.568  88.178  0.00  0.00    +0.000 N 
ATOM     11  H   UNL     1      90.125  70.260  88.527  0.00  0.00    +0.000 HD
BRANCH  10  15
ATOM     12  C   UNL     1      86.401  72.242  90.822  0.00  0.00    +0.000 A 
ATOM     13  C   UNL     1      87.733  72.165  91.218  0.00  0.00    +0.000 A 
ATOM     14  C   UNL     1      88.694  71.623  90.357  0.00  0.00    +0.000 A 
ATOM     15  C   UNL     1      88.349  71.168  89.078  0.00  0.00    +0.000 A 
ATOM     16  C   UNL     1      86.993  71.224  88.713  0.00  0.00    +0.000 A 
ATOM     17  C   UNL     1      86.029  71.765  89.569  0.00  0.00    +0.000 A 
ENDBRANCH  10  15
ENDBRANCH   1  10
TORSDOF 3
ENDMDL
