MODEL 1
REMARK VINA RESULT:      -4.8      0.000      0.000
REMARK  Name = *****
REMARK  2 active torsions:
REMARK  status: ('A' for Active; 'I' for Inactive)
REMARK    1  A    between atoms: C_1  and  C_2
REMARK    2  A    between atoms: C_11  and  C_13
REMARK                            x       y       z     vdW  Elec       q    Type
REMARK                         _______ _______ _______ _____ _____    ______ ____
ROOT
ATOM      1  C   UNL     1     101.810 131.556  85.276  0.00  0.00    +0.000 C 
ATOM      2  C   UNL     1     101.159 130.408  84.558  0.00  0.00    +0.000 A 
ATOM      3  C   UNL     1     101.949 129.371  84.036  0.00  0.00    +0.000 A 
ATOM      4  C   UNL     1     101.322 128.287  83.390  0.00  0.00    +0.000 A 
ATOM      5  C   UNL     1      99.929 128.224  83.281  0.00  0.00    +0.000 A 
ATOM      6  C   UNL     1      99.146 129.262  83.824  0.00  0.00    +0.000 A 
ATOM      7  C   UNL     1      99.769 130.340  84.461  0.00  0.00    +0.000 A 
ATOM      8  C   UNL     1      99.608 127.032  82.591  0.00  0.00    +0.000 A 
ATOM      9  C   UNL     1     100.788 126.397  82.292  0.00  0.00    +0.000 A 
ATOM     10  N   UNL     1     101.851 127.137  82.791  0.00  0.00    +0.000 N 
ATOM     11  C   UNL     1     103.221 126.789  82.672  0.00  0.00    +0.000 C 
ATOM     12  O   UNL     1     104.070 127.633  82.950  0.00  0.00    +0.000 OA
ENDROOT
BRANCH  11  13
ATOM     13  C   UNL     1     103.708 125.466  82.211  0.00  0.00    +0.000 A 
ATOM     14  C   UNL     1     104.032 125.301  80.861  0.00  0.00    +0.000 A 
ATOM     15  C   UNL     1     104.510 124.072  80.406  0.00  0.00    +0.000 A 
ATOM     16  C   UNL     1     104.677 123.016  81.301  0.00  0.00    +0.000 A 
ATOM     17  C   UNL     1     104.379 123.186  82.653  0.00  0.00    +0.000 A 
ATOM     18  C   UNL     1     103.900 124.413  83.114  0.00  0.00    +0.000 A 
ENDBRANCH  11  13
TORSDOF 1
ENDMDL
