MODEL 1
REMARK VINA RESULT:      -4.1      0.000      0.000
REMARK  Name = *****
REMARK  2 active torsions:
REMARK  status: ('A' for Active; 'I' for Inactive)
REMARK    1  A    between atoms: N_5  and  N_8
REMARK    2  A    between atoms: C_9  and  C_10
REMARK                            x       y       z     vdW  Elec       q    Type
REMARK                         _______ _______ _______ _____ _____    ______ ____
ROOT
ATOM      1  N   UNL     1      89.501  70.612  86.055  0.00  0.00    +0.000 NA
ATOM      2  C   UNL     1      89.570  69.617  86.891  0.00  0.00    +0.000 C 
ENDROOT
BRANCH   2   3
ATOM      3  C   UNL     1      89.354  68.170  86.669  0.00  0.00    +0.000 A 
ATOM      4  C   UNL     1      90.350  67.339  86.150  0.00  0.00    +0.000 A 
ATOM      5  C   UNL     1      90.104  65.973  85.981  0.00  0.00    +0.000 A 
ATOM      6  C   UNL     1      88.865  65.435  86.348  0.00  0.00    +0.000 A 
ATOM      7  C   UNL     1      87.878  66.265  86.891  0.00  0.00    +0.000 A 
ATOM      8  C   UNL     1      88.125  67.630  87.058  0.00  0.00    +0.000 A 
ATOM      9 CL   UNL     1      88.492  63.758  86.168  0.00  0.00    +0.000 Cl
ATOM     10 CL   UNL     1      91.374  65.003  85.322  0.00  0.00    +0.000 Cl
ENDBRANCH   2   3
BRANCH   1  15
ATOM     11  C   UNL     1      89.236  73.203  83.761  0.00  0.00    +0.000 C 
ATOM     12  C   UNL     1      90.557  72.732  83.160  0.00  0.00    +0.000 C 
ATOM     13  C   UNL     1      91.115  71.437  83.742  0.00  0.00    +0.000 C 
ATOM     14  C   UNL     1      90.145  70.252  83.780  0.00  0.00    +0.000 C 
ATOM     15  N   UNL     1      89.083  70.356  84.790  0.00  0.00    +0.000 N 
ATOM     16  C   UNL     1      87.892  71.080  84.317  0.00  0.00    +0.000 C 
ATOM     17  C   UNL     1      88.078  72.283  83.391  0.00  0.00    +0.000 C 
ENDBRANCH   1  15
TORSDOF 2
ENDMDL
