MODEL 1
REMARK VINA RESULT:      -4.4      0.000      0.000
REMARK  Name = *****
REMARK  4 active torsions:
REMARK  status: ('A' for Active; 'I' for Inactive)
REMARK    1  A    between atoms: C_4  and  C_7
REMARK    2  A    between atoms: C_7  and  N_9
REMARK    3  A    between atoms: N_9  and  C_10
REMARK    4  A    between atoms: C_10  and  C_11
REMARK                            x       y       z     vdW  Elec       q    Type
REMARK                         _______ _______ _______ _____ _____    ______ ____
ROOT
ATOM      1  N   UNL     1      87.690  62.541  87.086  0.00  0.00    +0.000 N 
ATOM      2  H   UNL     1      88.480  61.953  87.057  0.00  0.00    +0.000 HD
ENDROOT
BRANCH   1   3
ATOM      3  C   UNL     1      87.570  63.450  86.053  0.00  0.00    +0.000 C 
ATOM      4  S   UNL     1      86.219  63.649  85.080  0.00  0.00    +0.000 S 
BRANCH   3   8
ATOM      5  C   UNL     1      91.047  65.965  85.337  0.00  0.00    +0.000 C 
ATOM      6  C   UNL     1      91.273  64.456  85.344  0.00  0.00    +0.000 C 
ATOM      7  C   UNL     1      89.963  63.693  85.120  0.00  0.00    +0.000 C 
ATOM      8  C   UNL     1      88.815  64.265  85.910  0.00  0.00    +0.000 C 
ATOM      9  C   UNL     1      88.858  65.471  86.505  0.00  0.00    +0.000 C 
ATOM     10  C   UNL     1      90.047  66.383  86.416  0.00  0.00    +0.000 C 
ENDBRANCH   3   8
ENDBRANCH   1   3
BRANCH   1  11
ATOM     11  C   UNL     1      86.789  62.350  88.213  0.00  0.00    +0.000 C 
BRANCH  11  12
ATOM     12  C   UNL     1      87.313  63.071  89.428  0.00  0.00    +0.000 A 
ATOM     13  C   UNL     1      88.686  63.327  89.559  0.00  0.00    +0.000 A 
ATOM     14  C   UNL     1      89.180  63.974  90.693  0.00  0.00    +0.000 A 
ATOM     15  C   UNL     1      88.309  64.365  91.708  0.00  0.00    +0.000 A 
ATOM     16  C   UNL     1      86.945  64.107  91.594  0.00  0.00    +0.000 A 
ATOM     17  C   UNL     1      86.448  63.459  90.460  0.00  0.00    +0.000 A 
ENDBRANCH  11  12
ENDBRANCH   1  11
TORSDOF 4
ENDMDL
