MODEL 1
REMARK VINA RESULT:      -5.2      0.000      0.000
REMARK  Name = *****
REMARK  7 active torsions:
REMARK  status: ('A' for Active; 'I' for Inactive)
REMARK    1  A    between atoms: C_1  and  C_2
REMARK    2  A    between atoms: C_4  and  C_18
REMARK    3  A    between atoms: C_5  and  C_9
REMARK    4  A    between atoms: C_6  and  C_8
REMARK    5  A    between atoms: C_9  and  C_10
REMARK    6  A    between atoms: C_10  and  C_11
REMARK    7  A    between atoms: C_10  and  O_17
REMARK                            x       y       z     vdW  Elec       q    Type
REMARK                         _______ _______ _______ _____ _____    ______ ____
ROOT
ATOM      1  C   UNL     1      88.042  64.861  87.283  0.00  0.00    +0.000 C 
ENDROOT
BRANCH   1   6
ATOM      2  C   UNL     1      89.524  70.512  86.840  0.00  0.00    +0.000 C 
ATOM      3  C   UNL     1      89.146  69.065  86.959  0.00  0.00    +0.000 A 
ATOM      4  C   UNL     1      89.933  68.077  86.367  0.00  0.00    +0.000 A 
ATOM      5  C   UNL     1      89.575  66.719  86.435  0.00  0.00    +0.000 A 
ATOM      6  C   UNL     1      88.402  66.333  87.135  0.00  0.00    +0.000 A 
ATOM      7  C   UNL     1      87.581  67.341  87.697  0.00  0.00    +0.000 A 
ATOM      8  C   UNL     1      87.966  68.691  87.600  0.00  0.00    +0.000 A 
ATOM      9  C   UNL     1      86.281  67.033  88.395  0.00  0.00    +0.000 C 
ATOM     10  C   UNL     1      90.490  65.724  85.765  0.00  0.00    +0.000 C 
ENDBRANCH   1   6
BRANCH   1  11
ATOM     11  C   UNL     1      88.461  64.242  88.630  0.00  0.00    +0.000 C 
BRANCH  11  12
ATOM     12  C   UNL     1      87.377  63.416  89.294  0.00  0.00    +0.000 A 
ATOM     13  C   UNL     1      86.853  63.772  90.548  0.00  0.00    +0.000 A 
ATOM     14  C   UNL     1      85.863  62.996  91.151  0.00  0.00    +0.000 A 
ATOM     15  C   UNL     1      85.388  61.851  90.513  0.00  0.00    +0.000 A 
ATOM     16  C   UNL     1      85.907  61.481  89.274  0.00  0.00    +0.000 A 
ATOM     17  C   UNL     1      86.896  62.256  88.668  0.00  0.00    +0.000 A 
ENDBRANCH  11  12
BRANCH  11  18
ATOM     18  O   UNL     1      89.621  63.425  88.419  0.00  0.00    +0.000 OA
ATOM     19  H   UNL     1      89.926  63.524  87.505  0.00  0.00    +0.000 HD
ENDBRANCH  11  18
ENDBRANCH   1  11
TORSDOF 4
ENDMDL
