MODEL 1
REMARK VINA RESULT:      -4.3      0.000      0.000
REMARK  Name = *****
REMARK  5 active torsions:
REMARK  status: ('A' for Active; 'I' for Inactive)
REMARK    1  A    between atoms: C_1  and  C_2
REMARK    2  A    between atoms: C_5  and  C_8
REMARK    3  A    between atoms: C_8  and  C_10
REMARK    4  A    between atoms: C_10  and  S_11
REMARK    5  A    between atoms: S_11  and  C_12
REMARK                            x       y       z     vdW  Elec       q    Type
REMARK                         _______ _______ _______ _____ _____    ______ ____
ROOT
ATOM      1  C   UNL     1      89.388  67.023  86.452  0.00  0.00    +0.000 C 
ATOM      2  O   UNL     1      90.619  66.955  86.410  0.00  0.00    +0.000 OA
ENDROOT
BRANCH   1   7
ATOM      3  C   UNL     1      86.725  71.573  88.912  0.00  0.00    +0.000 C 
ATOM      4  C   UNL     1      87.431  70.400  88.298  0.00  0.00    +0.000 A 
ATOM      5  C   UNL     1      86.749  69.201  88.068  0.00  0.00    +0.000 A 
ATOM      6  C   UNL     1      87.401  68.120  87.472  0.00  0.00    +0.000 A 
ATOM      7  C   UNL     1      88.745  68.219  87.086  0.00  0.00    +0.000 A 
ATOM      8  C   UNL     1      89.423  69.424  87.300  0.00  0.00    +0.000 A 
ATOM      9  C   UNL     1      88.767  70.507  87.897  0.00  0.00    +0.000 A 
ENDBRANCH   1   7
BRANCH   1  10
ATOM     10  C   UNL     1      88.531  65.898  85.903  0.00  0.00    +0.000 C 
BRANCH  10  11
ATOM     11  S   UNL     1      88.951  64.329  86.729  0.00  0.00    +0.000 S 
BRANCH  11  12
ATOM     12  C   UNL     1      88.417  64.656  88.455  0.00  0.00    +0.000 C 
ATOM     13  C   UNL     1      88.966  63.627  89.448  0.00  0.00    +0.000 C 
ATOM     14  C   UNL     1      88.565  63.985  90.880  0.00  0.00    +0.000 C 
ATOM     15  C   UNL     1      87.053  64.150  91.017  0.00  0.00    +0.000 C 
ATOM     16  C   UNL     1      86.501  65.159  90.014  0.00  0.00    +0.000 C 
ATOM     17  C   UNL     1      86.898  64.805  88.579  0.00  0.00    +0.000 C 
ENDBRANCH  11  12
ENDBRANCH  10  11
ENDBRANCH   1  10
TORSDOF 4
ENDMDL
