MODEL 1
REMARK VINA RESULT:      -4.6      0.000      0.000
REMARK  Name = *****
REMARK  5 active torsions:
REMARK  status: ('A' for Active; 'I' for Inactive)
REMARK    1  A    between atoms: C_4  and  C_7
REMARK    2  A    between atoms: C_7  and  C_8
REMARK    3  A    between atoms: C_7  and  C_11
REMARK    4  A    between atoms: C_8  and  C_9
REMARK    5  A    between atoms: C_11  and  C_13
REMARK                            x       y       z     vdW  Elec       q    Type
REMARK                         _______ _______ _______ _____ _____    ______ ____
ROOT
ATOM      1  C   UNL     1     100.658 126.617  83.181  0.00  0.00    +0.000 C 
ENDROOT
BRANCH   1   5
ATOM      2  C   UNL     1     104.562 127.103  81.167  0.00  0.00    +0.000 C 
ATOM      3  C   UNL     1     103.553 126.135  80.569  0.00  0.00    +0.000 C 
ATOM      4  C   UNL     1     102.454 125.782  81.568  0.00  0.00    +0.000 C 
ATOM      5  C   UNL     1     101.732 127.031  82.124  0.00  0.00    +0.000 C 
ATOM      6  C   UNL     1     102.770 128.021  82.692  0.00  0.00    +0.000 C 
ATOM      7  C   UNL     1     103.874 128.355  81.691  0.00  0.00    +0.000 C 
ENDBRANCH   1   5
BRANCH   1   8
ATOM      8  C   UNL     1      99.395 127.453  82.952  0.00  0.00    +0.000 C 
ATOM      9  O   UNL     1      98.571 127.126  82.098  0.00  0.00    +0.000 OA
BRANCH   8  10
ATOM     10  C   UNL     1      99.121 128.649  83.804  0.00  0.00    +0.000 A 
ATOM     11  C   UNL     1      99.625 129.919  83.510  0.00  0.00    +0.000 A 
ATOM     12  C   UNL     1      99.337 130.998  84.350  0.00  0.00    +0.000 A 
ATOM     13  C   UNL     1      98.542 130.814  85.482  0.00  0.00    +0.000 A 
ATOM     14  C   UNL     1      98.026 129.553  85.772  0.00  0.00    +0.000 A 
ATOM     15  C   UNL     1      98.310 128.474  84.933  0.00  0.00    +0.000 A 
ENDBRANCH   8  10
ENDBRANCH   1   8
BRANCH   1  16
ATOM     16  C   UNL     1     101.109 126.859  84.634  0.00  0.00    +0.000 C 
BRANCH  16  17
ATOM     17  C   UNL     1     100.765 125.718  85.498  0.00  0.00    +0.000 C 
ATOM     18  N   UNL     1     100.470 124.800  86.141  0.00  0.00    +0.000 NA
ENDBRANCH  16  17
ENDBRANCH   1  16
TORSDOF 5
ENDMDL
