MODEL 1
REMARK VINA RESULT:      -4.2      0.000      0.000
REMARK  Name = *****
REMARK  5 active torsions:
REMARK  status: ('A' for Active; 'I' for Inactive)
REMARK    1  A    between atoms: C_1  and  C_2
REMARK    2  A    between atoms: C_5  and  S_8
REMARK    3  A    between atoms: S_8  and  S_9
REMARK    4  A    between atoms: S_9  and  C_11
REMARK    5  A    between atoms: C_14  and  C_17
REMARK                            x       y       z     vdW  Elec       q    Type
REMARK                         _______ _______ _______ _____ _____    ______ ____
ROOT
ATOM      1  S   UNL     1      88.962  69.023  83.657  0.00  0.00    +0.000 S 
ATOM      2  O   UNL     1      90.088  68.565  82.775  0.00  0.00    +0.000 OA
ENDROOT
BRANCH   1   3
ATOM      3  C   UNL     1      88.815  67.773  84.959  0.00  0.00    +0.000 A 
ATOM      4  C   UNL     1      89.971  67.205  85.508  0.00  0.00    +0.000 A 
ATOM      5  C   UNL     1      89.873  66.249  86.523  0.00  0.00    +0.000 A 
ATOM      6  C   UNL     1      88.621  65.845  86.999  0.00  0.00    +0.000 A 
ATOM      7  C   UNL     1      87.467  66.431  86.465  0.00  0.00    +0.000 A 
ATOM      8  C   UNL     1      87.565  67.386  85.449  0.00  0.00    +0.000 A 
ATOM      9  C   UNL     1      88.517  64.844  88.112  0.00  0.00    +0.000 C 
ENDBRANCH   1   3
BRANCH   1  10
ATOM     10  S   UNL     1      89.908  70.501  84.679  0.00  0.00    +0.000 S 
BRANCH  10  15
ATOM     11  C   UNL     1      86.247  71.068  89.520  0.00  0.00    +0.000 C 
ATOM     12  C   UNL     1      87.160  70.959  88.335  0.00  0.00    +0.000 A 
ATOM     13  C   UNL     1      86.682  71.214  87.046  0.00  0.00    +0.000 A 
ATOM     14  C   UNL     1      87.524  71.081  85.937  0.00  0.00    +0.000 A 
ATOM     15  C   UNL     1      88.854  70.687  86.105  0.00  0.00    +0.000 A 
ATOM     16  C   UNL     1      89.327  70.407  87.390  0.00  0.00    +0.000 A 
ATOM     17  C   UNL     1      88.485  70.541  88.498  0.00  0.00    +0.000 A 
ENDBRANCH  10  15
ENDBRANCH   1  10
TORSDOF 3
ENDMDL
