MODEL 1
REMARK VINA RESULT:      -4.5      0.000      0.000
REMARK  Name = *****
REMARK  5 active torsions:
REMARK  status: ('A' for Active; 'I' for Inactive)
REMARK    1  A    between atoms: C_1  and  C_2
REMARK    2  A    between atoms: C_7  and  C_8
REMARK    3  A    between atoms: C_8  and  C_9
REMARK    4  A    between atoms: C_9  and  C_10
REMARK    5  A    between atoms: C_10  and  C_12
REMARK                            x       y       z     vdW  Elec       q    Type
REMARK                         _______ _______ _______ _____ _____    ______ ____
ROOT
ATOM      1  C   UNL     1      88.478  67.739  86.243  0.00  0.00    +0.000 C 
ATOM      2  O   UNL     1      87.792  67.844  85.226  0.00  0.00    +0.000 OA
ENDROOT
BRANCH   1   3
ATOM      3  C   UNL     1      88.065  66.752  87.268  0.00  0.00    +0.000 A 
ATOM      4  C   UNL     1      86.979  66.975  88.116  0.00  0.00    +0.000 A 
ATOM      5  C   UNL     1      86.613  66.028  89.067  0.00  0.00    +0.000 A 
ATOM      6  C   UNL     1      87.338  64.847  89.160  0.00  0.00    +0.000 A 
ATOM      7  C   UNL     1      88.416  64.597  88.316  0.00  0.00    +0.000 A 
ATOM      8  C   UNL     1      88.779  65.549  87.362  0.00  0.00    +0.000 A 
ATOM      9  F   UNL     1      86.992  63.933  90.074  0.00  0.00    +0.000 F 
ATOM     10  F   UNL     1      86.255  68.098  88.028  0.00  0.00    +0.000 F 
ENDBRANCH   1   3
BRANCH   1  11
ATOM     11  C   UNL     1      89.712  68.599  86.450  0.00  0.00    +0.000 C 
BRANCH  11  12
ATOM     12  C   UNL     1      89.445  70.105  86.528  0.00  0.00    +0.000 C 
BRANCH  12  19
ATOM     13  C   UNL     1      86.843  71.288  85.559  0.00  0.00    +0.000 C 
ATOM     14  C   UNL     1      87.135  71.096  87.023  0.00  0.00    +0.000 A 
ATOM     15  C   UNL     1      86.152  71.476  87.953  0.00  0.00    +0.000 A 
ATOM     16  C   UNL     1      86.367  71.337  89.323  0.00  0.00    +0.000 A 
ATOM     17  C   UNL     1      87.572  70.823  89.783  0.00  0.00    +0.000 A 
ATOM     18  C   UNL     1      88.556  70.436  88.873  0.00  0.00    +0.000 A 
ATOM     19  C   UNL     1      88.350  70.541  87.485  0.00  0.00    +0.000 A 
ENDBRANCH  12  19
ENDBRANCH  11  12
ENDBRANCH   1  11
TORSDOF 4
ENDMDL
