MODEL 1
REMARK VINA RESULT:      -4.5      0.000      0.000
REMARK  Name = *****
REMARK  3 active torsions:
REMARK  status: ('A' for Active; 'I' for Inactive)
REMARK    1  A    between atoms: C_4  and  C_7
REMARK    2  A    between atoms: C_7  and  C_8
REMARK    3  A    between atoms: C_9  and  C_10
REMARK                            x       y       z     vdW  Elec       q    Type
REMARK                         _______ _______ _______ _____ _____    ______ ____
ROOT
ATOM      1  C   UNL     1      99.726 126.639  82.415  0.00  0.00    +0.000 C 
ATOM      2  C   UNL     1      98.780 127.576  82.584  0.00  0.00    +0.000 C 
ENDROOT
BRANCH   2   3
ATOM      3  C   UNL     1      98.828 128.638  83.588  0.00  0.00    +0.000 A 
ATOM      4  C   UNL     1      98.304 128.421  84.865  0.00  0.00    +0.000 A 
ATOM      5  C   UNL     1      98.344 129.437  85.823  0.00  0.00    +0.000 A 
ATOM      6  C   UNL     1      98.907 130.672  85.506  0.00  0.00    +0.000 A 
ATOM      7  C   UNL     1      99.431 130.895  84.233  0.00  0.00    +0.000 A 
ATOM      8  C   UNL     1      99.393 129.880  83.275  0.00  0.00    +0.000 A 
ENDBRANCH   2   3
BRANCH   1   9
ATOM      9  C   UNL     1     101.019 126.501  83.173  0.00  0.00    +0.000 C 
BRANCH   9  13
ATOM     10  C   UNL     1     104.184 127.635  80.361  0.00  0.00    +0.000 C 
ATOM     11  C   UNL     1     104.013 126.151  80.666  0.00  0.00    +0.000 C 
ATOM     12  C   UNL     1     102.636 125.863  81.272  0.00  0.00    +0.000 C 
ATOM     13  C   UNL     1     102.217 126.863  82.326  0.00  0.00    +0.000 C 
ATOM     14  C   UNL     1     102.856 128.040  82.473  0.00  0.00    +0.000 C 
ATOM     15  C   UNL     1     104.011 128.479  81.623  0.00  0.00    +0.000 C 
ENDBRANCH   9  13
ENDBRANCH   1   9
TORSDOF 3
ENDMDL
