MODEL 1
REMARK VINA RESULT:      -4.4      0.000      0.000
REMARK  Name = *****
REMARK  2 active torsions:
REMARK  status: ('A' for Active; 'I' for Inactive)
REMARK    1  A    between atoms: C_4  and  C_7
REMARK    2  A    between atoms: C_7  and  N_8
REMARK                            x       y       z     vdW  Elec       q    Type
REMARK                         _______ _______ _______ _____ _____    ______ ____
ROOT
ATOM      1  N   UNL     1      87.334  64.206  86.651  0.00  0.00    +0.000 NA
ATOM      2  S   UNL     1      86.403  65.551  86.969  0.00  0.00    +0.000 S 
ATOM      3  C   UNL     1      87.679  66.748  86.785  0.00  0.00    +0.000 A 
ATOM      4  C   UNL     1      88.811  66.223  86.184  0.00  0.00    +0.000 A 
ATOM      5  S   UNL     1      88.681  64.508  85.693  0.00  0.00    +0.000 S 
ATOM      6  O   UNL     1      89.948  63.869  86.181  0.00  0.00    +0.000 OA
ATOM      7  C   UNL     1      89.942  67.011  85.982  0.00  0.00    +0.000 A 
ATOM      8  C   UNL     1      89.914  68.346  86.390  0.00  0.00    +0.000 A 
ATOM      9  C   UNL     1      88.763  68.863  86.989  0.00  0.00    +0.000 A 
ATOM     10  C   UNL     1      87.636  68.073  87.193  0.00  0.00    +0.000 A 
ATOM     11  F   UNL     1      88.746  70.144  87.378  0.00  0.00    +0.000 F 
ENDROOT
BRANCH   1  12
ATOM     12  C   UNL     1      87.323  63.047  87.546  0.00  0.00    +0.000 C 
BRANCH  12  16
ATOM     13  C   UNL     1      88.081  64.080  91.671  0.00  0.00    +0.000 A 
ATOM     14  C   UNL     1      89.141  63.981  90.771  0.00  0.00    +0.000 A 
ATOM     15  C   UNL     1      88.897  63.650  89.438  0.00  0.00    +0.000 A 
ATOM     16  C   UNL     1      87.589  63.416  88.991  0.00  0.00    +0.000 A 
ATOM     17  C   UNL     1      86.531  63.510  89.907  0.00  0.00    +0.000 A 
ATOM     18  C   UNL     1      86.777  63.842  91.239  0.00  0.00    +0.000 A 
ENDBRANCH  12  16
ENDBRANCH   1  12
TORSDOF 2
ENDMDL
