REMARK  Name = *****
REMARK  2 active torsions:
REMARK  status: ('A' for Active; 'I' for Inactive)
REMARK    1  A    between atoms: C_2  and  C_10
REMARK    2  A    between atoms: C_3  and  C_4
REMARK                            x       y       z     vdW  Elec       q    Type
REMARK                         _______ _______ _______ _____ _____    ______ ____
ROOT
ATOM      1  C   UNL     1       0.053   0.833   0.178  0.00  0.00    +0.000 C 
ATOM      2  C   UNL     1       0.776  -0.480   0.325  0.00  0.00    +0.000 C 
ATOM      3  C   UNL     1      -0.723  -0.454   0.057  0.00  0.00    +0.000 C 
ENDROOT
BRANCH   3   4
ATOM      4  C   UNL     1      -1.329  -0.865  -1.269  0.00  0.00    +0.000 A 
ATOM      5  C   UNL     1      -1.403  -2.219  -1.638  0.00  0.00    +0.000 A 
ATOM      6  C   UNL     1      -1.980  -2.621  -2.846  0.00  0.00    +0.000 A 
ATOM      7  C   UNL     1      -2.514  -1.672  -3.712  0.00  0.00    +0.000 A 
ATOM      8  C   UNL     1      -2.476  -0.326  -3.364  0.00  0.00    +0.000 A 
ATOM      9  C   UNL     1      -1.896   0.068  -2.155  0.00  0.00    +0.000 A 
ENDBRANCH   3   4
BRANCH   2  10
ATOM     10  C   UNL     1       1.777  -0.957  -0.707  0.00  0.00    +0.000 A 
ATOM     11  C   UNL     1       2.539  -0.077  -1.494  0.00  0.00    +0.000 A 
ATOM     12  C   UNL     1       3.475  -0.546  -2.422  0.00  0.00    +0.000 A 
ATOM     13  C   UNL     1       3.680  -1.913  -2.576  0.00  0.00    +0.000 A 
ATOM     14  C   UNL     1       2.955  -2.809  -1.797  0.00  0.00    +0.000 A 
ATOM     15  C   UNL     1       2.022  -2.332  -0.872  0.00  0.00    +0.000 A 
ENDBRANCH   2  10
TORSDOF 2
