MODEL 1
REMARK VINA RESULT:      -4.5      0.000      0.000
REMARK  Name = *****
REMARK  4 active torsions:
REMARK  status: ('A' for Active; 'I' for Inactive)
REMARK    1  A    between atoms: C_6  and  C_8
REMARK    2  A    between atoms: C_8  and  O_10
REMARK    3  A    between atoms: O_10  and  C_11
REMARK    4  A    between atoms: C_11  and  C_12
REMARK                            x       y       z     vdW  Elec       q    Type
REMARK                         _______ _______ _______ _____ _____    ______ ____
ROOT
ATOM      1  C   UNL     1     104.079 126.278  80.485  0.00  0.00    +0.000 C 
ATOM      2  O   UNL     1     105.151 126.828  80.278  0.00  0.00    +0.000 OA
ENDROOT
BRANCH   1   8
ATOM      3  C   UNL     1     100.725 126.627  82.377  0.00  0.00    +0.000 C 
ATOM      4  C   UNL     1     101.087 127.821  83.272  0.00  0.00    +0.000 C 
ATOM      5  C   UNL     1     102.616 127.713  83.391  0.00  0.00    +0.000 C 
ATOM      6  C   UNL     1     102.827 126.202  83.399  0.00  0.00    +0.000 C 
ATOM      7  C   UNL     1     102.096 125.999  82.069  0.00  0.00    +0.000 C 
ATOM      8  C   UNL     1     102.866 126.943  81.114  0.00  0.00    +0.000 C 
ATOM      9  C   UNL     1     103.255 128.110  82.048  0.00  0.00    +0.000 C 
ENDBRANCH   1   8
BRANCH   1  10
ATOM     10  O   UNL     1     103.801 124.972  80.224  0.00  0.00    +0.000 OA
BRANCH  10  11
ATOM     11  C   UNL     1     104.924 124.082  80.177  0.00  0.00    +0.000 C 
BRANCH  11  12
ATOM     12  C   UNL     1     104.728 122.966  81.169  0.00  0.00    +0.000 A 
ATOM     13  C   UNL     1     104.654 121.634  80.733  0.00  0.00    +0.000 A 
ATOM     14  C   UNL     1     104.491 120.596  81.651  0.00  0.00    +0.000 A 
ATOM     15  C   UNL     1     104.399 120.878  83.013  0.00  0.00    +0.000 A 
ATOM     16  C   UNL     1     104.461 122.198  83.457  0.00  0.00    +0.000 A 
ATOM     17  C   UNL     1     104.621 123.238  82.539  0.00  0.00    +0.000 A 
ENDBRANCH  11  12
ENDBRANCH  10  11
ENDBRANCH   1  10
TORSDOF 4
ENDMDL
