REMARK  Name = *****
REMARK  4 active torsions:
REMARK  status: ('A' for Active; 'I' for Inactive)
REMARK    1  A    between atoms: C_3  and  C_8
REMARK    2  A    between atoms: C_5  and  S_7
REMARK    3  A    between atoms: C_9  and  C_10
REMARK    4  A    between atoms: C_12  and  S_16
REMARK                            x       y       z     vdW  Elec       q    Type
REMARK                         _______ _______ _______ _____ _____    ______ ____
ROOT
ATOM      1  C   UNL     1      -1.281  -2.674  -0.135  0.00  0.00    +0.000 C 
ATOM      2  C   UNL     1      -1.801  -3.751  -0.254  0.00  0.00    +0.000 C 
ENDROOT
BRANCH   1   5
ATOM      3  C   UNL     1      -0.821   1.020   0.009  0.00  0.00    +0.000 A 
ATOM      4  C   UNL     1      -1.434  -0.233  -0.023  0.00  0.00    +0.000 A 
ATOM      5  C   UNL     1      -0.654  -1.390  -0.058  0.00  0.00    +0.000 A 
ATOM      6  C   UNL     1       0.741  -1.294  -0.051  0.00  0.00    +0.000 A 
ATOM      7  C   UNL     1       1.359  -0.040  -0.022  0.00  0.00    +0.000 A 
ATOM      8  C   UNL     1       0.572   1.115   0.008  0.00  0.00    +0.000 A 
BRANCH   7   9
ATOM      9  S   UNL     1       3.133   0.115  -0.021  0.00  0.00    +0.000 S 
ATOM     10  H   UNL     1       3.696  -1.123  -0.052  0.00  0.00    +0.000 HD
ENDBRANCH   7   9
ENDBRANCH   1   5
BRANCH   2  11
ATOM     11  C   UNL     1      -2.408  -5.030  -0.460  0.00  0.00    +0.000 A 
ATOM     12  C   UNL     1      -1.731  -6.196  -0.089  0.00  0.00    +0.000 A 
ATOM     13  C   UNL     1      -2.302  -7.448  -0.337  0.00  0.00    +0.000 A 
ATOM     14  C   UNL     1      -3.556  -7.525  -0.950  0.00  0.00    +0.000 A 
ATOM     15  C   UNL     1      -4.237  -6.361  -1.311  0.00  0.00    +0.000 A 
ATOM     16  C   UNL     1      -3.663  -5.114  -1.067  0.00  0.00    +0.000 A 
BRANCH  13  17
ATOM     17  S   UNL     1      -1.459  -8.952   0.111  0.00  0.00    +0.000 S 
ATOM     18  H   UNL     1      -0.266  -8.648   0.689  0.00  0.00    +0.000 HD
ENDBRANCH  13  17
ENDBRANCH   2  11
TORSDOF 4
