MODEL 1
REMARK VINA RESULT:      -4.5      0.000      0.000
REMARK  Name = *****
REMARK  5 active torsions:
REMARK  status: ('A' for Active; 'I' for Inactive)
REMARK    1  A    between atoms: C_1  and  C_2
REMARK    2  A    between atoms: C_4  and  C_18
REMARK    3  A    between atoms: C_5  and  N_8
REMARK    4  A    between atoms: N_8  and  C_9
REMARK    5  A    between atoms: C_10  and  C_12
REMARK                            x       y       z     vdW  Elec       q    Type
REMARK                         _______ _______ _______ _____ _____    ______ ____
ROOT
ATOM      1  N   UNL     1     102.142 127.415  83.166  0.00  0.00    +0.000 N 
ATOM      2  C   UNL     1     102.890 128.633  83.482  0.00  0.00    +0.000 C 
ATOM      3  C   UNL     1     100.736 127.420  83.150  0.00  0.00    +0.000 C 
ATOM      4  O   UNL     1     100.020 126.656  82.507  0.00  0.00    +0.000 OA
ENDROOT
BRANCH   1   9
ATOM      5  C   UNL     1     104.901 123.285  80.228  0.00  0.00    +0.000 C 
ATOM      6  C   UNL     1     104.178 124.351  80.996  0.00  0.00    +0.000 A 
ATOM      7  C   UNL     1     103.981 124.223  82.375  0.00  0.00    +0.000 A 
ATOM      8  C   UNL     1     103.334 125.227  83.126  0.00  0.00    +0.000 A 
ATOM      9  C   UNL     1     102.844 126.374  82.466  0.00  0.00    +0.000 A 
ATOM     10  C   UNL     1     103.087 126.510  81.087  0.00  0.00    +0.000 A 
ATOM     11  C   UNL     1     103.746 125.513  80.362  0.00  0.00    +0.000 A 
ATOM     12  C   UNL     1     103.236 125.014  84.613  0.00  0.00    +0.000 C 
ENDBRANCH   1   9
BRANCH   3  13
ATOM     13  C   UNL     1     100.035 128.451  83.946  0.00  0.00    +0.000 A 
ATOM     14  C   UNL     1      99.723 128.182  85.281  0.00  0.00    +0.000 A 
ATOM     15  C   UNL     1      99.082 129.156  86.047  0.00  0.00    +0.000 A 
ATOM     16  C   UNL     1      98.771 130.395  85.482  0.00  0.00    +0.000 A 
ATOM     17  C   UNL     1      99.106 130.669  84.154  0.00  0.00    +0.000 A 
ATOM     18  C   UNL     1      99.747 129.699  83.383  0.00  0.00    +0.000 A 
ENDBRANCH   3  13
TORSDOF 2
ENDMDL
