MODEL 1
REMARK VINA RESULT:      -4.5      0.000      0.000
REMARK  Name = *****
REMARK  3 active torsions:
REMARK  status: ('A' for Active; 'I' for Inactive)
REMARK    1  A    between atoms: C_1  and  C_2
REMARK    2  A    between atoms: C_5  and  S_8
REMARK    3  A    between atoms: S_8  and  C_10
REMARK                            x       y       z     vdW  Elec       q    Type
REMARK                         _______ _______ _______ _____ _____    ______ ____
ROOT
ATOM      1  S   UNL     1      87.341  69.954  85.482  0.00  0.00    +0.000 S 
ATOM      2  O   UNL     1      85.922  69.538  85.222  0.00  0.00    +0.000 OA
ENDROOT
BRANCH   1   3
ATOM      3  C   UNL     1      87.621  71.475  84.580  0.00  0.00    +0.000 C 
ATOM      4  C   UNL     1      88.867  71.903  84.275  0.00  0.00    +0.000 C 
ATOM      5  C   UNL     1      90.138  71.139  84.627  0.00  0.00    +0.000 C 
ATOM      6  C   UNL     1      91.198  71.235  83.530  0.00  0.00    +0.000 C 
ATOM      7  C   UNL     1      91.543  72.689  83.220  0.00  0.00    +0.000 C 
ATOM      8  C   UNL     1      90.319  73.546  83.134  0.00  0.00    +0.000 C 
ATOM      9  C   UNL     1      89.113  73.174  83.589  0.00  0.00    +0.000 C 
ATOM     10 CL   UNL     1      86.170  72.327  84.163  0.00  0.00    +0.000 Cl
ENDBRANCH   1   3
BRANCH   1  15
ATOM     11  C   UNL     1      87.432  72.104  91.216  0.00  0.00    +0.000 C 
ATOM     12  C   UNL     1      87.422  71.602  89.803  0.00  0.00    +0.000 A 
ATOM     13  C   UNL     1      86.283  71.754  89.003  0.00  0.00    +0.000 A 
ATOM     14  C   UNL     1      86.262  71.256  87.697  0.00  0.00    +0.000 A 
ATOM     15  C   UNL     1      87.375  70.583  87.180  0.00  0.00    +0.000 A 
ATOM     16  C   UNL     1      88.511  70.426  87.980  0.00  0.00    +0.000 A 
ATOM     17  C   UNL     1      88.531  70.924  89.285  0.00  0.00    +0.000 A 
ENDBRANCH   1  15
TORSDOF 2
ENDMDL
