MODEL 1
REMARK VINA RESULT:      -4.6      0.000      0.000
REMARK  Name = *****
REMARK  6 active torsions:
REMARK  status: ('A' for Active; 'I' for Inactive)
REMARK    1  A    between atoms: C_1  and  C_2
REMARK    2  A    between atoms: C_5  and  S_8
REMARK    3  A    between atoms: S_8  and  O_10
REMARK    4  A    between atoms: O_10  and  C_11
REMARK    5  A    between atoms: C_12  and  C_18
REMARK    6  A    between atoms: C_16  and  C_17
REMARK                            x       y       z     vdW  Elec       q    Type
REMARK                         _______ _______ _______ _____ _____    ______ ____
ROOT
ATOM      1  S   UNL     1     103.680 125.274  83.464  0.00  0.00    +0.000 S 
ATOM      2  O   UNL     1     103.249 124.319  84.540  0.00  0.00    +0.000 OA
ENDROOT
BRANCH   1   7
ATOM      3  C   UNL     1      99.381 129.635  83.427  0.00  0.00    +0.000 C 
ATOM      4  C   UNL     1     100.430 128.562  83.435  0.00  0.00    +0.000 A 
ATOM      5  C   UNL     1     100.183 127.309  82.861  0.00  0.00    +0.000 A 
ATOM      6  C   UNL     1     101.170 126.320  82.870  0.00  0.00    +0.000 A 
ATOM      7  C   UNL     1     102.417 126.573  83.451  0.00  0.00    +0.000 A 
ATOM      8  C   UNL     1     102.671 127.828  84.013  0.00  0.00    +0.000 A 
ATOM      9  C   UNL     1     101.683 128.816  84.005  0.00  0.00    +0.000 A 
ENDBRANCH   1   7
BRANCH   1  10
ATOM     10  O   UNL     1     103.171 124.679  82.049  0.00  0.00    +0.000 OA
BRANCH  10  11
ATOM     11  C   UNL     1     104.174 124.459  81.136  0.00  0.00    +0.000 A 
ATOM     12  C   UNL     1     104.823 123.212  81.108  0.00  0.00    +0.000 A 
ATOM     13  C   UNL     1     105.846 123.002  80.173  0.00  0.00    +0.000 A 
ATOM     14  C   UNL     1     106.182 123.997  79.256  0.00  0.00    +0.000 A 
ATOM     15  C   UNL     1     105.496 125.210  79.255  0.00  0.00    +0.000 A 
ATOM     16  C   UNL     1     104.470 125.449  80.179  0.00  0.00    +0.000 A 
ATOM     17  C   UNL     1     103.741 126.761  80.148  0.00  0.00    +0.000 C 
ATOM     18  C   UNL     1     104.493 122.115  82.083  0.00  0.00    +0.000 C 
ENDBRANCH  10  11
ENDBRANCH   1  10
TORSDOF 3
ENDMDL
