MODEL 1
REMARK VINA RESULT:      -4.7      0.000      0.000
REMARK  Name = *****
REMARK  6 active torsions:
REMARK  status: ('A' for Active; 'I' for Inactive)
REMARK    1  A    between atoms: C_1  and  C_2
REMARK    2  A    between atoms: C_5  and  C_8
REMARK    3  A    between atoms: C_8  and  C_9
REMARK    4  A    between atoms: C_8  and  O_16
REMARK    5  A    between atoms: C_9  and  C_10
REMARK    6  A    between atoms: O_16  and  C_17
REMARK                            x       y       z     vdW  Elec       q    Type
REMARK                         _______ _______ _______ _____ _____    ______ ____
ROOT
ATOM      1  C   UNL     1     102.925 127.140  81.321  0.00  0.00    +0.000 C 
ENDROOT
BRANCH   1   6
ATOM      2  C   UNL     1     105.282 121.800  81.553  0.00  0.00    +0.000 C 
ATOM      3  C   UNL     1     104.701 123.180  81.496  0.00  0.00    +0.000 A 
ATOM      4  C   UNL     1     104.131 123.759  82.636  0.00  0.00    +0.000 A 
ATOM      5  C   UNL     1     103.559 125.031  82.577  0.00  0.00    +0.000 A 
ATOM      6  C   UNL     1     103.532 125.746  81.371  0.00  0.00    +0.000 A 
ATOM      7  C   UNL     1     104.097 125.159  80.228  0.00  0.00    +0.000 A 
ATOM      8  C   UNL     1     104.667 123.887  80.289  0.00  0.00    +0.000 A 
ENDBRANCH   1   6
BRANCH   1   9
ATOM      9  O   UNL     1     103.844 128.055  80.702  0.00  0.00    +0.000 OA
ATOM     10  C   UNL     1     104.565 128.831  81.650  0.00  0.00    +0.000 C 
ENDBRANCH   1   9
BRANCH   1  11
ATOM     11  C   UNL     1     102.619 127.631  82.754  0.00  0.00    +0.000 C 
BRANCH  11  12
ATOM     12  C   UNL     1     101.136 127.830  83.025  0.00  0.00    +0.000 C 
ATOM     13  C   UNL     1     100.674 128.929  83.654  0.00  0.00    +0.000 C 
ATOM     14  C   UNL     1      99.223 129.174  83.949  0.00  0.00    +0.000 C 
ATOM     15  C   UNL     1      98.344 127.941  83.741  0.00  0.00    +0.000 C 
ATOM     16  C   UNL     1      98.737 127.199  82.469  0.00  0.00    +0.000 C 
ATOM     17  C   UNL     1     100.200 126.755  82.521  0.00  0.00    +0.000 C 
ENDBRANCH  11  12
ENDBRANCH   1  11
TORSDOF 4
ENDMDL
