REMARK  Name = *****
REMARK  2 active torsions:
REMARK  status: ('A' for Active; 'I' for Inactive)
REMARK    1  A    between atoms: C_4  and  C_7
REMARK    2  A    between atoms: C_8  and  C_10
REMARK                            x       y       z     vdW  Elec       q    Type
REMARK                         _______ _______ _______ _____ _____    ______ ____
ROOT
ATOM      1  C   UNL     1      -2.821   0.521  -0.167  0.00  0.00    +0.000 C 
ATOM      2  C   UNL     1      -3.813  -0.002   0.859  0.00  0.00    +0.000 C 
ATOM      3  S   UNL     1      -3.847  -0.771  -0.691  0.00  0.00    +0.000 S 
ENDROOT
BRANCH   2   4
ATOM      4  C   UNL     1      -5.013   0.834   1.247  0.00  0.00    +0.000 A 
ATOM      5  C   UNL     1      -6.312   0.292   1.295  0.00  0.00    +0.000 A 
ATOM      6  C   UNL     1      -7.415   1.061   1.681  0.00  0.00    +0.000 A 
ATOM      7  C   UNL     1      -7.236   2.392   2.040  0.00  0.00    +0.000 A 
ATOM      8  C   UNL     1      -5.965   2.956   2.019  0.00  0.00    +0.000 A 
ATOM      9  C   UNL     1      -4.867   2.181   1.631  0.00  0.00    +0.000 A 
ATOM     10 CL   UNL     1      -8.588   3.342   2.518  0.00  0.00    +0.000 Cl
ENDBRANCH   2   4
BRANCH   1  14
ATOM     11  C   UNL     1       1.429  -0.268   0.273  0.00  0.00    +0.000 A 
ATOM     12  C   UNL     1       0.799  -0.511  -0.943  0.00  0.00    +0.000 A 
ATOM     13  C   UNL     1      -0.570  -0.263  -1.083  0.00  0.00    +0.000 A 
ATOM     14  C   UNL     1      -1.346   0.221  -0.014  0.00  0.00    +0.000 A 
ATOM     15  C   UNL     1      -0.676   0.472   1.198  0.00  0.00    +0.000 A 
ATOM     16  C   UNL     1       0.693   0.227   1.344  0.00  0.00    +0.000 A 
ENDBRANCH   1  14
TORSDOF 2
