MODEL 1
REMARK VINA RESULT:      -4.8      0.000      0.000
REMARK  Name = *****
REMARK  5 active torsions:
REMARK  status: ('A' for Active; 'I' for Inactive)
REMARK    1  A    between atoms: C_4  and  C_7
REMARK    2  A    between atoms: C_7  and  C_8
REMARK    3  A    between atoms: C_8  and  N_9
REMARK    4  A    between atoms: N_9  and  C_10
REMARK    5  A    between atoms: N_9  and  N_16
REMARK                            x       y       z     vdW  Elec       q    Type
REMARK                         _______ _______ _______ _____ _____    ______ ____
ROOT
ATOM      1  N   UNL     1      99.369 127.396  83.053  0.00  0.00    +0.000 N 
ENDROOT
BRANCH   1   2
ATOM      2  C   UNL     1      99.124 128.541  83.872  0.00  0.00    +0.000 A 
ATOM      3  C   UNL     1      98.460 128.487  85.113  0.00  0.00    +0.000 A 
ATOM      4  C   UNL     1      98.234 129.636  85.885  0.00  0.00    +0.000 A 
ATOM      5  C   UNL     1      98.665 130.878  85.437  0.00  0.00    +0.000 A 
ATOM      6  C   UNL     1      99.319 130.973  84.216  0.00  0.00    +0.000 A 
ATOM      7  C   UNL     1      99.540 129.823  83.449  0.00  0.00    +0.000 A 
ENDBRANCH   1   2
BRANCH   1   8
ATOM      8  N   UNL     1      98.449 127.018  82.119  0.00  0.00    +0.000 NA
ATOM      9  O   UNL     1      97.627 126.190  82.526  0.00  0.00    +0.000 OA
ENDBRANCH   1   8
BRANCH   1  10
ATOM     10  C   UNL     1     100.624 126.647  83.297  0.00  0.00    +0.000 C 
BRANCH  10  11
ATOM     11  C   UNL     1     101.694 127.018  82.263  0.00  0.00    +0.000 C 
BRANCH  11  15
ATOM     12  C   UNL     1     104.508 123.814  81.620  0.00  0.00    +0.000 A 
ATOM     13  C   UNL     1     104.023 124.069  82.902  0.00  0.00    +0.000 A 
ATOM     14  C   UNL     1     103.107 125.100  83.111  0.00  0.00    +0.000 A 
ATOM     15  C   UNL     1     102.665 125.885  82.037  0.00  0.00    +0.000 A 
ATOM     16  C   UNL     1     103.160 125.623  80.753  0.00  0.00    +0.000 A 
ATOM     17  C   UNL     1     104.077 124.591  80.546  0.00  0.00    +0.000 A 
ENDBRANCH  11  15
ENDBRANCH  10  11
ENDBRANCH   1  10
TORSDOF 5
ENDMDL
