MODEL 1
REMARK VINA RESULT:      -4.3      0.000      0.000
REMARK  Name = *****
REMARK  2 active torsions:
REMARK  status: ('A' for Active; 'I' for Inactive)
REMARK    1  A    between atoms: C_4  and  C_7
REMARK    2  A    between atoms: C_8  and  C_9
REMARK                            x       y       z     vdW  Elec       q    Type
REMARK                         _______ _______ _______ _____ _____    ______ ____
ROOT
ATOM      1  C   UNL     1     102.166 125.871  82.214  0.00  0.00    +0.000 C 
ATOM      2  C   UNL     1     102.968 126.022  81.145  0.00  0.00    +0.000 C 
ENDROOT
BRANCH   1   6
ATOM      3  C   UNL     1      99.219 128.758  83.339  0.00  0.00    +0.000 A 
ATOM      4  C   UNL     1     100.561 128.999  83.629  0.00  0.00    +0.000 A 
ATOM      5  C   UNL     1     101.533 128.060  83.273  0.00  0.00    +0.000 A 
ATOM      6  C   UNL     1     101.171 126.867  82.634  0.00  0.00    +0.000 A 
ATOM      7  C   UNL     1      99.821 126.645  82.332  0.00  0.00    +0.000 A 
ATOM      8  C   UNL     1      98.849 127.584  82.689  0.00  0.00    +0.000 A 
ENDBRANCH   1   6
BRANCH   2   9
ATOM      9  C   UNL     1     103.953 125.093  80.699  0.00  0.00    +0.000 A 
ATOM     10  C   UNL     1     104.842 125.243  79.656  0.00  0.00    +0.000 A 
ATOM     11  O   UNL     1     105.628 124.140  79.535  0.00  0.00    +0.000 OA
ATOM     12  C   UNL     1     105.242 123.275  80.509  0.00  0.00    +0.000 A 
ATOM     13  C   UNL     1     104.217 123.812  81.251  0.00  0.00    +0.000 A 
ENDBRANCH   2   9
TORSDOF 2
ENDMDL
