MODEL 1
REMARK VINA RESULT:      -4.4      0.000      0.000
REMARK  Name = *****
REMARK  4 active torsions:
REMARK  status: ('A' for Active; 'I' for Inactive)
REMARK    1  A    between atoms: C_1  and  C_2
REMARK    2  A    between atoms: C_7  and  S_8
REMARK    3  A    between atoms: S_8  and  N_9
REMARK    4  A    between atoms: N_9  and  C_10
REMARK                            x       y       z     vdW  Elec       q    Type
REMARK                         _______ _______ _______ _____ _____    ______ ____
ROOT
ATOM      1  N   UNL     1      87.762  62.737  87.780  0.00  0.00    +0.000 N 
ATOM      2  H   UNL     1      88.018  61.795  87.652  0.00  0.00    +0.000 HD
ENDROOT
BRANCH   1   3
ATOM      3  C   UNL     1      87.867  63.291  89.075  0.00  0.00    +0.000 A 
ATOM      4  C   UNL     1      89.090  63.559  89.710  0.00  0.00    +0.000 A 
ATOM      5  C   UNL     1      89.134  64.042  91.023  0.00  0.00    +0.000 A 
ATOM      6  C   UNL     1      87.952  64.243  91.726  0.00  0.00    +0.000 A 
ATOM      7  C   UNL     1      86.727  63.956  91.133  0.00  0.00    +0.000 A 
ATOM      8  C   UNL     1      86.690  63.472  89.821  0.00  0.00    +0.000 A 
ATOM      9 CL   UNL     1      88.004  64.832  93.341  0.00  0.00    +0.000 Cl
ENDBRANCH   1   3
BRANCH   1  10
ATOM     10  S   UNL     1      87.225  63.597  86.459  0.00  0.00    +0.000 S 
BRANCH  10  17
ATOM     11  C   UNL     1      87.767  66.599  87.428  0.00  0.00    +0.000 C 
ATOM     12  C   UNL     1      88.836  65.906  86.628  0.00  0.00    +0.000 A 
ATOM     13  C   UNL     1      90.031  66.594  86.358  0.00  0.00    +0.000 A 
ATOM     14  C   UNL     1      91.055  65.994  85.623  0.00  0.00    +0.000 A 
ATOM     15  C   UNL     1      90.901  64.695  85.150  0.00  0.00    +0.000 A 
ATOM     16  C   UNL     1      89.725  63.993  85.418  0.00  0.00    +0.000 A 
ATOM     17  C   UNL     1      88.691  64.584  86.160  0.00  0.00    +0.000 A 
ENDBRANCH  10  17
ENDBRANCH   1  10
TORSDOF 3
ENDMDL
