MODEL 1
REMARK VINA RESULT:      -4.8      0.000      0.000
REMARK  Name = *****
REMARK  2 active torsions:
REMARK  status: ('A' for Active; 'I' for Inactive)
REMARK    1  A    between atoms: C_4  and  C_7
REMARK    2  A    between atoms: C_8  and  C_9
REMARK                            x       y       z     vdW  Elec       q    Type
REMARK                         _______ _______ _______ _____ _____    ______ ____
ROOT
ATOM      1  C   UNL     1     103.008 125.601  81.476  0.00  0.00    +0.000 C 
ATOM      2  C   UNL     1     102.142 126.283  81.956  0.00  0.00    +0.000 C 
ENDROOT
BRANCH   2   3
ATOM      3  C   UNL     1     101.109 127.097  82.523  0.00  0.00    +0.000 A 
ATOM      4  C   UNL     1      99.776 126.700  82.351  0.00  0.00    +0.000 A 
ATOM      5  C   UNL     1      98.736 127.464  82.885  0.00  0.00    +0.000 A 
ATOM      6  C   UNL     1      99.019 128.630  83.594  0.00  0.00    +0.000 A 
ATOM      7  C   UNL     1     100.344 129.033  83.771  0.00  0.00    +0.000 A 
ATOM      8  C   UNL     1     101.388 128.269  83.238  0.00  0.00    +0.000 A 
ATOM      9 CL   UNL     1     103.006 128.826  83.494  0.00  0.00    +0.000 Cl
ENDBRANCH   2   3
BRANCH   1  13
ATOM     10  C   UNL     1     106.298 123.293  79.945  0.00  0.00    +0.000 C 
ATOM     11  C   UNL     1     105.130 122.529  80.559  0.00  0.00    +0.000 C 
ATOM     12  C   UNL     1     104.308 123.431  81.484  0.00  0.00    +0.000 C 
ATOM     13  C   UNL     1     104.031 124.794  80.898  0.00  0.00    +0.000 C 
ATOM     14  C   UNL     1     104.708 125.261  79.833  0.00  0.00    +0.000 C 
ATOM     15  C   UNL     1     105.809 124.504  79.149  0.00  0.00    +0.000 C 
ENDBRANCH   1  13
TORSDOF 2
ENDMDL
