MODEL 1
REMARK VINA RESULT:      -5.2      0.000      0.000
REMARK  Name = *****
REMARK  2 active torsions:
REMARK  status: ('A' for Active; 'I' for Inactive)
REMARK    1  A    between atoms: C_4  and  C_7
REMARK    2  A    between atoms: C_8  and  C_9
REMARK                            x       y       z     vdW  Elec       q    Type
REMARK                         _______ _______ _______ _____ _____    ______ ____
ROOT
ATOM      1  C   UNL     1     103.806 125.097  81.036  0.00  0.00    +0.000 A 
ATOM      2  C   UNL     1     104.550 125.159  79.849  0.00  0.00    +0.000 A 
ATOM      3  C   UNL     1     105.482 124.165  79.551  0.00  0.00    +0.000 A 
ATOM      4  C   UNL     1     105.696 123.111  80.425  0.00  0.00    +0.000 A 
ATOM      5  C   UNL     1     104.976 123.052  81.608  0.00  0.00    +0.000 A 
ATOM      6  C   UNL     1     104.039 124.036  81.923  0.00  0.00    +0.000 A 
ATOM      7  F   UNL     1     105.176 122.043  82.469  0.00  0.00    +0.000 F 
ATOM      8  F   UNL     1     106.595 122.160  80.132  0.00  0.00    +0.000 F 
ATOM      9  F   UNL     1     106.177 124.244  78.408  0.00  0.00    +0.000 F 
ENDROOT
BRANCH   1  11
ATOM     10  C   UNL     1     101.879 125.964  82.340  0.00  0.00    +0.000 C 
ATOM     11  C   UNL     1     102.836 126.134  81.411  0.00  0.00    +0.000 C 
BRANCH  10  15
ATOM     12  C   UNL     1      99.046 129.004  83.360  0.00  0.00    +0.000 A 
ATOM     13  C   UNL     1     100.391 129.186  83.674  0.00  0.00    +0.000 A 
ATOM     14  C   UNL     1     101.326 128.199  83.353  0.00  0.00    +0.000 A 
ATOM     15  C   UNL     1     100.923 127.013  82.724  0.00  0.00    +0.000 A 
ATOM     16  C   UNL     1      99.571 126.849  82.398  0.00  0.00    +0.000 A 
ATOM     17  C   UNL     1      98.635 127.836  82.720  0.00  0.00    +0.000 A 
ENDBRANCH  10  15
ENDBRANCH   1  11
TORSDOF 2
ENDMDL
