MODEL 1
REMARK VINA RESULT:      -3.9      0.000      0.000
REMARK  Name = *****
REMARK  4 active torsions:
REMARK  status: ('A' for Active; 'I' for Inactive)
REMARK    1  A    between atoms: C_4  and  C_7
REMARK    2  A    between atoms: C_7  and  O_9
REMARK    3  A    between atoms: O_9  and  C_10
REMARK    4  A    between atoms: C_10  and  C_11
REMARK                            x       y       z     vdW  Elec       q    Type
REMARK                         _______ _______ _______ _____ _____    ______ ____
ROOT
ATOM      1  O   UNL     1      89.332  68.898  86.145  0.00  0.00    +0.000 OA
ENDROOT
BRANCH   1   2
ATOM      2  C   UNL     1      89.576  67.601  86.490  0.00  0.00    +0.000 C 
ATOM      3  O   UNL     1      90.686  67.086  86.488  0.00  0.00    +0.000 OA
BRANCH   2   7
ATOM      4  C   UNL     1      87.904  64.493  84.878  0.00  0.00    +0.000 C 
ATOM      5  C   UNL     1      89.006  64.415  85.928  0.00  0.00    +0.000 C 
ATOM      6  S   UNL     1      88.546  65.201  87.510  0.00  0.00    +0.000 S 
ATOM      7  C   UNL     1      88.276  66.926  86.929  0.00  0.00    +0.000 C 
ATOM      8  C   UNL     1      87.177  66.991  85.865  0.00  0.00    +0.000 C 
ATOM      9  S   UNL     1      87.586  66.184  84.278  0.00  0.00    +0.000 S 
ENDBRANCH   2   7
ENDBRANCH   1   2
BRANCH   1  10
ATOM     10  C   UNL     1      89.324  69.847  87.219  0.00  0.00    +0.000 C 
BRANCH  10  11
ATOM     11  C   UNL     1      87.996  70.557  87.220  0.00  0.00    +0.000 A 
ATOM     12  C   UNL     1      87.343  70.853  88.425  0.00  0.00    +0.000 A 
ATOM     13  C   UNL     1      86.109  71.508  88.420  0.00  0.00    +0.000 A 
ATOM     14  C   UNL     1      85.516  71.861  87.210  0.00  0.00    +0.000 A 
ATOM     15  C   UNL     1      86.144  71.560  86.003  0.00  0.00    +0.000 A 
ATOM     16  C   UNL     1      87.380  70.906  86.008  0.00  0.00    +0.000 A 
ATOM     17 CL   UNL     1      83.999  72.672  87.206  0.00  0.00    +0.000 Cl
ENDBRANCH  10  11
ENDBRANCH   1  10
TORSDOF 4
ENDMDL
