MODEL 1
REMARK VINA RESULT:      -4.7      0.000      0.000
REMARK  Name = *****
REMARK  2 active torsions:
REMARK  status: ('A' for Active; 'I' for Inactive)
REMARK    1  A    between atoms: C_4  and  C_8
REMARK    2  A    between atoms: C_9  and  C_10
REMARK                            x       y       z     vdW  Elec       q    Type
REMARK                         _______ _______ _______ _____ _____    ______ ____
ROOT
ATOM      1  C   UNL     1     102.042 126.073  82.334  0.00  0.00    +0.000 C 
ATOM      2  C   UNL     1     102.918 125.558  81.692  0.00  0.00    +0.000 C 
ENDROOT
BRANCH   1   6
ATOM      3  C   UNL     1      98.454 128.051  84.145  0.00  0.00    +0.000 C 
ATOM      4  C   UNL     1      98.393 126.962  83.079  0.00  0.00    +0.000 C 
ATOM      5  C   UNL     1      99.675 126.719  82.284  0.00  0.00    +0.000 C 
ATOM      6  C   UNL     1     100.962 126.705  83.124  0.00  0.00    +0.000 C 
ATOM      7  C   UNL     1     101.439 128.078  83.548  0.00  0.00    +0.000 C 
ATOM      8  C   UNL     1     100.703 129.184  83.745  0.00  0.00    +0.000 C 
ATOM      9  C   UNL     1      99.207 129.311  83.726  0.00  0.00    +0.000 C 
ENDBRANCH   1   6
BRANCH   2  10
ATOM     10  C   UNL     1     103.966 124.949  80.931  0.00  0.00    +0.000 A 
ATOM     11  C   UNL     1     104.315 123.618  81.164  0.00  0.00    +0.000 A 
ATOM     12  C   UNL     1     105.336 123.022  80.420  0.00  0.00    +0.000 A 
ATOM     13  C   UNL     1     106.007 123.758  79.443  0.00  0.00    +0.000 A 
ATOM     14  C   UNL     1     105.659 125.089  79.210  0.00  0.00    +0.000 A 
ATOM     15  C   UNL     1     104.639 125.685  79.953  0.00  0.00    +0.000 A 
ENDBRANCH   2  10
TORSDOF 2
ENDMDL
