REMARK  Name = *****
REMARK  3 active torsions:
REMARK  status: ('A' for Active; 'I' for Inactive)
REMARK    1  A    between atoms: C_1  and  C_2
REMARK    2  A    between atoms: C_2  and  C_11
REMARK    3  A    between atoms: N_3  and  C_4
REMARK                            x       y       z     vdW  Elec       q    Type
REMARK                         _______ _______ _______ _____ _____    ______ ____
ROOT
ATOM      1  C   UNL     1       1.002   0.571   0.622  0.00  0.00    +0.000 C 
ATOM      2  C   UNL     1       2.410   0.233   0.166  0.00  0.00    +0.000 C 
ATOM      3  N   UNL     1       3.018  -0.885   0.445  0.00  0.00    +0.000 NA
ENDROOT
BRANCH   3   4
ATOM      4  C   UNL     1       2.371  -1.874   1.192  0.00  0.00    +0.000 A 
ATOM      5  C   UNL     1       1.529  -2.800   0.568  0.00  0.00    +0.000 A 
ATOM      6  C   UNL     1       0.905  -3.803   1.314  0.00  0.00    +0.000 A 
ATOM      7  C   UNL     1       1.137  -3.888   2.686  0.00  0.00    +0.000 A 
ATOM      8  C   UNL     1       1.991  -2.984   3.315  0.00  0.00    +0.000 A 
ATOM      9  C   UNL     1       2.612  -1.983   2.565  0.00  0.00    +0.000 A 
ATOM     10 CL   UNL     1       0.370  -5.122   3.607  0.00  0.00    +0.000 Cl
ENDBRANCH   3   4
BRANCH   2  11
ATOM     11  C   UNL     1       3.139   1.242  -0.665  0.00  0.00    +0.000 A 
ATOM     12  C   UNL     1       4.542   1.263  -0.630  0.00  0.00    +0.000 A 
ATOM     13  C   UNL     1       5.251   2.188  -1.399  0.00  0.00    +0.000 A 
ATOM     14  C   UNL     1       4.557   3.082  -2.206  0.00  0.00    +0.000 A 
ATOM     15  C   UNL     1       3.167   3.065  -2.262  0.00  0.00    +0.000 A 
ATOM     16  C   UNL     1       2.454   2.141  -1.493  0.00  0.00    +0.000 A 
ATOM     17  F   UNL     1       5.235   3.968  -2.945  0.00  0.00    +0.000 F 
ENDBRANCH   2  11
TORSDOF 2
