MODEL 1
REMARK VINA RESULT:      -4.5      0.000      0.000
REMARK  Name = *****
REMARK  4 active torsions:
REMARK  status: ('A' for Active; 'I' for Inactive)
REMARK    1  A    between atoms: C_1  and  C_2
REMARK    2  A    between atoms: C_3  and  C_9
REMARK    3  A    between atoms: C_4  and  C_8
REMARK    4  A    between atoms: C_10  and  C_11
REMARK                            x       y       z     vdW  Elec       q    Type
REMARK                         _______ _______ _______ _____ _____    ______ ____
ROOT
ATOM      1  C   UNL     1      99.057 126.724  82.350  0.00  0.00    +0.000 C 
ATOM      2  C   UNL     1      99.710 127.898  83.031  0.00  0.00    +0.000 A 
ATOM      3  C   UNL     1     101.099 127.940  83.273  0.00  0.00    +0.000 A 
ATOM      4  C   UNL     1     101.680 129.072  83.884  0.00  0.00    +0.000 A 
ATOM      5  C   UNL     1     100.858 130.148  84.252  0.00  0.00    +0.000 A 
ATOM      6  C   UNL     1      99.489 130.114  84.003  0.00  0.00    +0.000 A 
ATOM      7  C   UNL     1      98.919 129.000  83.391  0.00  0.00    +0.000 A 
ATOM      8  C   UNL     1     103.154 129.143  84.182  0.00  0.00    +0.000 C 
ENDROOT
BRANCH   3   9
ATOM      9  C   UNL     1     101.926 126.826  82.902  0.00  0.00    +0.000 C 
ATOM     10  C   UNL     1     102.619 125.892  82.598  0.00  0.00    +0.000 C 
BRANCH  10  11
ATOM     11  C   UNL     1     103.449 124.787  82.242  0.00  0.00    +0.000 A 
ATOM     12  C   UNL     1     103.910 124.626  80.943  0.00  0.00    +0.000 A 
ATOM     13  C   UNL     1     104.720 123.528  80.665  0.00  0.00    +0.000 A 
ATOM     14  C   UNL     1     105.036 122.640  81.688  0.00  0.00    +0.000 A 
ATOM     15  C   UNL     1     104.525 122.887  82.954  0.00  0.00    +0.000 A 
ATOM     16  N   UNL     1     103.738 123.941  83.255  0.00  0.00    +0.000 NA
ENDBRANCH  10  11
ENDBRANCH   3   9
TORSDOF 2
ENDMDL
