REMARK  Name = *****
REMARK  2 active torsions:
REMARK  status: ('A' for Active; 'I' for Inactive)
REMARK    1  A    between atoms: C_2  and  C_11
REMARK    2  A    between atoms: N_3  and  C_4
REMARK                            x       y       z     vdW  Elec       q    Type
REMARK                         _______ _______ _______ _____ _____    ______ ____
ROOT
ATOM      1  C   UNL     1      -0.213   0.569  -0.637  0.00  0.00    +0.000 C 
ATOM      2  C   UNL     1       0.480  -0.734  -0.267  0.00  0.00    +0.000 C 
ATOM      3  N   UNL     1      -0.754  -0.714  -1.055  0.00  0.00    +0.000 N 
ENDROOT
BRANCH   3   4
ATOM      4  C   UNL     1      -1.960  -1.178  -0.478  0.00  0.00    +0.000 A 
ATOM      5  C   UNL     1      -3.135  -0.417  -0.586  0.00  0.00    +0.000 A 
ATOM      6  C   UNL     1      -4.339  -0.883  -0.054  0.00  0.00    +0.000 A 
ATOM      7  C   UNL     1      -4.374  -2.123   0.571  0.00  0.00    +0.000 A 
ATOM      8  C   UNL     1      -3.232  -2.909   0.665  0.00  0.00    +0.000 A 
ATOM      9  C   UNL     1      -2.029  -2.440   0.132  0.00  0.00    +0.000 A 
ATOM     10  F   UNL     1      -5.529  -2.574   1.079  0.00  0.00    +0.000 F 
ENDBRANCH   3   4
BRANCH   2  11
ATOM     11  C   UNL     1       1.759  -1.120  -0.963  0.00  0.00    +0.000 A 
ATOM     12  C   UNL     1       2.959  -0.436  -0.698  0.00  0.00    +0.000 A 
ATOM     13  C   UNL     1       4.156  -0.793  -1.326  0.00  0.00    +0.000 A 
ATOM     14  C   UNL     1       4.172  -1.848  -2.233  0.00  0.00    +0.000 A 
ATOM     15  C   UNL     1       3.004  -2.548  -2.513  0.00  0.00    +0.000 A 
ATOM     16  C   UNL     1       1.811  -2.185  -1.880  0.00  0.00    +0.000 A 
ATOM     17 CL   UNL     1       5.643  -2.289  -3.008  0.00  0.00    +0.000 Cl
ENDBRANCH   2  11
TORSDOF 2
