REMARK  Name = *****
REMARK  3 active torsions:
REMARK  status: ('A' for Active; 'I' for Inactive)
REMARK    1  A    between atoms: C_3  and  N_12
REMARK    2  A    between atoms: C_6  and  C_7
REMARK    3  A    between atoms: C_13  and  C_14
REMARK                            x       y       z     vdW  Elec       q    Type
REMARK                         _______ _______ _______ _____ _____    ______ ____
ROOT
ATOM      1  C   UNL     1       0.385  -1.327   0.065  0.00  0.00    +0.000 C 
ATOM      2  C   UNL     1       1.414  -0.237  -0.063  0.00  0.00    +0.000 C 
ATOM      3  C   UNL     1       1.106   1.055  -0.241  0.00  0.00    +0.000 C 
ATOM      4  C   UNL     1      -0.276   1.474  -0.334  0.00  0.00    +0.000 C 
ATOM      5  C   UNL     1      -1.289   0.600  -0.259  0.00  0.00    +0.000 C 
ATOM      6  C   UNL     1      -1.096  -0.897  -0.100  0.00  0.00    +0.000 C 
ATOM      7  F   UNL     1      -1.744  -1.265   1.056  0.00  0.00    +0.000 F 
ENDROOT
BRANCH   6   8
ATOM      8  C   UNL     1      -1.731  -1.667  -1.273  0.00  0.00    +0.000 C 
ATOM      9  F   UNL     1      -1.643  -3.008  -1.097  0.00  0.00    +0.000 F 
ATOM     10  F   UNL     1      -3.045  -1.368  -1.422  0.00  0.00    +0.000 F 
ATOM     11  F   UNL     1      -1.123  -1.383  -2.451  0.00  0.00    +0.000 F 
ENDBRANCH   6   8
BRANCH   3  12
ATOM     12  N   UNL     1       2.079   1.988  -0.452  0.00  0.00    +0.000 NA
ATOM     13  C   UNL     1       2.166   2.947   0.415  0.00  0.00    +0.000 C 
BRANCH  13  14
ATOM     14  C   UNL     1       3.181   4.011   0.283  0.00  0.00    +0.000 A 
ATOM     15  C   UNL     1       4.231   3.884  -0.632  0.00  0.00    +0.000 A 
ATOM     16  C   UNL     1       5.182   4.899  -0.741  0.00  0.00    +0.000 A 
ATOM     17  C   UNL     1       5.079   6.040   0.054  0.00  0.00    +0.000 A 
ATOM     18  C   UNL     1       4.027   6.168   0.964  0.00  0.00    +0.000 A 
ATOM     19  C   UNL     1       3.078   5.151   1.085  0.00  0.00    +0.000 A 
ENDBRANCH  13  14
ENDBRANCH   3  12
TORSDOF 3
