MODEL 1
REMARK VINA RESULT:      -3.8      0.000      0.000
REMARK  Name = *****
REMARK  7 active torsions:
REMARK  status: ('A' for Active; 'I' for Inactive)
REMARK    1  A    between atoms: C_1  and  C_2
REMARK    2  A    between atoms: C_2  and  O_3
REMARK    3  A    between atoms: O_3  and  P_4
REMARK    4  A    between atoms: P_4  and  O_5
REMARK    5  A    between atoms: P_4  and  O_12
REMARK    6  A    between atoms: O_5  and  C_6
REMARK    7  A    between atoms: O_12  and  C_13
REMARK                            x       y       z     vdW  Elec       q    Type
REMARK                         _______ _______ _______ _____ _____    ______ ____
ROOT
ATOM      1  P   UNL     1      89.629  69.235  83.836  0.00  0.00    +0.000 P 
ENDROOT
BRANCH   1   2
ATOM      2  O   UNL     1      90.677  69.671  82.682  0.00  0.00    +0.000 OA
BRANCH   2   4
ATOM      3  C   UNL     1      92.491  71.126  82.168  0.00  0.00    +0.000 C 
ATOM      4  C   UNL     1      91.056  71.043  82.655  0.00  0.00    +0.000 C 
ENDBRANCH   2   4
ENDBRANCH   1   2
BRANCH   1   5
ATOM      5  O   UNL     1      90.285  67.797  84.190  0.00  0.00    +0.000 OA
BRANCH   5   6
ATOM      6  C   UNL     1      89.465  66.836  84.858  0.00  0.00    +0.000 C 
ATOM      7  C   UNL     1      88.034  67.386  84.876  0.00  0.00    +0.000 C 
ATOM      8  C   UNL     1      87.095  66.497  85.686  0.00  0.00    +0.000 C 
ATOM      9  C   UNL     1      87.616  66.276  87.103  0.00  0.00    +0.000 C 
ATOM     10  C   UNL     1      89.045  65.739  87.101  0.00  0.00    +0.000 C 
ATOM     11  C   UNL     1      89.978  66.629  86.288  0.00  0.00    +0.000 C 
ENDBRANCH   5   6
ENDBRANCH   1   5
BRANCH   1  12
ATOM     12  O   UNL     1      90.289  70.075  85.053  0.00  0.00    +0.000 OA
BRANCH  12  13
ATOM     13  C   UNL     1      89.407  70.694  85.991  0.00  0.00    +0.000 C 
ATOM     14  C   UNL     1      89.457  69.869  87.282  0.00  0.00    +0.000 C 
ATOM     15  C   UNL     1      88.449  70.365  88.313  0.00  0.00    +0.000 C 
ATOM     16  C   UNL     1      87.034  70.401  87.740  0.00  0.00    +0.000 C 
ATOM     17  C   UNL     1      86.970  71.210  86.447  0.00  0.00    +0.000 C 
ATOM     18  C   UNL     1      87.982  70.711  85.421  0.00  0.00    +0.000 C 
ENDBRANCH  12  13
ENDBRANCH   1  12
TORSDOF 6
ENDMDL
