MODEL 1
REMARK VINA RESULT:      -4.6      0.000      0.000
REMARK  Name = *****
REMARK  2 active torsions:
REMARK  status: ('A' for Active; 'I' for Inactive)
REMARK    1  A    between atoms: C_5  and  C_7
REMARK    2  A    between atoms: N_8  and  C_9
REMARK                            x       y       z     vdW  Elec       q    Type
REMARK                         _______ _______ _______ _____ _____    ______ ____
ROOT
ATOM      1  C   UNL     1     102.767 126.070  82.294  0.00  0.00    +0.000 C 
ATOM      2  N   UNL     1     101.476 125.937  82.307  0.00  0.00    +0.000 NA
ENDROOT
BRANCH   1   7
ATOM      3  C   UNL     1     104.837 123.794  80.110  0.00  0.00    +0.000 A 
ATOM      4  C   UNL     1     105.335 122.881  81.036  0.00  0.00    +0.000 A 
ATOM      5  C   UNL     1     104.998 123.002  82.385  0.00  0.00    +0.000 A 
ATOM      6  C   UNL     1     104.160 124.038  82.815  0.00  0.00    +0.000 A 
ATOM      7  C   UNL     1     103.657 124.958  81.887  0.00  0.00    +0.000 A 
ATOM      8  C   UNL     1     104.001 124.829  80.533  0.00  0.00    +0.000 A 
ATOM      9 CL   UNL     1     103.802 124.109  84.505  0.00  0.00    +0.000 Cl
ENDBRANCH   1   7
BRANCH   2  10
ATOM     10  C   UNL     1     100.718 127.048  82.726  0.00  0.00    +0.000 A 
ATOM     11  C   UNL     1     101.390 128.120  83.321  0.00  0.00    +0.000 A 
ATOM     12  C   UNL     1     100.693 129.262  83.732  0.00  0.00    +0.000 A 
ATOM     13  C   UNL     1      99.314 129.348  83.542  0.00  0.00    +0.000 A 
ATOM     14  C   UNL     1      98.632 128.293  82.936  0.00  0.00    +0.000 A 
ATOM     15  C   UNL     1      99.333 127.160  82.529  0.00  0.00    +0.000 A 
ATOM     16  F   UNL     1      98.651 126.162  81.945  0.00  0.00    +0.000 F 
ENDBRANCH   2  10
TORSDOF 2
ENDMDL
