MODEL 1
REMARK VINA RESULT:      -4.8      0.000      0.000
REMARK  Name = *****
REMARK  6 active torsions:
REMARK  status: ('A' for Active; 'I' for Inactive)
REMARK    1  A    between atoms: C_1  and  C_2
REMARK    2  A    between atoms: C_4  and  C_19
REMARK    3  A    between atoms: C_5  and  C_9
REMARK    4  A    between atoms: C_6  and  C_8
REMARK    5  A    between atoms: C_9  and  C_10
REMARK    6  A    between atoms: C_10  and  C_12
REMARK                            x       y       z     vdW  Elec       q    Type
REMARK                         _______ _______ _______ _____ _____    ______ ____
ROOT
ATOM      1  C   UNL     1      89.745  70.539  85.211  0.00  0.00    +0.000 C 
ENDROOT
BRANCH   1   6
ATOM      2  C   UNL     1      84.379  72.054  87.014  0.00  0.00    +0.000 C 
ATOM      3  C   UNL     1      85.751  71.666  86.550  0.00  0.00    +0.000 A 
ATOM      4  C   UNL     1      86.164  71.943  85.247  0.00  0.00    +0.000 A 
ATOM      5  C   UNL     1      87.459  71.623  84.803  0.00  0.00    +0.000 A 
ATOM      6  C   UNL     1      88.358  70.960  85.676  0.00  0.00    +0.000 A 
ATOM      7  C   UNL     1      87.966  70.757  87.025  0.00  0.00    +0.000 A 
ATOM      8  C   UNL     1      86.667  71.099  87.436  0.00  0.00    +0.000 A 
ATOM      9  C   UNL     1      88.901  70.190  88.064  0.00  0.00    +0.000 C 
ATOM     10  C   UNL     1      87.816  72.004  83.389  0.00  0.00    +0.000 C 
ENDBRANCH   1   6
BRANCH   1  11
ATOM     11  C   UNL     1      89.840  69.213  84.476  0.00  0.00    +0.000 C 
ATOM     12  O   UNL     1      90.412  69.141  83.386  0.00  0.00    +0.000 OA
BRANCH  11  13
ATOM     13  C   UNL     1      89.285  67.959  85.073  0.00  0.00    +0.000 A 
ATOM     14  C   UNL     1      90.062  67.288  86.034  0.00  0.00    +0.000 A 
ATOM     15  C   UNL     1      89.596  66.114  86.630  0.00  0.00    +0.000 A 
ATOM     16  C   UNL     1      88.352  65.613  86.271  0.00  0.00    +0.000 A 
ATOM     17  C   UNL     1      87.565  66.267  85.330  0.00  0.00    +0.000 A 
ATOM     18  C   UNL     1      88.029  67.444  84.733  0.00  0.00    +0.000 A 
ATOM     19  F   UNL     1      87.902  64.489  86.841  0.00  0.00    +0.000 F 
ENDBRANCH  11  13
ENDBRANCH   1  11
TORSDOF 3
ENDMDL
