MODEL 1
REMARK VINA RESULT:      -4.9      0.000      0.000
REMARK  Name = *****
REMARK  3 active torsions:
REMARK  status: ('A' for Active; 'I' for Inactive)
REMARK    1  A    between atoms: C_1  and  C_2
REMARK    2  A    between atoms: C_7  and  C_8
REMARK    3  A    between atoms: C_10  and  C_12
REMARK                            x       y       z     vdW  Elec       q    Type
REMARK                         _______ _______ _______ _____ _____    ______ ____
ROOT
ATOM      1  C   UNL     1     106.348 122.427  80.440  0.00  0.00    +0.000 C 
ATOM      2  C   UNL     1     105.358 123.145  81.320  0.00  0.00    +0.000 A 
ATOM      3  C   UNL     1     104.529 124.131  80.739  0.00  0.00    +0.000 A 
ATOM      4  C   UNL     1     103.605 124.802  81.547  0.00  0.00    +0.000 A 
ATOM      5  C   UNL     1     103.534 124.477  82.888  0.00  0.00    +0.000 A 
ATOM      6  C   UNL     1     104.320 123.519  83.514  0.00  0.00    +0.000 A 
ATOM      7  C   UNL     1     105.250 122.841  82.700  0.00  0.00    +0.000 A 
ATOM      8  C   UNL     1     106.126 121.791  83.334  0.00  0.00    +0.000 C 
ATOM      9  O   UNL     1     102.571 125.257  83.457  0.00  0.00    +0.000 OA
ATOM     10  C   UNL     1     102.104 126.021  82.415  0.00  0.00    +0.000 A 
ATOM     11  N   UNL     1     102.692 125.783  81.254  0.00  0.00    +0.000 NA
ENDROOT
BRANCH  10  12
ATOM     12  C   UNL     1     101.039 126.973  82.725  0.00  0.00    +0.000 A 
ATOM     13  C   UNL     1      99.702 126.737  82.367  0.00  0.00    +0.000 A 
ATOM     14  C   UNL     1      98.705 127.668  82.676  0.00  0.00    +0.000 A 
ATOM     15  C   UNL     1      99.031 128.844  83.346  0.00  0.00    +0.000 A 
ATOM     16  C   UNL     1     100.353 129.094  83.709  0.00  0.00    +0.000 A 
ATOM     17  C   UNL     1     101.349 128.164  83.400  0.00  0.00    +0.000 A 
ENDBRANCH  10  12
TORSDOF 1
ENDMDL
