MODEL 1
REMARK VINA RESULT:      -4.9      0.000      0.000
REMARK  Name = *****
REMARK  3 active torsions:
REMARK  status: ('A' for Active; 'I' for Inactive)
REMARK    1  A    between atoms: C_4  and  C_7
REMARK    2  A    between atoms: C_8  and  C_9
REMARK    3  A    between atoms: C_14  and  N_15
REMARK                            x       y       z     vdW  Elec       q    Type
REMARK                         _______ _______ _______ _____ _____    ______ ____
ROOT
ATOM      1  C   UNL     1     101.092 127.868  83.225  0.00  0.00    +0.000 A 
ATOM      2  C   UNL     1     101.679 128.924  83.941  0.00  0.00    +0.000 A 
ATOM      3  C   UNL     1     100.923 130.031  84.331  0.00  0.00    +0.000 A 
ATOM      4  C   UNL     1      99.574 130.105  83.997  0.00  0.00    +0.000 A 
ATOM      5  C   UNL     1      98.979 129.069  83.277  0.00  0.00    +0.000 A 
ATOM      6  C   UNL     1      99.717 127.936  82.896  0.00  0.00    +0.000 A 
ENDROOT
BRANCH   6   7
ATOM      7  N   UNL     1      99.074 126.927  82.150  0.00  0.00    +0.000 NA
ATOM      8  C   UNL     1      98.066 126.593  82.651  0.00  0.00    +0.000 C 
ATOM      9  O   UNL     1      97.048 126.261  83.141  0.00  0.00    +0.000 OA
ENDBRANCH   6   7
BRANCH   1  11
ATOM     10  C   UNL     1     102.682 126.773  81.671  0.00  0.00    +0.000 C 
ATOM     11  C   UNL     1     101.918 126.735  82.775  0.00  0.00    +0.000 C 
BRANCH  10  15
ATOM     12  C   UNL     1     105.186 123.517  80.476  0.00  0.00    +0.000 A 
ATOM     13  C   UNL     1     105.058 124.625  79.643  0.00  0.00    +0.000 A 
ATOM     14  C   UNL     1     104.239 125.693  80.017  0.00  0.00    +0.000 A 
ATOM     15  C   UNL     1     103.529 125.658  81.225  0.00  0.00    +0.000 A 
ATOM     16  C   UNL     1     103.679 124.544  82.063  0.00  0.00    +0.000 A 
ATOM     17  C   UNL     1     104.498 123.477  81.687  0.00  0.00    +0.000 A 
ENDBRANCH  10  15
ENDBRANCH   1  11
TORSDOF 3
ENDMDL
