MODEL 1
REMARK VINA RESULT:      -4.7      0.000      0.000
REMARK  Name = *****
REMARK  6 active torsions:
REMARK  status: ('A' for Active; 'I' for Inactive)
REMARK    1  A    between atoms: C_1  and  C_2
REMARK    2  A    between atoms: C_3  and  C_18
REMARK    3  A    between atoms: C_4  and  C_8
REMARK    4  A    between atoms: C_8  and  C_10
REMARK    5  A    between atoms: C_10  and  C_11
REMARK    6  A    between atoms: C_11  and  C_12
REMARK                            x       y       z     vdW  Elec       q    Type
REMARK                         _______ _______ _______ _____ _____    ______ ____
ROOT
ATOM      1  C   UNL     1      89.456  70.066  86.487  0.00  0.00    +0.000 C 
ATOM      2  O   UNL     1      90.055  70.856  85.763  0.00  0.00    +0.000 OA
ENDROOT
BRANCH   1   6
ATOM      3  C   UNL     1      84.846  72.000  87.452  0.00  0.00    +0.000 C 
ATOM      4  C   UNL     1      86.192  71.476  87.880  0.00  0.00    +0.000 A 
ATOM      5  C   UNL     1      87.176  71.081  86.941  0.00  0.00    +0.000 A 
ATOM      6  C   UNL     1      88.403  70.566  87.421  0.00  0.00    +0.000 A 
ATOM      7  C   UNL     1      88.655  70.488  88.799  0.00  0.00    +0.000 A 
ATOM      8  C   UNL     1      87.695  70.912  89.711  0.00  0.00    +0.000 A 
ATOM      9  C   UNL     1      86.474  71.400  89.254  0.00  0.00    +0.000 A 
ATOM     10  C   UNL     1      86.907  71.171  85.459  0.00  0.00    +0.000 C 
ENDBRANCH   1   6
BRANCH   1  11
ATOM     11  C   UNL     1      89.713  68.573  86.454  0.00  0.00    +0.000 C 
BRANCH  11  12
ATOM     12  C   UNL     1      88.459  67.810  86.033  0.00  0.00    +0.000 C 
BRANCH  12  13
ATOM     13  C   UNL     1      87.969  66.907  87.138  0.00  0.00    +0.000 A 
ATOM     14  C   UNL     1      86.889  67.293  87.943  0.00  0.00    +0.000 A 
ATOM     15  C   UNL     1      86.449  66.468  88.980  0.00  0.00    +0.000 A 
ATOM     16  C   UNL     1      87.088  65.253  89.224  0.00  0.00    +0.000 A 
ATOM     17  C   UNL     1      88.167  64.863  88.432  0.00  0.00    +0.000 A 
ATOM     18  C   UNL     1      88.608  65.686  87.394  0.00  0.00    +0.000 A 
ENDBRANCH  12  13
ENDBRANCH  11  12
ENDBRANCH   1  11
TORSDOF 4
ENDMDL
