REMARK  Name = *****
REMARK  3 active torsions:
REMARK  status: ('A' for Active; 'I' for Inactive)
REMARK    1  A    between atoms: C_1  and  C_2
REMARK    2  A    between atoms: C_10  and  C_11
REMARK    3  A    between atoms: C_11  and  C_12
REMARK                            x       y       z     vdW  Elec       q    Type
REMARK                         _______ _______ _______ _____ _____    ______ ____
ROOT
ATOM      1  C   UNL     1      -3.478   0.462   0.140  0.00  0.00    +0.000 C 
ATOM      2  C   UNL     1      -2.000   0.299   0.061  0.00  0.00    +0.000 C 
ATOM      3  C   UNL     1      -1.102   1.298   0.134  0.00  0.00    +0.000 C 
ATOM      4  C   UNL     1       0.225   0.714   0.105  0.00  0.00    +0.000 A 
ATOM      5  C   UNL     1       1.459   1.335   0.168  0.00  0.00    +0.000 A 
ATOM      6  C   UNL     1       2.604   0.535   0.144  0.00  0.00    +0.000 A 
ATOM      7  C   UNL     1       2.499  -0.863   0.064  0.00  0.00    +0.000 A 
ATOM      8  C   UNL     1       1.248  -1.482   0.003  0.00  0.00    +0.000 A 
ATOM      9  C   UNL     1       0.117  -0.679   0.016  0.00  0.00    +0.000 A 
ATOM     10  C   UNL     1      -1.342  -1.079  -0.035  0.00  0.00    +0.000 C 
ENDROOT
BRANCH  10  11
ATOM     11  C   UNL     1      -1.662  -1.864  -1.323  0.00  0.00    +0.000 C 
BRANCH  11  12
ATOM     12  C   UNL     1      -3.022  -2.527  -1.341  0.00  0.00    +0.000 A 
ATOM     13  C   UNL     1      -3.941  -2.227  -2.356  0.00  0.00    +0.000 A 
ATOM     14  C   UNL     1      -5.192  -2.846  -2.388  0.00  0.00    +0.000 A 
ATOM     15  C   UNL     1      -5.534  -3.779  -1.411  0.00  0.00    +0.000 A 
ATOM     16  C   UNL     1      -4.624  -4.097  -0.406  0.00  0.00    +0.000 A 
ATOM     17  C   UNL     1      -3.372  -3.480  -0.373  0.00  0.00    +0.000 A 
ENDBRANCH  11  12
ENDBRANCH  10  11
TORSDOF 2
