MODEL 1
REMARK VINA RESULT:      -4.6      0.000      0.000
REMARK  Name = *****
REMARK  3 active torsions:
REMARK  status: ('A' for Active; 'I' for Inactive)
REMARK    1  A    between atoms: C_6  and  O_7
REMARK    2  A    between atoms: O_7  and  C_8
REMARK    3  A    between atoms: C_8  and  C_9
REMARK                            x       y       z     vdW  Elec       q    Type
REMARK                         _______ _______ _______ _____ _____    ______ ____
ROOT
ATOM      1  C   UNL     1     102.523 125.708  82.887  0.00  0.00    +0.000 C 
ENDROOT
BRANCH   1   2
ATOM      2  C   UNL     1     103.466 125.399  81.747  0.00  0.00    +0.000 A 
ATOM      3  C   UNL     1     103.966 124.098  81.578  0.00  0.00    +0.000 A 
ATOM      4  C   UNL     1     104.847 123.801  80.532  0.00  0.00    +0.000 A 
ATOM      5  C   UNL     1     105.238 124.808  79.645  0.00  0.00    +0.000 A 
ATOM      6  C   UNL     1     104.744 126.105  79.807  0.00  0.00    +0.000 A 
ATOM      7  C   UNL     1     103.864 126.400  80.852  0.00  0.00    +0.000 A 
ATOM      8 CL   UNL     1     106.323 124.519  78.331  0.00  0.00    +0.000 Cl
ATOM      9 CL   UNL     1     105.414 122.174  80.396  0.00  0.00    +0.000 Cl
ENDBRANCH   1   2
BRANCH   1  10
ATOM     10  O   UNL     1     101.218 125.907  82.348  0.00  0.00    +0.000 OA
BRANCH  10  16
ATOM     11  C   UNL     1      99.194 127.298  82.546  0.00  0.00    +0.000 A 
ATOM     12  C   UNL     1      98.647 128.511  82.979  0.00  0.00    +0.000 A 
ATOM     13  C   UNL     1      99.465 129.461  83.582  0.00  0.00    +0.000 A 
ATOM     14  C   UNL     1     100.819 129.222  83.762  0.00  0.00    +0.000 A 
ATOM     15  C   UNL     1     101.364 128.011  83.331  0.00  0.00    +0.000 A 
ATOM     16  C   UNL     1     100.556 127.044  82.721  0.00  0.00    +0.000 A 
ATOM     17  F   UNL     1      98.936 130.619  83.994  0.00  0.00    +0.000 F 
ENDBRANCH  10  16
ENDBRANCH   1  10
TORSDOF 3
ENDMDL
