MODEL 1
REMARK VINA RESULT:      -4.9      0.000      0.000
REMARK  Name = *****
REMARK  1 active torsions:
REMARK  status: ('A' for Active; 'I' for Inactive)
REMARK    1  A    between atoms: C_9  and  C_11
REMARK                            x       y       z     vdW  Elec       q    Type
REMARK                         _______ _______ _______ _____ _____    ______ ____
ROOT
ATOM      1  C   UNL     1     102.809 128.095  83.406  0.00  0.00    +0.000 C 
ATOM      2  C   UNL     1     101.326 128.093  83.245  0.00  0.00    +0.000 A 
ATOM      3  C   UNL     1     100.539 129.167  83.685  0.00  0.00    +0.000 A 
ATOM      4  C   UNL     1      99.156 129.142  83.503  0.00  0.00    +0.000 A 
ATOM      5  C   UNL     1      98.560 128.050  82.876  0.00  0.00    +0.000 A 
ATOM      6  C   UNL     1      99.348 126.987  82.434  0.00  0.00    +0.000 A 
ATOM      7  C   UNL     1     100.732 127.003  82.615  0.00  0.00    +0.000 A 
ATOM      8  N   UNL     1     101.489 125.921  82.170  0.00  0.00    +0.000 NA
ATOM      9  C   UNL     1     102.755 125.897  82.427  0.00  0.00    +0.000 C 
ATOM     10  O   UNL     1     103.457 126.857  83.073  0.00  0.00    +0.000 OA
ENDROOT
BRANCH   9  11
ATOM     11  C   UNL     1     103.638 124.771  82.027  0.00  0.00    +0.000 A 
ATOM     12  C   UNL     1     104.078 123.873  83.009  0.00  0.00    +0.000 A 
ATOM     13  C   UNL     1     104.912 122.805  82.670  0.00  0.00    +0.000 A 
ATOM     14  C   UNL     1     105.314 122.629  81.347  0.00  0.00    +0.000 A 
ATOM     15  C   UNL     1     104.885 123.517  80.363  0.00  0.00    +0.000 A 
ATOM     16  C   UNL     1     104.049 124.586  80.698  0.00  0.00    +0.000 A 
ENDBRANCH   9  11
TORSDOF 1
ENDMDL
