MODEL 1
REMARK VINA RESULT:      -4.6      0.000      0.000
REMARK  Name = *****
REMARK  2 active torsions:
REMARK  status: ('A' for Active; 'I' for Inactive)
REMARK    1  A    between atoms: C_6  and  N_7
REMARK    2  A    between atoms: C_8  and  C_9
REMARK                            x       y       z     vdW  Elec       q    Type
REMARK                         _______ _______ _______ _____ _____    ______ ____
ROOT
ATOM      1  N   UNL     1      86.278  61.390  88.793  0.00  0.00    +0.000 NA
ATOM      2  C   UNL     1      85.833  61.354  90.012  0.00  0.00    +0.000 C 
ENDROOT
BRANCH   2   3
ATOM      3  C   UNL     1      85.012  60.224  90.502  0.00  0.00    +0.000 A 
ATOM      4  C   UNL     1      83.613  60.295  90.556  0.00  0.00    +0.000 A 
ATOM      5  C   UNL     1      82.874  59.204  91.026  0.00  0.00    +0.000 A 
ATOM      6  C   UNL     1      83.530  58.046  91.441  0.00  0.00    +0.000 A 
ATOM      7  C   UNL     1      84.919  57.964  91.391  0.00  0.00    +0.000 A 
ATOM      8  C   UNL     1      85.659  59.052  90.922  0.00  0.00    +0.000 A 
ATOM      9 CL   UNL     1      82.616  56.709  92.019  0.00  0.00    +0.000 Cl
ATOM     10 CL   UNL     1      82.724  61.691  90.058  0.00  0.00    +0.000 Cl
ENDBRANCH   2   3
BRANCH   1  16
ATOM     11  C   UNL     1      87.647  63.288  89.448  0.00  0.00    +0.000 A 
ATOM     12  C   UNL     1      88.396  64.416  89.106  0.00  0.00    +0.000 A 
ATOM     13  C   UNL     1      88.526  64.769  87.768  0.00  0.00    +0.000 A 
ATOM     14  C   UNL     1      87.920  64.018  86.766  0.00  0.00    +0.000 A 
ATOM     15  C   UNL     1      87.173  62.890  87.112  0.00  0.00    +0.000 A 
ATOM     16  C   UNL     1      87.044  62.513  88.452  0.00  0.00    +0.000 A 
ATOM     17  F   UNL     1      89.242  65.852  87.437  0.00  0.00    +0.000 F 
ENDBRANCH   1  16
TORSDOF 2
ENDMDL
