MODEL 1
REMARK VINA RESULT:      -4.9      0.000      0.000
REMARK  Name = *****
REMARK  4 active torsions:
REMARK  status: ('A' for Active; 'I' for Inactive)
REMARK    1  A    between atoms: C_6  and  N_7
REMARK    2  A    between atoms: N_7  and  O_18
REMARK    3  A    between atoms: C_8  and  O_10
REMARK    4  A    between atoms: O_10  and  C_11
REMARK                            x       y       z     vdW  Elec       q    Type
REMARK                         _______ _______ _______ _____ _____    ______ ____
ROOT
ATOM      1  N   UNL     1      89.770  66.806  86.199  0.00  0.00    +0.000 N 
ATOM      2  C   UNL     1      88.689  66.012  86.569  0.00  0.00    +0.000 C 
ATOM      3  O   UNL     1      87.507  66.338  86.579  0.00  0.00    +0.000 OA
ENDROOT
BRANCH   1   9
ATOM      4  C   UNL     1      89.881  68.451  84.392  0.00  0.00    +0.000 A 
ATOM      5  C   UNL     1      89.872  69.771  83.923  0.00  0.00    +0.000 A 
ATOM      6  C   UNL     1      89.734  70.821  84.822  0.00  0.00    +0.000 A 
ATOM      7  C   UNL     1      89.607  70.560  86.182  0.00  0.00    +0.000 A 
ATOM      8  C   UNL     1      89.617  69.238  86.647  0.00  0.00    +0.000 A 
ATOM      9  C   UNL     1      89.755  68.158  85.762  0.00  0.00    +0.000 A 
ATOM     10 CL   UNL     1      89.722  72.443  84.253  0.00  0.00    +0.000 Cl
ENDBRANCH   1   9
BRANCH   1  11
ATOM     11  O   UNL     1      91.063  66.218  86.268  0.00  0.00    +0.000 OA
ATOM     12  H   UNL     1      91.545  66.398  85.445  0.00  0.00    +0.000 HD
ENDBRANCH   1  11
BRANCH   2  13
ATOM     13  O   UNL     1      89.135  64.737  86.949  0.00  0.00    +0.000 OA
BRANCH  13  14
ATOM     14  C   UNL     1      88.295  64.056  87.835  0.00  0.00    +0.000 A 
ATOM     15  C   UNL     1      87.450  63.074  87.322  0.00  0.00    +0.000 A 
ATOM     16  C   UNL     1      86.640  62.349  88.197  0.00  0.00    +0.000 A 
ATOM     17  C   UNL     1      86.699  62.605  89.569  0.00  0.00    +0.000 A 
ATOM     18  C   UNL     1      87.563  63.577  90.075  0.00  0.00    +0.000 A 
ATOM     19  C   UNL     1      88.375  64.305  89.205  0.00  0.00    +0.000 A 
ATOM     20 CL   UNL     1      85.702  61.706  90.646  0.00  0.00    +0.000 Cl
ENDBRANCH  13  14
ENDBRANCH   2  13
TORSDOF 4
ENDMDL
