REMARK  Name = *****
REMARK  5 active torsions:
REMARK  status: ('A' for Active; 'I' for Inactive)
REMARK    1  A    between atoms: C_1  and  C_2
REMARK    2  A    between atoms: C_3  and  C_16
REMARK    3  A    between atoms: C_6  and  C_8
REMARK    4  A    between atoms: C_8  and  C_9
REMARK    5  A    between atoms: C_9  and  C_10
REMARK                            x       y       z     vdW  Elec       q    Type
REMARK                         _______ _______ _______ _____ _____    ______ ____
ROOT
ATOM      1  C   UNL     1       0.942  -0.123   0.031  0.00  0.00    +0.000 C 
ATOM      2  C   UNL     1       2.437  -0.144  -0.119  0.00  0.00    +0.000 C 
ATOM      3  C   UNL     1       3.284   0.864   0.184  0.00  0.00    +0.000 C 
ATOM      4  C   UNL     1       4.775   0.757  -0.078  0.00  0.00    +0.000 C 
ATOM      5  O   UNL     1       5.153  -0.383  -0.853  0.00  0.00    +0.000 OA
ATOM      6  C   UNL     1       4.494  -1.595  -0.466  0.00  0.00    +0.000 C 
ATOM      7  C   UNL     1       2.986  -1.429  -0.698  0.00  0.00    +0.000 C 
ATOM      8  C   UNL     1       2.886   2.176   0.803  0.00  0.00    +0.000 C 
ENDROOT
BRANCH   6   9
ATOM      9  C   UNL     1       4.902  -2.026   0.955  0.00  0.00    +0.000 C 
BRANCH   9  10
ATOM     10  C   UNL     1       4.446  -3.445   1.302  0.00  0.00    +0.000 C 
BRANCH  10  11
ATOM     11  C   UNL     1       4.994  -3.894   2.634  0.00  0.00    +0.000 A 
ATOM     12  C   UNL     1       4.349  -3.535   3.825  0.00  0.00    +0.000 A 
ATOM     13  C   UNL     1       4.865  -3.939   5.058  0.00  0.00    +0.000 A 
ATOM     14  C   UNL     1       6.031  -4.700   5.111  0.00  0.00    +0.000 A 
ATOM     15  C   UNL     1       6.684  -5.057   3.932  0.00  0.00    +0.000 A 
ATOM     16  C   UNL     1       6.169  -4.654   2.699  0.00  0.00    +0.000 A 
ENDBRANCH  10  11
ENDBRANCH   9  10
ENDBRANCH   6   9
TORSDOF 3
