MODEL 1
REMARK VINA RESULT:      -5.1      0.000      0.000
REMARK  Name = *****
REMARK  3 active torsions:
REMARK  status: ('A' for Active; 'I' for Inactive)
REMARK    1  A    between atoms: C_1  and  C_2
REMARK    2  A    between atoms: C_9  and  C_11
REMARK    3  A    between atoms: C_14  and  C_17
REMARK                            x       y       z     vdW  Elec       q    Type
REMARK                         _______ _______ _______ _____ _____    ______ ____
ROOT
ATOM      1  C   UNL     1      99.405 130.795  84.420  0.00  0.00    +0.000 C 
ATOM      2  C   UNL     1      99.822 129.508  83.769  0.00  0.00    +0.000 A 
ATOM      3  C   UNL     1     101.176 129.119  83.789  0.00  0.00    +0.000 A 
ATOM      4  C   UNL     1     101.532 127.898  83.200  0.00  0.00    +0.000 A 
ATOM      5  C   UNL     1     100.541 127.113  82.634  0.00  0.00    +0.000 A 
ATOM      6  C   UNL     1      99.194 127.442  82.600  0.00  0.00    +0.000 A 
ATOM      7  C   UNL     1      98.852 128.667  83.192  0.00  0.00    +0.000 A 
ATOM      8  O   UNL     1     101.132 125.989  82.137  0.00  0.00    +0.000 OA
ATOM      9  C   UNL     1     102.464 126.156  82.431  0.00  0.00    +0.000 A 
ATOM     10  N   UNL     1     102.749 127.279  83.068  0.00  0.00    +0.000 NA
ENDROOT
BRANCH   9  11
ATOM     11  C   UNL     1     103.366 125.087  82.009  0.00  0.00    +0.000 A 
ATOM     12  C   UNL     1     103.788 124.949  80.678  0.00  0.00    +0.000 A 
ATOM     13  C   UNL     1     104.653 123.916  80.303  0.00  0.00    +0.000 A 
ATOM     14  C   UNL     1     105.111 122.990  81.251  0.00  0.00    +0.000 A 
ATOM     15  C   UNL     1     104.702 123.129  82.583  0.00  0.00    +0.000 A 
ATOM     16  C   UNL     1     103.837 124.164  82.955  0.00  0.00    +0.000 A 
BRANCH  14  17
ATOM     17  C   UNL     1     106.050 121.887  80.851  0.00  0.00    +0.000 C 
ATOM     18 CL   UNL     1     107.540 122.558  80.158  0.00  0.00    +0.000 Cl
ENDBRANCH  14  17
ENDBRANCH   9  11
TORSDOF 2
ENDMDL
