MODEL 1
REMARK VINA RESULT:      -4.4      0.000      0.000
REMARK  Name = *****
REMARK  4 active torsions:
REMARK  status: ('A' for Active; 'I' for Inactive)
REMARK    1  A    between atoms: C_4  and  O_7
REMARK    2  A    between atoms: O_7  and  P_8
REMARK    3  A    between atoms: P_8  and  O_9
REMARK    4  A    between atoms: O_9  and  C_10
REMARK                            x       y       z     vdW  Elec       q    Type
REMARK                         _______ _______ _______ _____ _____    ______ ____
ROOT
ATOM      1  P   UNL     1     103.300 126.046  81.868  0.00  0.00    +0.000 P 
ATOM      2 CL   UNL     1     103.421 127.478  80.336  0.00  0.00    +0.000 Cl
ENDROOT
BRANCH   1   3
ATOM      3  O   UNL     1     101.694 125.903  81.970  0.00  0.00    +0.000 OA
BRANCH   3   7
ATOM      4  C   UNL     1      99.235 128.878  83.537  0.00  0.00    +0.000 A 
ATOM      5  C   UNL     1      98.639 127.811  82.866  0.00  0.00    +0.000 A 
ATOM      6  C   UNL     1      99.427 126.791  82.324  0.00  0.00    +0.000 A 
ATOM      7  C   UNL     1     100.818 126.842  82.449  0.00  0.00    +0.000 A 
ATOM      8  C   UNL     1     101.408 127.910  83.131  0.00  0.00    +0.000 A 
ATOM      9  C   UNL     1     100.620 128.927  83.671  0.00  0.00    +0.000 A 
ENDBRANCH   3   7
ENDBRANCH   1   3
BRANCH   1  10
ATOM     10  O   UNL     1     103.594 124.719  80.996  0.00  0.00    +0.000 OA
BRANCH  10  11
ATOM     11  C   UNL     1     104.297 123.612  81.398  0.00  0.00    +0.000 A 
ATOM     12  C   UNL     1     104.353 123.415  82.781  0.00  0.00    +0.000 A 
ATOM     13  C   UNL     1     105.034 122.320  83.314  0.00  0.00    +0.000 A 
ATOM     14  C   UNL     1     105.659 121.411  82.464  0.00  0.00    +0.000 A 
ATOM     15  C   UNL     1     105.603 121.598  81.083  0.00  0.00    +0.000 A 
ATOM     16  C   UNL     1     104.922 122.696  80.549  0.00  0.00    +0.000 A 
ENDBRANCH  10  11
ENDBRANCH   1  10
TORSDOF 4
ENDMDL
