REMARK  Name = *****
REMARK  3 active torsions:
REMARK  status: ('A' for Active; 'I' for Inactive)
REMARK    1  A    between atoms: C_1  and  C_2
REMARK    2  A    between atoms: C_3  and  C_17
REMARK    3  A    between atoms: C_9  and  C_11
REMARK                            x       y       z     vdW  Elec       q    Type
REMARK                         _______ _______ _______ _____ _____    ______ ____
ROOT
ATOM      1  C   UNL     1       0.965   0.129  -0.215  0.00  0.00    +0.000 C 
ATOM      2  C   UNL     1       2.444   0.047   0.070  0.00  0.00    +0.000 C 
ATOM      3  C   UNL     1       3.150  -1.116   0.196  0.00  0.00    +0.000 C 
ATOM      4  C   UNL     1       4.668  -1.139   0.462  0.00  0.00    +0.000 C 
ATOM      5  C   UNL     1       5.218   0.219   0.567  0.00  0.00    +0.000 A 
ATOM      6  C   UNL     1       4.533   1.394   0.453  0.00  0.00    +0.000 A 
ATOM      7  C   UNL     1       3.077   1.454   0.193  0.00  0.00    +0.000 C 
ATOM      8  N   UNL     1       5.390   2.447   0.613  0.00  0.00    +0.000 NA
ATOM      9  C   UNL     1       6.565   1.864   0.818  0.00  0.00    +0.000 A 
ATOM     10  O   UNL     1       6.526   0.482   0.802  0.00  0.00    +0.000 OA
ATOM     11  C   UNL     1       2.568  -2.503   0.108  0.00  0.00    +0.000 C 
ENDROOT
BRANCH   9  12
ATOM     12  C   UNL     1       7.869   2.480   1.055  0.00  0.00    +0.000 A 
ATOM     13  C   UNL     1       7.977   3.879   1.087  0.00  0.00    +0.000 A 
ATOM     14  C   UNL     1       9.210   4.498   1.311  0.00  0.00    +0.000 A 
ATOM     15  C   UNL     1      10.352   3.725   1.507  0.00  0.00    +0.000 A 
ATOM     16  C   UNL     1      10.262   2.334   1.479  0.00  0.00    +0.000 A 
ATOM     17  C   UNL     1       9.029   1.716   1.254  0.00  0.00    +0.000 A 
ENDBRANCH   9  12
TORSDOF 1
