MODEL 1
REMARK VINA RESULT:      -4.3      0.000      0.000
REMARK  Name = *****
REMARK  2 active torsions:
REMARK  status: ('A' for Active; 'I' for Inactive)
REMARK    1  A    between atoms: C_4  and  C_7
REMARK    2  A    between atoms: C_8  and  C_9
REMARK                            x       y       z     vdW  Elec       q    Type
REMARK                         _______ _______ _______ _____ _____    ______ ____
ROOT
ATOM      1  C   UNL     1     102.105 126.020  82.244  0.00  0.00    +0.000 C 
ATOM      2  C   UNL     1     102.907 126.204  81.181  0.00  0.00    +0.000 C 
ENDROOT
BRANCH   1   6
ATOM      3  C   UNL     1      99.066 128.809  83.377  0.00  0.00    +0.000 A 
ATOM      4  C   UNL     1     100.396 129.084  83.683  0.00  0.00    +0.000 A 
ATOM      5  C   UNL     1     101.399 128.178  83.326  0.00  0.00    +0.000 A 
ATOM      6  C   UNL     1     101.079 126.984  82.667  0.00  0.00    +0.000 A 
ATOM      7  C   UNL     1      99.738 126.727  82.350  0.00  0.00    +0.000 A 
ATOM      8  C   UNL     1      98.736 127.633  82.707  0.00  0.00    +0.000 A 
ENDBRANCH   1   6
BRANCH   2   9
ATOM      9  C   UNL     1     103.938 125.277  80.758  0.00  0.00    +0.000 A 
ATOM     10  C   UNL     1     104.728 125.482  79.695  0.00  0.00    +0.000 A 
ATOM     11  C   UNL     1     105.757 124.459  79.413  0.00  0.00    +0.000 A 
ATOM     12  S   UNL     1     106.859 124.537  78.160  0.00  0.00    +0.000 S 
ATOM     13  S   UNL     1     105.685 123.118  80.542  0.00  0.00    +0.000 S 
ATOM     14  S   UNL     1     104.225 123.880  81.747  0.00  0.00    +0.000 S 
ENDBRANCH   2   9
TORSDOF 2
ENDMDL
