MODEL 1
REMARK VINA RESULT:      -4.3      0.000      0.000
REMARK  Name = *****
REMARK  3 active torsions:
REMARK  status: ('A' for Active; 'I' for Inactive)
REMARK    1  A    between atoms: C_5  and  C_7
REMARK    2  A    between atoms: C_7  and  O_9
REMARK    3  A    between atoms: O_9  and  C_10
REMARK                            x       y       z     vdW  Elec       q    Type
REMARK                         _______ _______ _______ _____ _____    ______ ____
ROOT
ATOM      1  C   UNL     1      88.520  70.441  85.849  0.00  0.00    +0.000 C 
ATOM      2  O   UNL     1      89.639  70.901  86.007  0.00  0.00    +0.000 OA
ENDROOT
BRANCH   1   7
ATOM      3  C   UNL     1      85.170  72.072  86.239  0.00  0.00    +0.000 A 
ATOM      4  C   UNL     1      85.000  72.078  87.622  0.00  0.00    +0.000 A 
ATOM      5  C   UNL     1      85.980  71.525  88.451  0.00  0.00    +0.000 A 
ATOM      6  C   UNL     1      87.142  70.973  87.900  0.00  0.00    +0.000 A 
ATOM      7  C   UNL     1      87.324  70.992  86.513  0.00  0.00    +0.000 A 
ATOM      8  C   UNL     1      86.327  71.526  85.683  0.00  0.00    +0.000 A 
ATOM      9 CL   UNL     1      88.268  70.241  88.986  0.00  0.00    +0.000 Cl
ENDBRANCH   1   7
BRANCH   1  10
ATOM     10  O   UNL     1      88.155  69.288  85.182  0.00  0.00    +0.000 OA
BRANCH  10  11
ATOM     11  C   UNL     1      88.333  68.099  85.900  0.00  0.00    +0.000 A 
ATOM     12  C   UNL     1      87.201  67.519  86.471  0.00  0.00    +0.000 A 
ATOM     13  C   UNL     1      87.322  66.305  87.147  0.00  0.00    +0.000 A 
ATOM     14  C   UNL     1      88.569  65.680  87.231  0.00  0.00    +0.000 A 
ATOM     15  C   UNL     1      89.694  66.255  86.639  0.00  0.00    +0.000 A 
ATOM     16  C   UNL     1      89.576  67.469  85.960  0.00  0.00    +0.000 A 
ATOM     17 CL   UNL     1      88.716  64.181  88.063  0.00  0.00    +0.000 Cl
ENDBRANCH  10  11
ENDBRANCH   1  10
TORSDOF 3
ENDMDL
