MODEL 1
REMARK VINA RESULT:      -4.7      0.000      0.000
REMARK  Name = *****
REMARK  6 active torsions:
REMARK  status: ('A' for Active; 'I' for Inactive)
REMARK    1  A    between atoms: C_1  and  C_2
REMARK    2  A    between atoms: C_5  and  C_8
REMARK    3  A    between atoms: C_8  and  O_9
REMARK    4  A    between atoms: O_9  and  C_10
REMARK    5  A    between atoms: C_11  and  N_17
REMARK    6  A    between atoms: C_13  and  C_16
REMARK                            x       y       z     vdW  Elec       q    Type
REMARK                         _______ _______ _______ _____ _____    ______ ____
ROOT
ATOM      1  O   UNL     1     101.578 126.764  82.703  0.00  0.00    +0.000 OA
ENDROOT
BRANCH   1   2
ATOM      2  C   UNL     1     101.222 127.947  83.276  0.00  0.00    +0.000 A 
ATOM      3  C   UNL     1      99.860 128.249  83.219  0.00  0.00    +0.000 A 
ATOM      4  C   UNL     1      99.332 129.426  83.760  0.00  0.00    +0.000 A 
ATOM      5  C   UNL     1     100.196 130.337  84.373  0.00  0.00    +0.000 A 
ATOM      6  C   UNL     1     101.563 130.032  84.449  0.00  0.00    +0.000 A 
ATOM      7  C   UNL     1     102.076 128.849  83.901  0.00  0.00    +0.000 A 
ATOM      8  C   UNL     1      99.667 131.596  84.999  0.00  0.00    +0.000 C 
BRANCH   3   9
ATOM      9  N   UNL     1      99.017 127.336  82.600  0.00  0.00    +0.000 NA
ATOM     10  N   UNL     1      98.318 126.640  82.141  0.00  0.00    +0.000 NA
ENDBRANCH   3   9
ENDBRANCH   1   2
BRANCH   1  11
ATOM     11  C   UNL     1     102.527 126.797  81.629  0.00  0.00    +0.000 C 
BRANCH  11  16
ATOM     12  C   UNL     1     105.468 121.775  81.844  0.00  0.00    +0.000 C 
ATOM     13  C   UNL     1     104.734 123.084  81.791  0.00  0.00    +0.000 A 
ATOM     14  C   UNL     1     104.167 123.624  82.950  0.00  0.00    +0.000 A 
ATOM     15  C   UNL     1     103.449 124.821  82.896  0.00  0.00    +0.000 A 
ATOM     16  C   UNL     1     103.274 125.492  81.679  0.00  0.00    +0.000 A 
ATOM     17  C   UNL     1     103.838 124.947  80.518  0.00  0.00    +0.000 A 
ATOM     18  C   UNL     1     104.554 123.749  80.573  0.00  0.00    +0.000 A 
ENDBRANCH  11  16
ENDBRANCH   1  11
TORSDOF 4
ENDMDL
