MODEL 1
REMARK VINA RESULT:      -4.6      0.000      0.000
REMARK  Name = *****
REMARK  4 active torsions:
REMARK  status: ('A' for Active; 'I' for Inactive)
REMARK    1  A    between atoms: C_4  and  N_7
REMARK    2  A    between atoms: N_7  and  S_8
REMARK    3  A    between atoms: S_8  and  C_10
REMARK    4  A    between atoms: S_8  and  C_16
REMARK                            x       y       z     vdW  Elec       q    Type
REMARK                         _______ _______ _______ _____ _____    ______ ____
ROOT
ATOM      1  S   UNL     1      88.170  69.627  85.718  0.00  0.00    +0.000 S 
ATOM      2  O   UNL     1      87.720  69.315  84.367  0.00  0.00    +0.000 OA
ENDROOT
BRANCH   1   3
ATOM      3  C   UNL     1      86.888  70.663  86.432  0.00  0.00    +0.000 A 
ATOM      4  C   UNL     1      86.804  70.795  87.822  0.00  0.00    +0.000 A 
ATOM      5  C   UNL     1      85.804  71.596  88.375  0.00  0.00    +0.000 A 
ATOM      6  C   UNL     1      84.895  72.252  87.544  0.00  0.00    +0.000 A 
ATOM      7  C   UNL     1      84.978  72.109  86.158  0.00  0.00    +0.000 A 
ATOM      8  C   UNL     1      85.974  71.310  85.596  0.00  0.00    +0.000 A 
ENDBRANCH   1   3
BRANCH   1   9
ATOM      9  C   UNL     1      89.556  70.817  85.619  0.00  0.00    +0.000 C 
ATOM     10  F   UNL     1      90.053  71.132  86.851  0.00  0.00    +0.000 F 
ATOM     11  F   UNL     1      90.611  70.339  84.895  0.00  0.00    +0.000 F 
ATOM     12  F   UNL     1      89.192  71.996  85.039  0.00  0.00    +0.000 F 
ENDBRANCH   1   9
BRANCH   1  13
ATOM     13  N   UNL     1      88.458  68.532  86.785  0.00  0.00    +0.000 NA
BRANCH  13  17
ATOM     14  C   UNL     1      90.170  64.767  85.879  0.00  0.00    +0.000 A 
ATOM     15  C   UNL     1      88.910  64.803  86.473  0.00  0.00    +0.000 A 
ATOM     16  C   UNL     1      88.311  66.030  86.783  0.00  0.00    +0.000 A 
ATOM     17  C   UNL     1      88.970  67.228  86.501  0.00  0.00    +0.000 A 
ATOM     18  C   UNL     1      90.232  67.181  85.901  0.00  0.00    +0.000 A 
ATOM     19  C   UNL     1      90.833  65.957  85.591  0.00  0.00    +0.000 A 
ENDBRANCH  13  17
ENDBRANCH   1  13
TORSDOF 4
ENDMDL
