REMARK  Name = *****
REMARK  4 active torsions:
REMARK  status: ('A' for Active; 'I' for Inactive)
REMARK    1  A    between atoms: C_4  and  C_8
REMARK    2  A    between atoms: C_8  and  O_10
REMARK    3  A    between atoms: O_10  and  C_11
REMARK    4  A    between atoms: C_11  and  C_12
REMARK                            x       y       z     vdW  Elec       q    Type
REMARK                         _______ _______ _______ _____ _____    ______ ____
ROOT
ATOM      1  C   UNL     1       1.281   1.305  -2.106  0.00  0.00    +0.000 C 
ATOM      2  O   UNL     1       0.667   2.352  -2.269  0.00  0.00    +0.000 OA
ENDROOT
BRANCH   1   6
ATOM      3  C   UNL     1       0.332  -0.338   1.134  0.00  0.00    +0.000 C 
ATOM      4  C   UNL     1       0.324  -1.435   0.065  0.00  0.00    +0.000 C 
ATOM      5  C   UNL     1       1.474  -0.975  -0.856  0.00  0.00    +0.000 C 
ATOM      6  C   UNL     1       1.381   0.581  -0.779  0.00  0.00    +0.000 C 
ATOM      7  C   UNL     1       0.135   0.791   0.116  0.00  0.00    +0.000 C 
ATOM      8  C   UNL     1      -1.093   0.248  -0.585  0.00  0.00    +0.000 C 
ATOM      9  C   UNL     1      -0.974  -1.087  -0.622  0.00  0.00    +0.000 C 
ENDBRANCH   1   6
BRANCH   1  10
ATOM     10  O   UNL     1       2.048   0.695  -3.047  0.00  0.00    +0.000 OA
BRANCH  10  11
ATOM     11  C   UNL     1       2.106   1.340  -4.324  0.00  0.00    +0.000 C 
BRANCH  11  12
ATOM     12  C   UNL     1       3.383   2.133  -4.424  0.00  0.00    +0.000 A 
ATOM     13  C   UNL     1       4.579   1.511  -4.807  0.00  0.00    +0.000 A 
ATOM     14  C   UNL     1       5.765   2.244  -4.879  0.00  0.00    +0.000 A 
ATOM     15  C   UNL     1       5.767   3.601  -4.561  0.00  0.00    +0.000 A 
ATOM     16  C   UNL     1       4.586   4.226  -4.166  0.00  0.00    +0.000 A 
ATOM     17  C   UNL     1       3.399   3.495  -4.094  0.00  0.00    +0.000 A 
ENDBRANCH  11  12
ENDBRANCH  10  11
ENDBRANCH   1  10
TORSDOF 4
