MODEL 1
REMARK VINA RESULT:      -4.8      0.000      0.000
REMARK  Name = *****
REMARK  4 active torsions:
REMARK  status: ('A' for Active; 'I' for Inactive)
REMARK    1  A    between atoms: C_1  and  O_2
REMARK    2  A    between atoms: O_2  and  C_3
REMARK    3  A    between atoms: C_8  and  C_9
REMARK    4  A    between atoms: C_10  and  C_11
REMARK                            x       y       z     vdW  Elec       q    Type
REMARK                         _______ _______ _______ _____ _____    ______ ____
ROOT
ATOM      1  C   UNL     1     102.928 125.426  81.856  0.00  0.00    +0.000 C 
ATOM      2  C   UNL     1     102.068 126.190  82.203  0.00  0.00    +0.000 C 
ENDROOT
BRANCH   2   3
ATOM      3  C   UNL     1     101.040 127.096  82.621  0.00  0.00    +0.000 A 
ATOM      4  C   UNL     1      99.706 126.751  82.369  0.00  0.00    +0.000 A 
ATOM      5  C   UNL     1      98.670 127.604  82.758  0.00  0.00    +0.000 A 
ATOM      6  C   UNL     1      98.960 128.805  83.402  0.00  0.00    +0.000 A 
ATOM      7  C   UNL     1     100.287 129.155  83.658  0.00  0.00    +0.000 A 
ATOM      8  C   UNL     1     101.327 128.305  83.269  0.00  0.00    +0.000 A 
ATOM      9 CL   UNL     1     102.948 128.801  83.613  0.00  0.00    +0.000 Cl
ENDBRANCH   2   3
BRANCH   1  15
ATOM     10  C   UNL     1     104.414 123.488  82.272  0.00  0.00    +0.000 A 
ATOM     11  C   UNL     1     105.420 122.632  81.806  0.00  0.00    +0.000 A 
ATOM     12  C   UNL     1     105.963 122.803  80.528  0.00  0.00    +0.000 A 
ATOM     13  C   UNL     1     105.507 123.829  79.704  0.00  0.00    +0.000 A 
ATOM     14  C   UNL     1     104.505 124.686  80.156  0.00  0.00    +0.000 A 
ATOM     15  C   UNL     1     103.957 124.520  81.434  0.00  0.00    +0.000 A 
BRANCH  10  17
ATOM     16  C   UNL     1     104.497 122.633  84.501  0.00  0.00    +0.000 C 
ATOM     17  O   UNL     1     103.823 123.393  83.507  0.00  0.00    +0.000 OA
ENDBRANCH  10  17
ENDBRANCH   1  15
TORSDOF 3
ENDMDL
