MODEL 1
REMARK VINA RESULT:      -4.3      0.000      0.000
REMARK  Name = *****
REMARK  4 active torsions:
REMARK  status: ('A' for Active; 'I' for Inactive)
REMARK    1  A    between atoms: C_2  and  C_3
REMARK    2  A    between atoms: C_3  and  C_7
REMARK    3  A    between atoms: C_7  and  C_8
REMARK    4  A    between atoms: C_9  and  C_10
REMARK                            x       y       z     vdW  Elec       q    Type
REMARK                         _______ _______ _______ _____ _____    ______ ____
ROOT
ATOM      1  C   UNL     1      97.486 117.630  79.956  0.00  0.00    +0.000 C 
ATOM      2  C   UNL     1      97.865 116.759  79.008  0.00  0.00    +0.000 C 
ENDROOT
BRANCH   2   3
ATOM      3  C   UNL     1      97.008 115.689  78.478  0.00  0.00    +0.000 A 
ATOM      4  C   UNL     1      96.199 114.899  79.306  0.00  0.00    +0.000 A 
ATOM      5  C   UNL     1      95.371 113.914  78.761  0.00  0.00    +0.000 A 
ATOM      6  C   UNL     1      95.338 113.714  77.383  0.00  0.00    +0.000 A 
ATOM      7  C   UNL     1      96.126 114.502  76.548  0.00  0.00    +0.000 A 
ATOM      8  C   UNL     1      96.952 115.489  77.092  0.00  0.00    +0.000 A 
ENDBRANCH   2   3
BRANCH   1   9
ATOM      9  C   UNL     1      98.386 118.702  80.509  0.00  0.00    +0.000 C 
BRANCH   9  10
ATOM     10  C   UNL     1      97.958 119.217  81.900  0.00  0.00    +0.000 C 
ATOM     11  C   UNL     1      97.134 118.239  82.803  0.00  0.00    +0.000 C 
ATOM     12  C   UNL     1      98.406 117.954  83.619  0.00  0.00    +0.000 C 
ATOM     13  C   UNL     1      99.035 119.231  83.036  0.00  0.00    +0.000 C 
BRANCH  10  15
ATOM     14  C   UNL     1      96.764 121.583  81.614  0.00  0.00    +0.000 C 
ATOM     15  C   UNL     1      97.301 120.516  81.743  0.00  0.00    +0.000 C 
ENDBRANCH  10  15
ENDBRANCH   9  10
ENDBRANCH   1   9
TORSDOF 4
ENDMDL
