MODEL 1
REMARK VINA RESULT:      -3.7      0.000      0.000
REMARK  Name = *****
REMARK  4 active torsions:
REMARK  status: ('A' for Active; 'I' for Inactive)
REMARK    1  A    between atoms: C_4  and  O_7
REMARK    2  A    between atoms: O_7  and  C_8
REMARK    3  A    between atoms: C_8  and  S_10
REMARK    4  A    between atoms: S_10  and  C_11
REMARK                            x       y       z     vdW  Elec       q    Type
REMARK                         _______ _______ _______ _____ _____    ______ ____
ROOT
ATOM      1  C   UNL     1      89.600  67.768  86.160  0.00  0.00    +0.000 C 
ATOM      2  O   UNL     1      90.678  67.272  86.459  0.00  0.00    +0.000 OA
ENDROOT
BRANCH   1   3
ATOM      3  O   UNL     1      88.397  67.143  86.299  0.00  0.00    +0.000 OA
BRANCH   3   7
ATOM      4  C   UNL     1      86.179  65.217  89.357  0.00  0.00    +0.000 C 
ATOM      5  C   UNL     1      87.569  64.673  89.042  0.00  0.00    +0.000 C 
ATOM      6  C   UNL     1      88.082  65.184  87.699  0.00  0.00    +0.000 C 
ATOM      7  C   UNL     1      88.054  66.714  87.628  0.00  0.00    +0.000 C 
ATOM      8  C   UNL     1      86.652  67.245  87.934  0.00  0.00    +0.000 C 
ATOM      9  C   UNL     1      86.138  66.740  89.278  0.00  0.00    +0.000 C 
ENDBRANCH   3   7
ENDBRANCH   1   3
BRANCH   1  10
ATOM     10  S   UNL     1      89.518  69.396  85.493  0.00  0.00    +0.000 S 
BRANCH  10  11
ATOM     11  C   UNL     1      88.519  70.166  86.752  0.00  0.00    +0.000 A 
ATOM     12  C   UNL     1      87.247  70.647  86.428  0.00  0.00    +0.000 A 
ATOM     13  C   UNL     1      86.452  71.249  87.407  0.00  0.00    +0.000 A 
ATOM     14  C   UNL     1      86.923  71.366  88.714  0.00  0.00    +0.000 A 
ATOM     15  C   UNL     1      88.186  70.879  89.044  0.00  0.00    +0.000 A 
ATOM     16  C   UNL     1      88.982  70.277  88.067  0.00  0.00    +0.000 A 
ENDBRANCH  10  11
ENDBRANCH   1  10
TORSDOF 4
ENDMDL
