MODEL 1
REMARK VINA RESULT:      -4.2      0.000      0.000
REMARK  Name = *****
REMARK  3 active torsions:
REMARK  status: ('A' for Active; 'I' for Inactive)
REMARK    1  A    between atoms: C_4  and  S_7
REMARK    2  A    between atoms: S_7  and  S_8
REMARK    3  A    between atoms: S_8  and  C_11
REMARK                            x       y       z     vdW  Elec       q    Type
REMARK                         _______ _______ _______ _____ _____    ______ ____
ROOT
ATOM      1  S   UNL     1     104.165 126.996  81.674  0.00  0.00    +0.000 S 
ATOM      2  O   UNL     1     103.275 127.352  80.587  0.00  0.00    +0.000 OA
ATOM      3  O   UNL     1     105.496 127.560  81.773  0.00  0.00    +0.000 OA
ENDROOT
BRANCH   1   4
ATOM      4  C   UNL     1     104.332 125.225  81.681  0.00  0.00    +0.000 A 
ATOM      5  C   UNL     1     104.637 124.551  80.494  0.00  0.00    +0.000 A 
ATOM      6  C   UNL     1     104.788 123.163  80.511  0.00  0.00    +0.000 A 
ATOM      7  C   UNL     1     104.642 122.463  81.709  0.00  0.00    +0.000 A 
ATOM      8  C   UNL     1     104.351 123.138  82.897  0.00  0.00    +0.000 A 
ATOM      9  C   UNL     1     104.199 124.526  82.887  0.00  0.00    +0.000 A 
ATOM     10 CL   UNL     1     104.829 120.753  81.725  0.00  0.00    +0.000 Cl
ENDBRANCH   1   4
BRANCH   1  11
ATOM     11  S   UNL     1     103.168 127.379  83.466  0.00  0.00    +0.000 S 
BRANCH  11  15
ATOM     12  C   UNL     1      98.572 127.918  83.297  0.00  0.00    +0.000 C 
ATOM     13  C   UNL     1      99.421 129.180  83.397  0.00  0.00    +0.000 C 
ATOM     14  C   UNL     1     100.856 128.866  83.820  0.00  0.00    +0.000 C 
ATOM     15  C   UNL     1     101.499 127.835  82.886  0.00  0.00    +0.000 C 
ATOM     16  C   UNL     1     100.644 126.564  82.802  0.00  0.00    +0.000 C 
ATOM     17  C   UNL     1      99.211 126.884  82.377  0.00  0.00    +0.000 C 
ENDBRANCH  11  15
ENDBRANCH   1  11
TORSDOF 3
ENDMDL
