MODEL 1
REMARK VINA RESULT:      -4.4      0.000      0.000
REMARK  Name = *****
REMARK  6 active torsions:
REMARK  status: ('A' for Active; 'I' for Inactive)
REMARK    1  A    between atoms: C_1  and  C_2
REMARK    2  A    between atoms: C_6  and  C_18
REMARK    3  A    between atoms: C_7  and  C_8
REMARK    4  A    between atoms: C_8  and  O_10
REMARK    5  A    between atoms: O_10  and  C_11
REMARK    6  A    between atoms: C_11  and  C_12
REMARK                            x       y       z     vdW  Elec       q    Type
REMARK                         _______ _______ _______ _____ _____    ______ ____
ROOT
ATOM      1  C   UNL     1      88.698  65.177  86.848  0.00  0.00    +0.000 C 
ATOM      2  O   UNL     1      88.104  64.506  86.011  0.00  0.00    +0.000 OA
ENDROOT
BRANCH   1   9
ATOM      3  C   UNL     1      88.742  63.857  90.472  0.00  0.00    +0.000 C 
ATOM      4  C   UNL     1      88.541  63.751  88.952  0.00  0.00    +0.000 C 
ATOM      5  C   UNL     1      87.374  62.792  88.637  0.00  0.00    +0.000 C 
ATOM      6  C   UNL     1      86.024  63.445  88.605  0.00  0.00    +0.000 C 
ATOM      7  C   UNL     1      85.835  64.771  88.612  0.00  0.00    +0.000 C 
ATOM      8  C   UNL     1      86.962  65.774  88.641  0.00  0.00    +0.000 C 
ATOM      9  C   UNL     1      88.347  65.157  88.330  0.00  0.00    +0.000 C 
ATOM     10  C   UNL     1      86.634  66.987  87.767  0.00  0.00    +0.000 C 
ENDBRANCH   1   9
BRANCH   1  11
ATOM     11  O   UNL     1      89.753  65.980  86.576  0.00  0.00    +0.000 OA
BRANCH  11  12
ATOM     12  C   UNL     1      89.738  66.564  85.271  0.00  0.00    +0.000 C 
BRANCH  12  13
ATOM     13  C   UNL     1      89.769  68.066  85.412  0.00  0.00    +0.000 A 
ATOM     14  C   UNL     1      89.896  68.889  84.282  0.00  0.00    +0.000 A 
ATOM     15  C   UNL     1      89.907  70.278  84.413  0.00  0.00    +0.000 A 
ATOM     16  C   UNL     1      89.782  70.861  85.673  0.00  0.00    +0.000 A 
ATOM     17  C   UNL     1      89.645  70.055  86.802  0.00  0.00    +0.000 A 
ATOM     18  C   UNL     1      89.635  68.665  86.673  0.00  0.00    +0.000 A 
ENDBRANCH  12  13
ENDBRANCH  11  12
ENDBRANCH   1  11
TORSDOF 4
ENDMDL
