REMARK  Name = *****
REMARK  2 active torsions:
REMARK  status: ('A' for Active; 'I' for Inactive)
REMARK    1  A    between atoms: C_3  and  N_9
REMARK    2  A    between atoms: C_10  and  C_11
REMARK                            x       y       z     vdW  Elec       q    Type
REMARK                         _______ _______ _______ _____ _____    ______ ____
ROOT
ATOM      1  N   UNL     1      -0.741   2.855   0.060  0.00  0.00    +0.000 NA
ATOM      2  C   UNL     1      -1.812   3.582   0.105  0.00  0.00    +0.000 C 
ENDROOT
BRANCH   1   5
ATOM      3  C   UNL     1      -0.368  -0.716  -0.845  0.00  0.00    +0.000 A 
ATOM      4  C   UNL     1      -0.276   0.680  -0.863  0.00  0.00    +0.000 A 
ATOM      5  C   UNL     1      -0.902   1.457   0.121  0.00  0.00    +0.000 A 
ATOM      6  C   UNL     1      -1.602   0.800   1.142  0.00  0.00    +0.000 A 
ATOM      7  C   UNL     1      -1.693  -0.588   1.158  0.00  0.00    +0.000 A 
ATOM      8  C   UNL     1      -1.082  -1.352   0.169  0.00  0.00    +0.000 A 
ATOM      9  F   UNL     1      -2.375  -1.206   2.132  0.00  0.00    +0.000 F 
ATOM     10  F   UNL     1      -2.200   1.508   2.114  0.00  0.00    +0.000 F 
ENDBRANCH   1   5
BRANCH   2  11
ATOM     11  C   UNL     1      -1.743   5.053   0.066  0.00  0.00    +0.000 A 
ATOM     12  C   UNL     1      -2.930   5.786   0.096  0.00  0.00    +0.000 A 
ATOM     13  C   UNL     1      -2.905   7.179   0.062  0.00  0.00    +0.000 A 
ATOM     14  C   UNL     1      -1.680   7.843  -0.003  0.00  0.00    +0.000 A 
ATOM     15  C   UNL     1      -0.498   7.105  -0.033  0.00  0.00    +0.000 A 
ATOM     16  C   UNL     1      -0.515   5.715   0.001  0.00  0.00    +0.000 A 
ATOM     17  F   UNL     1       0.674   7.749  -0.097  0.00  0.00    +0.000 F 
ATOM     18  F   UNL     1      -4.116   5.164   0.155  0.00  0.00    +0.000 F 
ENDBRANCH   2  11
TORSDOF 2
