REMARK  Name = *****
REMARK  4 active torsions:
REMARK  status: ('A' for Active; 'I' for Inactive)
REMARK    1  A    between atoms: C_4  and  C_7
REMARK    2  A    between atoms: C_7  and  C_8
REMARK    3  A    between atoms: C_7  and  S_10
REMARK    4  A    between atoms: S_10  and  C_11
REMARK                            x       y       z     vdW  Elec       q    Type
REMARK                         _______ _______ _______ _____ _____    ______ ____
ROOT
ATOM      1  C   UNL     1      -2.841   0.170  -0.727  0.00  0.00    +0.000 C 
ENDROOT
BRANCH   1   5
ATOM      2  C   UNL     1       1.207  -0.155   0.797  0.00  0.00    +0.000 A 
ATOM      3  C   UNL     1       0.337   0.806   1.304  0.00  0.00    +0.000 A 
ATOM      4  C   UNL     1      -0.965   0.902   0.810  0.00  0.00    +0.000 A 
ATOM      5  C   UNL     1      -1.416   0.038  -0.203  0.00  0.00    +0.000 A 
ATOM      6  C   UNL     1      -0.526  -0.930  -0.699  0.00  0.00    +0.000 A 
ATOM      7  C   UNL     1       0.776  -1.024  -0.202  0.00  0.00    +0.000 A 
ENDBRANCH   1   5
BRANCH   1   8
ATOM      8  C   UNL     1      -2.917   0.374  -2.249  0.00  0.00    +0.000 C 
ATOM      9 CL   UNL     1      -2.192   1.935  -2.744  0.00  0.00    +0.000 Cl
ENDBRANCH   1   8
BRANCH   1  10
ATOM     10  S   UNL     1      -3.813  -1.330  -0.226  0.00  0.00    +0.000 S 
BRANCH  10  11
ATOM     11  C   UNL     1      -5.478  -0.763  -0.518  0.00  0.00    +0.000 A 
ATOM     12  C   UNL     1      -6.278  -1.445  -1.440  0.00  0.00    +0.000 A 
ATOM     13  C   UNL     1      -7.586  -1.022  -1.688  0.00  0.00    +0.000 A 
ATOM     14  C   UNL     1      -8.104   0.078  -1.006  0.00  0.00    +0.000 A 
ATOM     15  C   UNL     1      -7.319   0.750  -0.071  0.00  0.00    +0.000 A 
ATOM     16  C   UNL     1      -6.011   0.327   0.177  0.00  0.00    +0.000 A 
ENDBRANCH  10  11
ENDBRANCH   1  10
TORSDOF 4
