MODEL 1
REMARK VINA RESULT:      -4.7      0.000      0.000
REMARK  Name = *****
REMARK  6 active torsions:
REMARK  status: ('A' for Active; 'I' for Inactive)
REMARK    1  A    between atoms: C_1  and  C_2
REMARK    2  A    between atoms: C_5  and  S_8
REMARK    3  A    between atoms: S_8  and  C_9
REMARK    4  A    between atoms: C_9  and  C_10
REMARK    5  A    between atoms: C_12  and  O_17
REMARK    6  A    between atoms: O_17  and  C_18
REMARK                            x       y       z     vdW  Elec       q    Type
REMARK                         _______ _______ _______ _____ _____    ______ ____
ROOT
ATOM      1  C   UNL     1      89.513  69.787  86.483  0.00  0.00    +0.000 C 
ENDROOT
BRANCH   1   2
ATOM      2  C   UNL     1      89.737  68.271  86.333  0.00  0.00    +0.000 C 
ATOM      3  C   UNL     1      89.931  67.839  84.864  0.00  0.00    +0.000 C 
ATOM      4  C   UNL     1      90.124  66.320  84.728  0.00  0.00    +0.000 C 
ATOM      5  C   UNL     1      88.940  65.566  85.360  0.00  0.00    +0.000 C 
ATOM      6  C   UNL     1      88.655  66.033  86.769  0.00  0.00    +0.000 C 
ATOM      7  C   UNL     1      88.547  65.180  87.801  0.00  0.00    +0.000 C 
ATOM      8  C   UNL     1      88.530  67.525  86.940  0.00  0.00    +0.000 C 
BRANCH   4   9
ATOM      9  O   UNL     1      91.326  65.865  85.365  0.00  0.00    +0.000 OA
ATOM     10  C   UNL     1      91.779  64.598  84.911  0.00  0.00    +0.000 C 
ENDBRANCH   4   9
ENDBRANCH   1   2
BRANCH   1  11
ATOM     11  S   UNL     1      88.717  70.225  88.071  0.00  0.00    +0.000 S 
BRANCH  11  16
ATOM     12  C   UNL     1      83.594  72.814  85.993  0.00  0.00    +0.000 C 
ATOM     13  C   UNL     1      84.861  72.212  86.521  0.00  0.00    +0.000 A 
ATOM     14  C   UNL     1      85.060  72.074  87.899  0.00  0.00    +0.000 A 
ATOM     15  C   UNL     1      86.226  71.480  88.393  0.00  0.00    +0.000 A 
ATOM     16  C   UNL     1      87.213  71.016  87.521  0.00  0.00    +0.000 A 
ATOM     17  C   UNL     1      86.999  71.128  86.143  0.00  0.00    +0.000 A 
ATOM     18  C   UNL     1      85.834  71.720  85.645  0.00  0.00    +0.000 A 
ENDBRANCH  11  16
ENDBRANCH   1  11
TORSDOF 4
ENDMDL
