MODEL 1
REMARK VINA RESULT:      -4.8      0.000      0.000
REMARK  Name = *****
REMARK  3 active torsions:
REMARK  status: ('A' for Active; 'I' for Inactive)
REMARK    1  A    between atoms: C_3  and  C_8
REMARK    2  A    between atoms: C_8  and  C_9
REMARK    3  A    between atoms: C_9  and  C_11
REMARK                            x       y       z     vdW  Elec       q    Type
REMARK                         _______ _______ _______ _____ _____    ______ ____
ROOT
ATOM      1  C   UNL     1     103.294 126.619  81.632  0.00  0.00    +0.000 C 
ATOM      2  O   UNL     1     103.289 127.145  80.517  0.00  0.00    +0.000 OA
ENDROOT
BRANCH   1   3
ATOM      3  C   UNL     1     103.785 125.212  81.769  0.00  0.00    +0.000 A 
ATOM      4  C   UNL     1     104.228 124.455  80.682  0.00  0.00    +0.000 A 
ATOM      5  C   UNL     1     104.675 123.152  80.888  0.00  0.00    +0.000 A 
ATOM      6  C   UNL     1     104.690 122.584  82.157  0.00  0.00    +0.000 A 
ATOM      7  C   UNL     1     104.249 123.330  83.246  0.00  0.00    +0.000 A 
ATOM      8  C   UNL     1     103.798 124.638  83.052  0.00  0.00    +0.000 A 
ATOM      9  F   UNL     1     105.100 122.434  79.842  0.00  0.00    +0.000 F 
ENDBRANCH   1   3
BRANCH   1  10
ATOM     10  C   UNL     1     102.815 127.383  82.853  0.00  0.00    +0.000 C 
BRANCH  10  13
ATOM     11  C   UNL     1      99.051 126.842  82.452  0.00  0.00    +0.000 A 
ATOM     12  C   UNL     1     100.434 126.637  82.400  0.00  0.00    +0.000 A 
ATOM     13  C   UNL     1     101.323 127.610  82.884  0.00  0.00    +0.000 A 
ATOM     14  C   UNL     1     100.796 128.779  83.451  0.00  0.00    +0.000 A 
ATOM     15  C   UNL     1      99.418 128.971  83.499  0.00  0.00    +0.000 A 
ATOM     16  C   UNL     1      98.542 128.016  83.001  0.00  0.00    +0.000 A 
ATOM     17  F   UNL     1      98.930 130.097  84.037  0.00  0.00    +0.000 F 
ENDBRANCH  10  13
ENDBRANCH   1  10
TORSDOF 3
ENDMDL
