MODEL 1
REMARK VINA RESULT:      -5.1      0.000      0.000
REMARK  Name = *****
REMARK  4 active torsions:
REMARK  status: ('A' for Active; 'I' for Inactive)
REMARK    1  A    between atoms: C_1  and  C_2
REMARK    2  A    between atoms: C_3  and  C_16
REMARK    3  A    between atoms: C_4  and  C_8
REMARK    4  A    between atoms: C_9  and  C_10
REMARK                            x       y       z     vdW  Elec       q    Type
REMARK                         _______ _______ _______ _____ _____    ______ ____
ROOT
ATOM      1  C   UNL     1     100.523 130.342  84.340  0.00  0.00    +0.000 C 
ATOM      2  C   UNL     1     100.303 129.034  83.628  0.00  0.00    +0.000 A 
ATOM      3  C   UNL     1     101.368 128.142  83.353  0.00  0.00    +0.000 A 
ATOM      4  C   UNL     1     101.089 126.916  82.705  0.00  0.00    +0.000 A 
ATOM      5  C   UNL     1      99.776 126.615  82.313  0.00  0.00    +0.000 A 
ATOM      6  C   UNL     1      98.740 127.511  82.556  0.00  0.00    +0.000 A 
ATOM      7  C   UNL     1      99.001 128.711  83.211  0.00  0.00    +0.000 A 
ATOM      8  C   UNL     1     102.775 128.472  83.794  0.00  0.00    +0.000 C 
ENDROOT
BRANCH   4   9
ATOM      9  C   UNL     1     102.139 125.914  82.462  0.00  0.00    +0.000 C 
ATOM     10  C   UNL     1     102.806 125.841  81.299  0.00  0.00    +0.000 C 
BRANCH  10  11
ATOM     11  C   UNL     1     103.874 124.868  81.034  0.00  0.00    +0.000 A 
ATOM     12  C   UNL     1     104.127 123.787  81.887  0.00  0.00    +0.000 A 
ATOM     13  C   UNL     1     105.132 122.863  81.585  0.00  0.00    +0.000 A 
ATOM     14  C   UNL     1     105.888 123.008  80.423  0.00  0.00    +0.000 A 
ATOM     15  C   UNL     1     105.634 124.072  79.559  0.00  0.00    +0.000 A 
ATOM     16  C   UNL     1     104.628 124.993  79.860  0.00  0.00    +0.000 A 
ENDBRANCH  10  11
ENDBRANCH   4   9
TORSDOF 2
ENDMDL
