REMARK  Name = *****
REMARK  3 active torsions:
REMARK  status: ('A' for Active; 'I' for Inactive)
REMARK    1  A    between atoms: C_6  and  C_7
REMARK    2  A    between atoms: C_7  and  O_9
REMARK    3  A    between atoms: O_9  and  C_10
REMARK                            x       y       z     vdW  Elec       q    Type
REMARK                         _______ _______ _______ _____ _____    ______ ____
ROOT
ATOM      1  C   UNL     1      -3.146  -0.173   0.747  0.00  0.00    +0.000 C 
ATOM      2  O   UNL     1      -3.830  -1.167   0.553  0.00  0.00    +0.000 OA
ENDROOT
BRANCH   1   8
ATOM      3  C   UNL     1      -1.052   1.190   0.300  0.00  0.00    +0.000 A 
ATOM      4  C   UNL     1       0.240   1.280  -0.228  0.00  0.00    +0.000 A 
ATOM      5  C   UNL     1       0.810   0.172  -0.845  0.00  0.00    +0.000 A 
ATOM      6  C   UNL     1       0.115  -1.026  -0.949  0.00  0.00    +0.000 A 
ATOM      7  C   UNL     1      -1.176  -1.121  -0.424  0.00  0.00    +0.000 A 
ATOM      8  C   UNL     1      -1.766  -0.015   0.208  0.00  0.00    +0.000 A 
ATOM      9  F   UNL     1       2.048   0.264  -1.349  0.00  0.00    +0.000 F 
ENDBRANCH   1   8
BRANCH   1  10
ATOM     10  O   UNL     1      -3.487   0.938   1.494  0.00  0.00    +0.000 OA
BRANCH  10  11
ATOM     11  C   UNL     1      -4.805   0.879   1.956  0.00  0.00    +0.000 A 
ATOM     12  C   UNL     1      -5.845   1.440   1.208  0.00  0.00    +0.000 A 
ATOM     13  C   UNL     1      -7.147   1.399   1.705  0.00  0.00    +0.000 A 
ATOM     14  C   UNL     1      -7.400   0.810   2.949  0.00  0.00    +0.000 A 
ATOM     15  C   UNL     1      -6.348   0.271   3.693  0.00  0.00    +0.000 A 
ATOM     16  C   UNL     1      -5.044   0.307   3.207  0.00  0.00    +0.000 A 
ATOM     17 CL   UNL     1      -6.667  -0.438   5.228  0.00  0.00    +0.000 Cl
ATOM     18 CL   UNL     1      -5.552   2.197  -0.312  0.00  0.00    +0.000 Cl
ENDBRANCH  10  11
ENDBRANCH   1  10
TORSDOF 3
