MODEL 1
REMARK VINA RESULT:      -4.2      0.000      0.000
REMARK  Name = *****
REMARK  4 active torsions:
REMARK  status: ('A' for Active; 'I' for Inactive)
REMARK    1  A    between atoms: C_1  and  C_2
REMARK    2  A    between atoms: C_5  and  C_8
REMARK    3  A    between atoms: C_8  and  C_9
REMARK    4  A    between atoms: C_9  and  C_10
REMARK                            x       y       z     vdW  Elec       q    Type
REMARK                         _______ _______ _______ _____ _____    ______ ____
ROOT
ATOM      1  C   UNL     1     103.543 126.963  82.924  0.00  0.00    +0.000 C 
ENDROOT
BRANCH   1   6
ATOM      2  C   UNL     1     104.901 123.056  80.422  0.00  0.00    +0.000 C 
ATOM      3  C   UNL     1     104.902 124.530  80.728  0.00  0.00    +0.000 C 
ATOM      4  C   UNL     1     105.961 125.100  81.329  0.00  0.00    +0.000 C 
ATOM      5  S   UNL     1     106.086 126.767  81.753  0.00  0.00    +0.000 S 
ATOM      6  C   UNL     1     104.350 127.320  81.662  0.00  0.00    +0.000 C 
ATOM      7  C   UNL     1     103.716 126.779  80.380  0.00  0.00    +0.000 C 
ATOM      8  C   UNL     1     103.644 125.255  80.318  0.00  0.00    +0.000 C 
ENDBRANCH   1   6
BRANCH   1   9
ATOM      9  C   UNL     1     102.772 128.155  83.507  0.00  0.00    +0.000 C 
BRANCH   9  10
ATOM     10  C   UNL     1     101.292 128.044  83.226  0.00  0.00    +0.000 A 
ATOM     11  C   UNL     1     100.422 129.082  83.586  0.00  0.00    +0.000 A 
ATOM     12  C   UNL     1      99.052 128.973  83.341  0.00  0.00    +0.000 A 
ATOM     13  C   UNL     1      98.540 127.825  82.739  0.00  0.00    +0.000 A 
ATOM     14  C   UNL     1      99.396 126.785  82.381  0.00  0.00    +0.000 A 
ATOM     15  C   UNL     1     100.767 126.893  82.625  0.00  0.00    +0.000 A 
ENDBRANCH   9  10
ENDBRANCH   1   9
TORSDOF 3
ENDMDL
