MODEL 1
REMARK VINA RESULT:      -4.2      0.000      0.000
REMARK  Name = *****
REMARK  3 active torsions:
REMARK  status: ('A' for Active; 'I' for Inactive)
REMARK    1  A    between atoms: C_4  and  C_6
REMARK    2  A    between atoms: C_6  and  O_8
REMARK    3  A    between atoms: O_8  and  C_9
REMARK                            x       y       z     vdW  Elec       q    Type
REMARK                         _______ _______ _______ _____ _____    ______ ____
ROOT
ATOM      1  O   UNL     1      90.347  67.949  86.520  0.00  0.00    +0.000 OA
ENDROOT
BRANCH   1   2
ATOM      2  C   UNL     1      90.198  66.580  86.265  0.00  0.00    +0.000 A 
ATOM      3  C   UNL     1      89.066  65.886  86.712  0.00  0.00    +0.000 A 
ATOM      4  C   UNL     1      88.951  64.526  86.405  0.00  0.00    +0.000 A 
ATOM      5  C   UNL     1      89.946  63.886  85.652  0.00  0.00    +0.000 A 
ATOM      6  C   UNL     1      91.058  64.599  85.197  0.00  0.00    +0.000 A 
ATOM      7  C   UNL     1      91.184  65.952  85.498  0.00  0.00    +0.000 A 
ATOM      8 CL   UNL     1      87.599  63.571  86.910  0.00  0.00    +0.000 Cl
ATOM      9 CL   UNL     1      87.845  66.725  87.607  0.00  0.00    +0.000 Cl
ENDBRANCH   1   2
BRANCH   1  10
ATOM     10  C   UNL     1      89.760  68.738  85.534  0.00  0.00    +0.000 C 
ATOM     11  O   UNL     1      89.512  68.393  84.387  0.00  0.00    +0.000 OA
BRANCH  10  15
ATOM     12  C   UNL     1      87.159  70.352  86.633  0.00  0.00    +0.000 C 
ATOM     13  C   UNL     1      87.923  70.594  87.924  0.00  0.00    +0.000 C 
ATOM     14  C   UNL     1      89.335  70.093  87.638  0.00  0.00    +0.000 C 
ATOM     15  C   UNL     1      89.497  70.122  86.110  0.00  0.00    +0.000 C 
ATOM     16  C   UNL     1      88.185  70.681  85.559  0.00  0.00    +0.000 C 
ENDBRANCH  10  15
ENDBRANCH   1  10
TORSDOF 3
ENDMDL
