MODEL 1
REMARK VINA RESULT:      -4.5      0.000      0.000
REMARK  Name = *****
REMARK  5 active torsions:
REMARK  status: ('A' for Active; 'I' for Inactive)
REMARK    1  A    between atoms: C_1  and  O_2
REMARK    2  A    between atoms: O_2  and  C_3
REMARK    3  A    between atoms: C_3  and  C_11
REMARK    4  A    between atoms: N_4  and  C_5
REMARK    5  A    between atoms: C_11  and  C_12
REMARK                            x       y       z     vdW  Elec       q    Type
REMARK                         _______ _______ _______ _____ _____    ______ ____
ROOT
ATOM      1  C   UNL     1      89.627  68.686  85.703  0.00  0.00    +0.000 C 
ATOM      2  N   UNL     1      90.084  67.803  86.536  0.00  0.00    +0.000 NA
ENDROOT
BRANCH   2   3
ATOM      3  C   UNL     1      90.227  66.461  86.171  0.00  0.00    +0.000 A 
ATOM      4  C   UNL     1      91.347  66.013  85.465  0.00  0.00    +0.000 A 
ATOM      5  C   UNL     1      91.488  64.662  85.140  0.00  0.00    +0.000 A 
ATOM      6  C   UNL     1      90.514  63.746  85.536  0.00  0.00    +0.000 A 
ATOM      7  C   UNL     1      89.407  64.179  86.263  0.00  0.00    +0.000 A 
ATOM      8  C   UNL     1      89.270  65.531  86.586  0.00  0.00    +0.000 A 
ENDBRANCH   2   3
BRANCH   1  10
ATOM      9  C   UNL     1      89.678  69.251  83.389  0.00  0.00    +0.000 C 
ATOM     10  O   UNL     1      89.126  68.473  84.457  0.00  0.00    +0.000 OA
ENDBRANCH   1  10
BRANCH   1  11
ATOM     11  C   UNL     1      89.664  70.157  86.039  0.00  0.00    +0.000 C 
BRANCH  11  12
ATOM     12  C   UNL     1      88.410  70.617  86.742  0.00  0.00    +0.000 A 
ATOM     13  C   UNL     1      87.302  71.063  86.009  0.00  0.00    +0.000 A 
ATOM     14  C   UNL     1      86.151  71.501  86.667  0.00  0.00    +0.000 A 
ATOM     15  C   UNL     1      86.099  71.504  88.060  0.00  0.00    +0.000 A 
ATOM     16  C   UNL     1      87.199  71.071  88.797  0.00  0.00    +0.000 A 
ATOM     17  C   UNL     1      88.350  70.631  88.142  0.00  0.00    +0.000 A 
ENDBRANCH  11  12
ENDBRANCH   1  11
TORSDOF 4
ENDMDL
