MODEL 1
REMARK VINA RESULT:      -4.3      0.000      0.000
REMARK  Name = *****
REMARK  6 active torsions:
REMARK  status: ('A' for Active; 'I' for Inactive)
REMARK    1  A    between atoms: C_1  and  C_2
REMARK    2  A    between atoms: C_5  and  S_8
REMARK    3  A    between atoms: S_8  and  C_9
REMARK    4  A    between atoms: C_9  and  C_10
REMARK    5  A    between atoms: C_12  and  O_16
REMARK    6  A    between atoms: O_16  and  C_17
REMARK                            x       y       z     vdW  Elec       q    Type
REMARK                         _______ _______ _______ _____ _____    ______ ____
ROOT
ATOM      1  C   UNL     1      87.255  68.754  88.448  0.00  0.00    +0.000 C 
ENDROOT
BRANCH   1   2
ATOM      2  C   UNL     1      87.727  67.959  87.212  0.00  0.00    +0.000 C 
ATOM      3  C   UNL     1      87.960  66.470  87.548  0.00  0.00    +0.000 C 
ATOM      4  C   UNL     1      88.736  65.746  86.442  0.00  0.00    +0.000 C 
ATOM      5  C   UNL     1      90.101  66.419  86.226  0.00  0.00    +0.000 C 
ATOM      6  C   UNL     1      90.030  67.916  86.196  0.00  0.00    +0.000 C 
ATOM      7  C   UNL     1      88.962  68.605  86.620  0.00  0.00    +0.000 C 
BRANCH   4   8
ATOM      8  O   UNL     1      88.986  64.379  86.788  0.00  0.00    +0.000 OA
ATOM      9  C   UNL     1      88.532  64.028  88.088  0.00  0.00    +0.000 C 
ENDBRANCH   4   8
ENDBRANCH   1   2
BRANCH   1  10
ATOM     10  S   UNL     1      87.795  70.503  88.387  0.00  0.00    +0.000 S 
BRANCH  10  15
ATOM     11  C   UNL     1      82.933  73.228  85.887  0.00  0.00    +0.000 C 
ATOM     12  C   UNL     1      84.152  72.579  86.471  0.00  0.00    +0.000 A 
ATOM     13  C   UNL     1      85.169  72.087  85.649  0.00  0.00    +0.000 A 
ATOM     14  C   UNL     1      86.291  71.457  86.201  0.00  0.00    +0.000 A 
ATOM     15  C   UNL     1      86.417  71.311  87.585  0.00  0.00    +0.000 A 
ATOM     16  C   UNL     1      85.385  71.786  88.404  0.00  0.00    +0.000 A 
ATOM     17  C   UNL     1      84.264  72.414  87.855  0.00  0.00    +0.000 A 
ENDBRANCH  10  15
ENDBRANCH   1  10
TORSDOF 4
ENDMDL
