MODEL 1
REMARK VINA RESULT:      -4.8      0.000      0.000
REMARK  Name = *****
REMARK  1 active torsions:
REMARK  status: ('A' for Active; 'I' for Inactive)
REMARK    1  A    between atoms: C_8  and  C_10
REMARK                            x       y       z     vdW  Elec       q    Type
REMARK                         _______ _______ _______ _____ _____    ______ ____
ROOT
ATOM      1  C   UNL     1     105.620 122.992  80.406  0.00  0.00    +0.000 A 
ATOM      2  C   UNL     1     105.965 123.929  79.442  0.00  0.00    +0.000 A 
ATOM      3  C   UNL     1     105.346 125.182  79.415  0.00  0.00    +0.000 A 
ATOM      4  C   UNL     1     104.367 125.479  80.382  0.00  0.00    +0.000 A 
ATOM      5  C   UNL     1     104.002 124.553  81.361  0.00  0.00    +0.000 A 
ATOM      6  C   UNL     1     104.646 123.292  81.364  0.00  0.00    +0.000 A 
ATOM      7  C   UNL     1     102.989 125.086  82.225  0.00  0.00    +0.000 A 
ATOM      8  C   UNL     1     102.614 126.376  81.907  0.00  0.00    +0.000 A 
ATOM      9  S   UNL     1     103.478 126.943  80.544  0.00  0.00    +0.000 S 
ENDROOT
BRANCH   8  10
ATOM     10  C   UNL     1     101.603 127.221  82.556  0.00  0.00    +0.000 A 
ATOM     11  C   UNL     1     100.233 126.951  82.433  0.00  0.00    +0.000 A 
ATOM     12  C   UNL     1      99.301 127.781  83.050  0.00  0.00    +0.000 A 
ATOM     13  C   UNL     1      99.699 128.886  83.793  0.00  0.00    +0.000 A 
ATOM     14  C   UNL     1     101.056 129.170  83.920  0.00  0.00    +0.000 A 
ATOM     15  C   UNL     1     102.001 128.343  83.303  0.00  0.00    +0.000 A 
ATOM     16  F   UNL     1      97.995 127.511  82.922  0.00  0.00    +0.000 F 
ENDBRANCH   8  10
TORSDOF 1
ENDMDL
