MODEL 1
REMARK VINA RESULT:      -4.9      0.000      0.000
REMARK  Name = *****
REMARK  6 active torsions:
REMARK  status: ('A' for Active; 'I' for Inactive)
REMARK    1  A    between atoms: C_1  and  C_2
REMARK    2  A    between atoms: C_3  and  C_9
REMARK    3  A    between atoms: C_4  and  C_8
REMARK    4  A    between atoms: C_9  and  C_10
REMARK    5  A    between atoms: C_10  and  C_11
REMARK    6  A    between atoms: C_11  and  C_13
REMARK                            x       y       z     vdW  Elec       q    Type
REMARK                         _______ _______ _______ _____ _____    ______ ____
ROOT
ATOM      1  C   UNL     1      88.354  68.989  85.585  0.00  0.00    +0.000 C 
ENDROOT
BRANCH   1   2
ATOM      2  C   UNL     1      89.125  67.990  86.425  0.00  0.00    +0.000 C 
ATOM      3  O   UNL     1      90.353  67.986  86.485  0.00  0.00    +0.000 OA
BRANCH   2   4
ATOM      4  C   UNL     1      88.361  66.971  87.211  0.00  0.00    +0.000 A 
ATOM      5  C   UNL     1      88.791  65.647  87.335  0.00  0.00    +0.000 A 
ATOM      6  C   UNL     1      88.035  64.742  88.081  0.00  0.00    +0.000 A 
ATOM      7  C   UNL     1      86.854  65.137  88.707  0.00  0.00    +0.000 A 
ATOM      8  C   UNL     1      86.419  66.455  88.589  0.00  0.00    +0.000 A 
ATOM      9  C   UNL     1      87.171  67.369  87.843  0.00  0.00    +0.000 A 
ATOM     10 CL   UNL     1      85.926  64.015  89.624  0.00  0.00    +0.000 Cl
ATOM     11  F   UNL     1      88.472  63.479  88.183  0.00  0.00    +0.000 F 
ENDBRANCH   2   4
ENDBRANCH   1   2
BRANCH   1  12
ATOM     12  C   UNL     1      88.595  70.427  86.051  0.00  0.00    +0.000 C 
BRANCH  12  15
ATOM     13  C   UNL     1      88.414  70.512  89.036  0.00  0.00    +0.000 C 
ATOM     14  C   UNL     1      87.289  71.005  88.163  0.00  0.00    +0.000 A 
ATOM     15  C   UNL     1      87.372  70.999  86.747  0.00  0.00    +0.000 A 
ATOM     16  C   UNL     1      86.287  71.508  85.990  0.00  0.00    +0.000 A 
ATOM     17  C   UNL     1      85.156  72.015  86.650  0.00  0.00    +0.000 A 
ATOM     18  C   UNL     1      85.083  72.017  88.039  0.00  0.00    +0.000 A 
ATOM     19  C   UNL     1      86.143  71.520  88.789  0.00  0.00    +0.000 A 
ATOM     20  C   UNL     1      86.314  71.564  84.484  0.00  0.00    +0.000 C 
ENDBRANCH  12  15
ENDBRANCH   1  12
TORSDOF 4
ENDMDL
