MODEL 1
REMARK VINA RESULT:      -4.4      0.000      0.000
REMARK  Name = *****
REMARK  3 active torsions:
REMARK  status: ('A' for Active; 'I' for Inactive)
REMARK    1  A    between atoms: C_2  and  C_3
REMARK    2  A    between atoms: C_2  and  S_11
REMARK    3  A    between atoms: S_11  and  C_12
REMARK                            x       y       z     vdW  Elec       q    Type
REMARK                         _______ _______ _______ _____ _____    ______ ____
ROOT
ATOM      1  C   UNL     1     104.341 128.923  82.662  0.00  0.00    +0.000 C 
ATOM      2  C   UNL     1     103.763 127.778  83.054  0.00  0.00    +0.000 C 
ENDROOT
BRANCH   2   3
ATOM      3  C   UNL     1     103.968 126.524  82.311  0.00  0.00    +0.000 A 
ATOM      4  C   UNL     1     103.585 126.409  80.965  0.00  0.00    +0.000 A 
ATOM      5  C   UNL     1     103.777 125.229  80.254  0.00  0.00    +0.000 A 
ATOM      6  C   UNL     1     104.364 124.146  80.892  0.00  0.00    +0.000 A 
ATOM      7  C   UNL     1     104.760 124.225  82.222  0.00  0.00    +0.000 A 
ATOM      8  C   UNL     1     104.564 125.413  82.933  0.00  0.00    +0.000 A 
ATOM      9  F   UNL     1     104.554 123.006  80.216  0.00  0.00    +0.000 F 
ATOM     10  F   UNL     1     103.016 127.445  80.332  0.00  0.00    +0.000 F 
ENDBRANCH   2   3
BRANCH   2  11
ATOM     11  S   UNL     1     102.797 127.693  84.494  0.00  0.00    +0.000 S 
BRANCH  11  12
ATOM     12  C   UNL     1     101.180 127.825  83.749  0.00  0.00    +0.000 A 
ATOM     13  C   UNL     1     100.603 126.727  83.103  0.00  0.00    +0.000 A 
ATOM     14  C   UNL     1      99.333 126.834  82.532  0.00  0.00    +0.000 A 
ATOM     15  C   UNL     1      98.630 128.035  82.614  0.00  0.00    +0.000 A 
ATOM     16  C   UNL     1      99.194 129.130  83.268  0.00  0.00    +0.000 A 
ATOM     17  C   UNL     1     100.465 129.024  83.837  0.00  0.00    +0.000 A 
ENDBRANCH  11  12
ENDBRANCH   2  11
TORSDOF 3
ENDMDL
