MODEL 1
REMARK VINA RESULT:      -4.7      0.000      0.000
REMARK  Name = *****
REMARK  4 active torsions:
REMARK  status: ('A' for Active; 'I' for Inactive)
REMARK    1  A    between atoms: C_1  and  C_2
REMARK    2  A    between atoms: C_2  and  C_4
REMARK    3  A    between atoms: C_7  and  C_10
REMARK    4  A    between atoms: C_11  and  C_12
REMARK                            x       y       z     vdW  Elec       q    Type
REMARK                         _______ _______ _______ _____ _____    ______ ____
ROOT
ATOM      1  C   UNL     1     105.570 123.081  81.015  0.00  0.00    +0.000 A 
ATOM      2  C   UNL     1     104.938 123.172  82.260  0.00  0.00    +0.000 A 
ATOM      3  C   UNL     1     103.936 124.128  82.472  0.00  0.00    +0.000 A 
ATOM      4  C   UNL     1     103.558 125.009  81.451  0.00  0.00    +0.000 A 
ATOM      5  C   UNL     1     104.182 124.903  80.203  0.00  0.00    +0.000 A 
ATOM      6  C   UNL     1     105.184 123.951  79.988  0.00  0.00    +0.000 A 
ENDROOT
BRANCH   1   8
ATOM      7  C   UNL     1     107.873 122.519  79.986  0.00  0.00    +0.000 C 
ATOM      8  C   UNL     1     106.642 122.081  80.735  0.00  0.00    +0.000 C 
ATOM      9  O   UNL     1     106.512 120.919  81.118  0.00  0.00    +0.000 OA
ENDBRANCH   1   8
BRANCH   4  10
ATOM     10  C   UNL     1     102.488 126.002  81.631  0.00  0.00    +0.000 C 
ATOM     11  C   UNL     1     101.766 126.108  82.758  0.00  0.00    +0.000 C 
BRANCH  11  12
ATOM     12  C   UNL     1     100.734 127.080  82.919  0.00  0.00    +0.000 A 
ATOM     13  C   UNL     1      99.395 127.070  82.547  0.00  0.00    +0.000 A 
ATOM     14  C   UNL     1      98.700 128.265  82.904  0.00  0.00    +0.000 A 
ATOM     15  C   UNL     1      99.532 129.146  83.537  0.00  0.00    +0.000 A 
ATOM     16  S   UNL     1     101.110 128.573  83.711  0.00  0.00    +0.000 S 
ATOM     17 CL   UNL     1      99.115 130.700  84.135  0.00  0.00    +0.000 Cl
ENDBRANCH  11  12
ENDBRANCH   4  10
TORSDOF 3
ENDMDL
