MODEL 1
REMARK VINA RESULT:      -4.9      0.000      0.000
REMARK  Name = *****
REMARK  3 active torsions:
REMARK  status: ('A' for Active; 'I' for Inactive)
REMARK    1  A    between atoms: C_1  and  C_2
REMARK    2  A    between atoms: C_5  and  C_8
REMARK    3  A    between atoms: C_9  and  C_10
REMARK                            x       y       z     vdW  Elec       q    Type
REMARK                         _______ _______ _______ _____ _____    ______ ____
ROOT
ATOM      1  C   UNL     1     102.682 125.916  81.540  0.00  0.00    +0.000 C 
ATOM      2  C   UNL     1     101.919 125.984  82.644  0.00  0.00    +0.000 C 
ENDROOT
BRANCH   1   7
ATOM      3  C   UNL     1     106.762 121.870  80.830  0.00  0.00    +0.000 C 
ATOM      4  C   UNL     1     105.683 122.900  80.990  0.00  0.00    +0.000 A 
ATOM      5  C   UNL     1     105.361 123.765  79.940  0.00  0.00    +0.000 A 
ATOM      6  C   UNL     1     104.377 124.744  80.103  0.00  0.00    +0.000 A 
ATOM      7  C   UNL     1     103.697 124.877  81.319  0.00  0.00    +0.000 A 
ATOM      8  C   UNL     1     104.043 124.031  82.379  0.00  0.00    +0.000 A 
ATOM      9  C   UNL     1     105.027 123.050  82.217  0.00  0.00    +0.000 A 
ENDBRANCH   1   7
BRANCH   2  10
ATOM     10  C   UNL     1     100.915 127.032  82.879  0.00  0.00    +0.000 A 
ATOM     11  C   UNL     1     101.240 128.260  83.467  0.00  0.00    +0.000 A 
ATOM     12  C   UNL     1     100.257 129.230  83.638  0.00  0.00    +0.000 A 
ATOM     13  C   UNL     1      98.949 129.009  83.226  0.00  0.00    +0.000 A 
ATOM     14  C   UNL     1      98.616 127.797  82.626  0.00  0.00    +0.000 A 
ATOM     15  C   UNL     1      99.597 126.817  82.448  0.00  0.00    +0.000 A 
ATOM     16  F   UNL     1     100.580 130.400  84.205  0.00  0.00    +0.000 F 
ENDBRANCH   2  10
TORSDOF 2
ENDMDL
