MODEL 1
REMARK VINA RESULT:      -4.6      0.000      0.000
REMARK  Name = *****
REMARK  4 active torsions:
REMARK  status: ('A' for Active; 'I' for Inactive)
REMARK    1  A    between atoms: C_1  and  C_2
REMARK    2  A    between atoms: C_5  and  N_8
REMARK    3  A    between atoms: N_8  and  C_9
REMARK    4  A    between atoms: C_9  and  C_11
REMARK                            x       y       z     vdW  Elec       q    Type
REMARK                         _______ _______ _______ _____ _____    ______ ____
ROOT
ATOM      1  N   UNL     1      89.028  63.761  87.937  0.00  0.00    +0.000 N 
ATOM      2  H   UNL     1      89.921  63.414  88.161  0.00  0.00    +0.000 HD
ENDROOT
BRANCH   1   7
ATOM      3  C   UNL     1      84.818  62.021  91.414  0.00  0.00    +0.000 C 
ATOM      4  C   UNL     1      85.909  62.514  90.511  0.00  0.00    +0.000 A 
ATOM      5  C   UNL     1      86.788  63.515  90.934  0.00  0.00    +0.000 A 
ATOM      6  C   UNL     1      87.827  63.953  90.104  0.00  0.00    +0.000 A 
ATOM      7  C   UNL     1      88.023  63.379  88.849  0.00  0.00    +0.000 A 
ATOM      8  C   UNL     1      87.134  62.385  88.422  0.00  0.00    +0.000 A 
ATOM      9  C   UNL     1      86.096  61.945  89.249  0.00  0.00    +0.000 A 
ENDBRANCH   1   7
BRANCH   1  10
ATOM     10  C   UNL     1      89.001  64.528  86.791  0.00  0.00    +0.000 C 
ATOM     11  S   UNL     1      89.181  63.718  85.325  0.00  0.00    +0.000 S 
BRANCH  10  12
ATOM     12  C   UNL     1      88.947  66.005  86.852  0.00  0.00    +0.000 A 
ATOM     13  C   UNL     1      89.994  66.753  86.298  0.00  0.00    +0.000 A 
ATOM     14  C   UNL     1      89.946  68.148  86.338  0.00  0.00    +0.000 A 
ATOM     15  C   UNL     1      88.852  68.792  86.918  0.00  0.00    +0.000 A 
ATOM     16  C   UNL     1      87.801  68.046  87.457  0.00  0.00    +0.000 A 
ATOM     17  C   UNL     1      87.844  66.653  87.422  0.00  0.00    +0.000 A 
ENDBRANCH  10  12
ENDBRANCH   1  10
TORSDOF 3
ENDMDL
