REMARK  Name = *****
REMARK  3 active torsions:
REMARK  status: ('A' for Active; 'I' for Inactive)
REMARK    1  A    between atoms: C_2  and  C_7
REMARK    2  A    between atoms: C_7  and  O_9
REMARK    3  A    between atoms: O_9  and  C_10
REMARK                            x       y       z     vdW  Elec       q    Type
REMARK                         _______ _______ _______ _____ _____    ______ ____
ROOT
ATOM      1  C   UNL     1       0.845  -2.673   2.669  0.00  0.00    +0.000 A 
ATOM      2  C   UNL     1       0.295  -3.306   3.780  0.00  0.00    +0.000 A 
ATOM      3  C   UNL     1       1.047  -3.442   4.940  0.00  0.00    +0.000 A 
ATOM      4  C   UNL     1       2.349  -2.954   4.986  0.00  0.00    +0.000 A 
ATOM      5  C   UNL     1       2.903  -2.334   3.871  0.00  0.00    +0.000 A 
ATOM      6  C   UNL     1       2.153  -2.198   2.709  0.00  0.00    +0.000 A 
ATOM      7  F   UNL     1       2.686  -1.614   1.626  0.00  0.00    +0.000 F 
ATOM      8  F   UNL     1       4.163  -1.880   3.913  0.00  0.00    +0.000 F 
ATOM      9  F   UNL     1       3.076  -3.094   6.103  0.00  0.00    +0.000 F 
ATOM     10  F   UNL     1       0.522  -4.055   6.010  0.00  0.00    +0.000 F 
ATOM     11  F   UNL     1      -0.956  -3.785   3.724  0.00  0.00    +0.000 F 
ENDROOT
BRANCH   1  12
ATOM     12  O   UNL     1       0.093  -2.553   1.502  0.00  0.00    +0.000 OA
BRANCH  12  13
ATOM     13  C   UNL     1      -0.556  -1.324   1.453  0.00  0.00    +0.000 C 
ATOM     14  O   UNL     1      -0.485  -0.442   2.297  0.00  0.00    +0.000 OA
BRANCH  13  16
ATOM     15  C   UNL     1      -1.840   0.183  -0.110  0.00  0.00    +0.000 C 
ATOM     16  C   UNL     1      -1.364  -1.240   0.172  0.00  0.00    +0.000 C 
ATOM     17  C   UNL     1      -2.582  -2.143   0.226  0.00  0.00    +0.000 C 
ATOM     18  S   UNL     1      -3.853  -1.175   1.079  0.00  0.00    +0.000 S 
ATOM     19  C   UNL     1      -3.139   0.366   0.627  0.00  0.00    +0.000 C 
ATOM     20  O   UNL     1      -3.694   1.436   0.815  0.00  0.00    +0.000 OA
ENDBRANCH  13  16
ENDBRANCH  12  13
ENDBRANCH   1  12
TORSDOF 3
