MODEL 1
REMARK VINA RESULT:      -3.9      0.000      0.000
REMARK  Name = *****
REMARK  2 active torsions:
REMARK  status: ('A' for Active; 'I' for Inactive)
REMARK    1  A    between atoms: C_5  and  C_6
REMARK    2  A    between atoms: C_6  and  C_8
REMARK                            x       y       z     vdW  Elec       q    Type
REMARK                         _______ _______ _______ _____ _____    ______ ____
ROOT
ATOM      1  C   UNL     1      87.335  70.815  85.162  0.00  0.00    +0.000 C 
ATOM      2  O   UNL     1      87.150  69.700  84.695  0.00  0.00    +0.000 OA
ENDROOT
BRANCH   1   3
ATOM      3  C   UNL     1      86.882  71.100  86.543  0.00  0.00    +0.000 A 
ATOM      4  C   UNL     1      85.618  71.693  86.682  0.00  0.00    +0.000 A 
ATOM      5  C   UNL     1      85.121  72.005  87.947  0.00  0.00    +0.000 A 
ATOM      6  C   UNL     1      85.878  71.715  89.082  0.00  0.00    +0.000 A 
ATOM      7  C   UNL     1      87.126  71.102  88.950  0.00  0.00    +0.000 A 
ATOM      8  C   UNL     1      87.631  70.786  87.684  0.00  0.00    +0.000 A 
ATOM      9 CL   UNL     1      89.151  69.967  87.620  0.00  0.00    +0.000 Cl
ENDBRANCH   1   3
BRANCH   1  14
ATOM     10  C   UNL     1      91.278  73.417  83.130  0.00  0.00    +0.000 C 
ATOM     11  C   UNL     1      91.590  71.932  83.131  0.00  0.00    +0.000 C 
ATOM     12  S   UNL     1      90.452  71.136  84.300  0.00  0.00    +0.000 S 
ATOM     13  C   UNL     1      89.098  72.170  83.959  0.00  0.00    +0.000 C 
ATOM     14  C   UNL     1      87.839  71.974  84.375  0.00  0.00    +0.000 C 
ATOM     15  S   UNL     1      89.471  73.605  83.026  0.00  0.00    +0.000 S 
ENDBRANCH   1  14
TORSDOF 2
ENDMDL
