REMARK  Name = *****
REMARK  6 active torsions:
REMARK  status: ('A' for Active; 'I' for Inactive)
REMARK    1  A    between atoms: C_1  and  C_2
REMARK    2  A    between atoms: C_5  and  C_8
REMARK    3  A    between atoms: C_9  and  C_10
REMARK    4  A    between atoms: C_15  and  C_16
REMARK    5  A    between atoms: C_16  and  S_17
REMARK    6  A    between atoms: S_17  and  C_18
REMARK                            x       y       z     vdW  Elec       q    Type
REMARK                         _______ _______ _______ _____ _____    ______ ____
ROOT
ATOM      1  C   UNL     1       6.915   0.154  -0.806  0.00  0.00    +0.000 C 
ATOM      2  C   UNL     1       8.088   0.157  -1.063  0.00  0.00    +0.000 C 
ENDROOT
BRANCH   1   7
ATOM      3  C   UNL     1       1.307   0.086   0.398  0.00  0.00    +0.000 C 
ATOM      4  C   UNL     1       2.779   0.107   0.113  0.00  0.00    +0.000 A 
ATOM      5  C   UNL     1       3.427   1.313  -0.184  0.00  0.00    +0.000 A 
ATOM      6  C   UNL     1       4.791   1.330  -0.483  0.00  0.00    +0.000 A 
ATOM      7  C   UNL     1       5.518   0.139  -0.499  0.00  0.00    +0.000 A 
ATOM      8  C   UNL     1       4.878  -1.069  -0.219  0.00  0.00    +0.000 A 
ATOM      9  C   UNL     1       3.513  -1.085   0.080  0.00  0.00    +0.000 A 
ENDBRANCH   1   7
BRANCH   2  10
ATOM     10  C   UNL     1       9.490   0.153  -1.363  0.00  0.00    +0.000 A 
ATOM     11  C   UNL     1      10.156   1.386  -1.399  0.00  0.00    +0.000 A 
ATOM     12  C   UNL     1      11.520   1.447  -1.681  0.00  0.00    +0.000 A 
ATOM     13  C   UNL     1      12.229   0.276  -1.929  0.00  0.00    +0.000 A 
ATOM     14  C   UNL     1      11.573  -0.956  -1.895  0.00  0.00    +0.000 A 
ATOM     15  C   UNL     1      10.196  -1.039  -1.611  0.00  0.00    +0.000 A 
BRANCH  15  16
ATOM     16  C   UNL     1       9.537  -2.398  -1.592  0.00  0.00    +0.000 C 
BRANCH  16  17
ATOM     17  S   UNL     1      10.027  -3.427  -0.168  0.00  0.00    +0.000 S 
ATOM     18  C   UNL     1       9.240  -2.488   1.165  0.00  0.00    +0.000 C 
ENDBRANCH  16  17
ENDBRANCH  15  16
ENDBRANCH   2  10
TORSDOF 4
