MODEL 1
REMARK VINA RESULT:      -4.5      0.000      0.000
REMARK  Name = *****
REMARK  6 active torsions:
REMARK  status: ('A' for Active; 'I' for Inactive)
REMARK    1  A    between atoms: C_1  and  C_2
REMARK    2  A    between atoms: C_7  and  C_8
REMARK    3  A    between atoms: C_8  and  O_9
REMARK    4  A    between atoms: O_9  and  C_10
REMARK    5  A    between atoms: C_10  and  C_12
REMARK    6  A    between atoms: C_17  and  C_18
REMARK                            x       y       z     vdW  Elec       q    Type
REMARK                         _______ _______ _______ _____ _____    ______ ____
ROOT
ATOM      1  O   UNL     1     103.617 124.891  80.270  0.00  0.00    +0.000 OA
ENDROOT
BRANCH   1   2
ATOM      2  C   UNL     1     104.830 124.466  80.698  0.00  0.00    +0.000 C 
ATOM      3  O   UNL     1     105.897 125.030  80.525  0.00  0.00    +0.000 OA
BRANCH   2   4
ATOM      4  C   UNL     1     104.659 123.197  81.460  0.00  0.00    +0.000 A 
ATOM      5  C   UNL     1     104.664 121.977  80.761  0.00  0.00    +0.000 A 
ATOM      6  C   UNL     1     104.532 120.768  81.444  0.00  0.00    +0.000 A 
ATOM      7  C   UNL     1     104.400 120.765  82.829  0.00  0.00    +0.000 A 
ATOM      8  C   UNL     1     104.400 121.970  83.533  0.00  0.00    +0.000 A 
ATOM      9  C   UNL     1     104.523 123.200  82.864  0.00  0.00    +0.000 A 
ATOM     10  C   UNL     1     104.522 124.469  83.672  0.00  0.00    +0.000 C 
ENDBRANCH   2   4
ENDBRANCH   1   2
BRANCH   1  11
ATOM     11  C   UNL     1     103.454 126.309  80.164  0.00  0.00    +0.000 C 
BRANCH  11  18
ATOM     12  C   UNL     1     104.522 128.738  81.583  0.00  0.00    +0.000 C 
ATOM     13  C   UNL     1     103.342 127.969  82.109  0.00  0.00    +0.000 A 
ATOM     14  C   UNL     1     102.723 128.396  83.295  0.00  0.00    +0.000 A 
ATOM     15  C   UNL     1     101.630 127.706  83.821  0.00  0.00    +0.000 A 
ATOM     16  C   UNL     1     101.144 126.578  83.170  0.00  0.00    +0.000 A 
ATOM     17  C   UNL     1     101.742 126.145  81.990  0.00  0.00    +0.000 A 
ATOM     18  C   UNL     1     102.835 126.837  81.437  0.00  0.00    +0.000 A 
ENDBRANCH  11  18
ENDBRANCH   1  11
TORSDOF 4
ENDMDL
