MODEL 1
REMARK VINA RESULT:      -4.6      0.000      0.000
REMARK  Name = *****
REMARK  2 active torsions:
REMARK  status: ('A' for Active; 'I' for Inactive)
REMARK    1  A    between atoms: C_4  and  C_7
REMARK    2  A    between atoms: C_7  and  N_8
REMARK                            x       y       z     vdW  Elec       q    Type
REMARK                         _______ _______ _______ _____ _____    ______ ____
ROOT
ATOM      1  N   UNL     1     103.021 125.924  82.590  0.00  0.00    +0.000 NA
ATOM      2  S   UNL     1     104.127 126.050  81.333  0.00  0.00    +0.000 S 
ATOM      3  O   UNL     1     103.502 126.264  79.986  0.00  0.00    +0.000 OA
ATOM      4  C   UNL     1     104.505 124.313  81.397  0.00  0.00    +0.000 A 
ATOM      5  C   UNL     1     105.039 123.559  80.359  0.00  0.00    +0.000 A 
ATOM      6  C   UNL     1     105.306 122.206  80.580  0.00  0.00    +0.000 A 
ATOM      7  C   UNL     1     105.041 121.628  81.827  0.00  0.00    +0.000 A 
ATOM      8  C   UNL     1     104.499 122.397  82.861  0.00  0.00    +0.000 A 
ATOM      9  C   UNL     1     104.229 123.739  82.622  0.00  0.00    +0.000 A 
ATOM     10  S   UNL     1     103.524 124.870  83.801  0.00  0.00    +0.000 S 
ATOM     11  O   UNL     1     104.708 125.376  84.569  0.00  0.00    +0.000 OA
ENDROOT
BRANCH   1  12
ATOM     12  C   UNL     1     101.594 126.010  82.253  0.00  0.00    +0.000 C 
BRANCH  12  16
ATOM     13  C   UNL     1      99.631 129.525  83.818  0.00  0.00    +0.000 A 
ATOM     14  C   UNL     1      98.886 128.543  83.170  0.00  0.00    +0.000 A 
ATOM     15  C   UNL     1      99.520 127.405  82.667  0.00  0.00    +0.000 A 
ATOM     16  C   UNL     1     100.906 127.242  82.805  0.00  0.00    +0.000 A 
ATOM     17  C   UNL     1     101.644 128.237  83.463  0.00  0.00    +0.000 A 
ATOM     18  C   UNL     1     101.008 129.373  83.966  0.00  0.00    +0.000 A 
ENDBRANCH  12  16
ENDBRANCH   1  12
TORSDOF 2
ENDMDL
