MODEL 1
REMARK VINA RESULT:      -4.3      0.000      0.000
REMARK  Name = *****
REMARK  5 active torsions:
REMARK  status: ('A' for Active; 'I' for Inactive)
REMARK    1  A    between atoms: C_1  and  O_2
REMARK    2  A    between atoms: O_2  and  C_3
REMARK    3  A    between atoms: C_6  and  N_9
REMARK    4  A    between atoms: N_9  and  S_10
REMARK    5  A    between atoms: S_10  and  C_11
REMARK                            x       y       z     vdW  Elec       q    Type
REMARK                         _______ _______ _______ _____ _____    ______ ____
ROOT
ATOM      1  N   UNL     1     101.736 126.819  81.724  0.00  0.00    +0.000 N 
ATOM      2  H   UNL     1     101.866 127.598  81.137  0.00  0.00    +0.000 HD
ENDROOT
BRANCH   1   6
ATOM      3  C   UNL     1     104.682 123.761  81.779  0.00  0.00    +0.000 A 
ATOM      4  C   UNL     1     104.359 124.382  80.575  0.00  0.00    +0.000 A 
ATOM      5  C   UNL     1     103.383 125.388  80.538  0.00  0.00    +0.000 A 
ATOM      6  C   UNL     1     102.693 125.781  81.693  0.00  0.00    +0.000 A 
ATOM      7  C   UNL     1     103.054 125.166  82.901  0.00  0.00    +0.000 A 
ATOM      8  C   UNL     1     104.027 124.162  82.941  0.00  0.00    +0.000 A 
BRANCH   3  10
ATOM      9  C   UNL     1     105.724 121.809  80.914  0.00  0.00    +0.000 C 
ATOM     10  O   UNL     1     105.609 122.771  81.954  0.00  0.00    +0.000 OA
ENDBRANCH   3  10
ENDBRANCH   1   6
BRANCH   1  11
ATOM     11  S   UNL     1     100.395 126.781  82.714  0.00  0.00    +0.000 S 
BRANCH  11  12
ATOM     12  C   UNL     1     100.486 128.423  83.412  0.00  0.00    +0.000 A 
ATOM     13  C   UNL     1     101.665 128.900  83.996  0.00  0.00    +0.000 A 
ATOM     14  C   UNL     1     101.714 130.186  84.535  0.00  0.00    +0.000 A 
ATOM     15  C   UNL     1     100.583 131.001  84.501  0.00  0.00    +0.000 A 
ATOM     16  C   UNL     1      99.403 130.530  83.929  0.00  0.00    +0.000 A 
ATOM     17  C   UNL     1      99.353 129.243  83.388  0.00  0.00    +0.000 A 
ENDBRANCH  11  12
ENDBRANCH   1  11
TORSDOF 4
ENDMDL
