REMARK  Name = *****
REMARK  4 active torsions:
REMARK  status: ('A' for Active; 'I' for Inactive)
REMARK    1  A    between atoms: C_1  and  C_2
REMARK    2  A    between atoms: C_2  and  N_3
REMARK    3  A    between atoms: N_3  and  C_4
REMARK    4  A    between atoms: C_10  and  C_12
REMARK                            x       y       z     vdW  Elec       q    Type
REMARK                         _______ _______ _______ _____ _____    ______ ____
ROOT
ATOM      1  N   UNL     1       3.058  -0.603  -1.415  0.00  0.00    +0.000 N 
ATOM      2  C   UNL     1       4.323  -1.157  -1.112  0.00  0.00    +0.000 C 
ATOM      3  O   UNL     1       4.820  -2.184  -1.571  0.00  0.00    +0.000 OA
ENDROOT
BRANCH   2   4
ATOM      4  C   UNL     1       5.175  -0.477  -0.119  0.00  0.00    +0.000 A 
ATOM      5  C   UNL     1       4.997  -0.807   1.231  0.00  0.00    +0.000 A 
ATOM      6  C   UNL     1       5.807  -0.213   2.200  0.00  0.00    +0.000 A 
ATOM      7  C   UNL     1       6.796   0.694   1.820  0.00  0.00    +0.000 A 
ATOM      8  C   UNL     1       6.984   1.007   0.470  0.00  0.00    +0.000 A 
ATOM      9  C   UNL     1       6.178   0.416  -0.506  0.00  0.00    +0.000 A 
ATOM     10 CL   UNL     1       6.438   0.856  -2.154  0.00  0.00    +0.000 Cl
ENDBRANCH   2   4
BRANCH   1  11
ATOM     11  C   UNL     1       2.094  -1.318  -2.237  0.00  0.00    +0.000 A 
ATOM     12  C   UNL     1       2.215  -2.690  -2.508  0.00  0.00    +0.000 A 
ATOM     13  C   UNL     1       1.279  -3.379  -3.292  0.00  0.00    +0.000 A 
ATOM     14  C   UNL     1       0.184  -2.712  -3.824  0.00  0.00    +0.000 A 
ATOM     15  C   UNL     1       0.025  -1.358  -3.565  0.00  0.00    +0.000 A 
ATOM     16  C   UNL     1       0.965  -0.675  -2.780  0.00  0.00    +0.000 A 
ENDBRANCH   1  11
BRANCH   1  18
ATOM     17  C   UNL     1       1.694   0.664   0.250  0.00  0.00    +0.000 C 
ATOM     18  C   UNL     1       2.682   0.733  -0.908  0.00  0.00    +0.000 C 
ENDBRANCH   1  18
TORSDOF 3
