MODEL 1
REMARK VINA RESULT:      -3.8      0.000      0.000
REMARK  Name = *****
REMARK  6 active torsions:
REMARK  status: ('A' for Active; 'I' for Inactive)
REMARK    1  A    between atoms: C_1  and  C_2
REMARK    2  A    between atoms: C_5  and  S_8
REMARK    3  A    between atoms: S_8  and  C_9
REMARK    4  A    between atoms: C_9  and  N_10
REMARK    5  A    between atoms: N_10  and  C_11
REMARK    6  A    between atoms: N_10  and  C_12
REMARK                            x       y       z     vdW  Elec       q    Type
REMARK                         _______ _______ _______ _____ _____    ______ ____
ROOT
ATOM      1  C   UNL     1      86.663  65.053  86.552  0.00  0.00    +0.000 C 
ENDROOT
BRANCH   1   2
ATOM      2  N   UNL     1      87.720  65.395  87.502  0.00  0.00    +0.000 N 
ATOM      3  C   UNL     1      88.943  65.959  86.940  0.00  0.00    +0.000 C 
BRANCH   2   4
ATOM      4  C   UNL     1      87.671  65.035  88.846  0.00  0.00    +0.000 A 
ATOM      5  C   UNL     1      88.668  64.256  89.458  0.00  0.00    +0.000 A 
ATOM      6  C   UNL     1      88.610  63.890  90.811  0.00  0.00    +0.000 A 
ATOM      7  C   UNL     1      87.540  64.292  91.598  0.00  0.00    +0.000 A 
ATOM      8  C   UNL     1      86.533  65.060  91.029  0.00  0.00    +0.000 A 
ATOM      9  C   UNL     1      86.603  65.421  89.677  0.00  0.00    +0.000 A 
ENDBRANCH   2   4
ENDBRANCH   1   2
BRANCH   1  10
ATOM     10  S   UNL     1      86.649  63.264  86.187  0.00  0.00    +0.000 S 
BRANCH  10  15
ATOM     11  C   UNL     1      83.543  61.205  91.016  0.00  0.00    +0.000 C 
ATOM     12  C   UNL     1      84.326  61.730  89.848  0.00  0.00    +0.000 A 
ATOM     13  C   UNL     1      85.648  61.323  89.642  0.00  0.00    +0.000 A 
ATOM     14  C   UNL     1      86.369  61.782  88.535  0.00  0.00    +0.000 A 
ATOM     15  C   UNL     1      85.777  62.657  87.620  0.00  0.00    +0.000 A 
ATOM     16  C   UNL     1      84.445  63.037  87.806  0.00  0.00    +0.000 A 
ATOM     17  C   UNL     1      83.723  62.577  88.912  0.00  0.00    +0.000 A 
ENDBRANCH  10  15
ENDBRANCH   1  10
TORSDOF 4
ENDMDL
