REMARK  Name = *****
REMARK  5 active torsions:
REMARK  status: ('A' for Active; 'I' for Inactive)
REMARK    1  A    between atoms: C_4  and  C_7
REMARK    2  A    between atoms: C_7  and  C_8
REMARK    3  A    between atoms: C_8  and  C_9
REMARK    4  A    between atoms: C_8  and  C_12
REMARK    5  A    between atoms: C_9  and  C_10
REMARK                            x       y       z     vdW  Elec       q    Type
REMARK                         _______ _______ _______ _____ _____    ______ ____
ROOT
ATOM      1  C   UNL     1      -3.816  -0.766  -0.359  0.00  0.00    +0.000 C 
ENDROOT
BRANCH   1   2
ATOM      2  C   UNL     1      -5.282  -0.346  -0.365  0.00  0.00    +0.000 A 
ATOM      3  C   UNL     1      -5.950  -0.221  -1.594  0.00  0.00    +0.000 A 
ATOM      4  C   UNL     1      -7.285   0.186  -1.647  0.00  0.00    +0.000 A 
ATOM      5  C   UNL     1      -7.971   0.478  -0.472  0.00  0.00    +0.000 A 
ATOM      6  C   UNL     1      -7.323   0.366   0.754  0.00  0.00    +0.000 A 
ATOM      7  C   UNL     1      -5.987  -0.041   0.809  0.00  0.00    +0.000 A 
ENDBRANCH   1   2
BRANCH   1   8
ATOM      8  C   UNL     1      -3.395  -1.722   0.787  0.00  0.00    +0.000 C 
BRANCH   8  12
ATOM      9  C   UNL     1      -5.248  -5.618   0.561  0.00  0.00    +0.000 A 
ATOM     10  C   UNL     1      -4.267  -5.258  -0.360  0.00  0.00    +0.000 A 
ATOM     11  C   UNL     1      -3.666  -4.000  -0.286  0.00  0.00    +0.000 A 
ATOM     12  C   UNL     1      -4.044  -3.087   0.709  0.00  0.00    +0.000 A 
ATOM     13  C   UNL     1      -5.028  -3.463   1.633  0.00  0.00    +0.000 A 
ATOM     14  C   UNL     1      -5.628  -4.721   1.557  0.00  0.00    +0.000 A 
ENDBRANCH   8  12
ENDBRANCH   1   8
BRANCH   1  15
ATOM     15  C   UNL     1      -2.894   0.462  -0.431  0.00  0.00    +0.000 C 
BRANCH  15  16
ATOM     16  C   UNL     1      -2.979   1.337   0.791  0.00  0.00    +0.000 C 
ATOM     17  O   UNL     1      -2.168   1.284   1.711  0.00  0.00    +0.000 OA
ENDBRANCH  15  16
ENDBRANCH   1  15
TORSDOF 5
