REMARK  Name = *****
REMARK  4 active torsions:
REMARK  status: ('A' for Active; 'I' for Inactive)
REMARK    1  A    between atoms: C_4  and  C_8
REMARK    2  A    between atoms: C_8  and  O_10
REMARK    3  A    between atoms: O_10  and  C_11
REMARK    4  A    between atoms: C_11  and  C_12
REMARK                            x       y       z     vdW  Elec       q    Type
REMARK                         _______ _______ _______ _____ _____    ______ ____
ROOT
ATOM      1  C   UNL     1      -1.060  -1.408   2.078  0.00  0.00    +0.000 C 
ATOM      2  O   UNL     1      -1.676  -2.407   2.430  0.00  0.00    +0.000 OA
ENDROOT
BRANCH   1   6
ATOM      3  C   UNL     1      -1.784   0.855  -0.835  0.00  0.00    +0.000 C 
ATOM      4  C   UNL     1      -2.911  -0.177  -0.750  0.00  0.00    +0.000 C 
ATOM      5  C   UNL     1      -2.147  -1.430  -0.270  0.00  0.00    +0.000 C 
ATOM      6  C   UNL     1      -1.060  -0.827   0.669  0.00  0.00    +0.000 C 
ATOM      7  C   UNL     1      -1.393   0.688   0.639  0.00  0.00    +0.000 C 
ATOM      8  C   UNL     1      -2.752   0.929   1.262  0.00  0.00    +0.000 C 
ATOM      9  C   UNL     1      -3.660   0.393   0.433  0.00  0.00    +0.000 C 
ATOM     10  F   UNL     1       0.159  -1.002   0.063  0.00  0.00    +0.000 F 
ENDBRANCH   1   6
BRANCH   1  11
ATOM     11  O   UNL     1      -0.240  -0.676   2.886  0.00  0.00    +0.000 OA
BRANCH  11  12
ATOM     12  C   UNL     1      -0.094  -1.156   4.227  0.00  0.00    +0.000 C 
BRANCH  12  13
ATOM     13  C   UNL     1       1.158  -1.986   4.332  0.00  0.00    +0.000 A 
ATOM     14  C   UNL     1       2.417  -1.372   4.384  0.00  0.00    +0.000 A 
ATOM     15  C   UNL     1       3.577  -2.142   4.465  0.00  0.00    +0.000 A 
ATOM     16  C   UNL     1       3.491  -3.533   4.487  0.00  0.00    +0.000 A 
ATOM     17  C   UNL     1       2.246  -4.155   4.423  0.00  0.00    +0.000 A 
ATOM     18  C   UNL     1       1.084  -3.386   4.341  0.00  0.00    +0.000 A 
ENDBRANCH  12  13
ENDBRANCH  11  12
ENDBRANCH   1  11
TORSDOF 4
