MODEL 1
REMARK VINA RESULT:      -4.6      0.000      0.000
REMARK  Name = *****
REMARK  2 active torsions:
REMARK  status: ('A' for Active; 'I' for Inactive)
REMARK    1  A    between atoms: C_4  and  C_7
REMARK    2  A    between atoms: C_8  and  C_9
REMARK                            x       y       z     vdW  Elec       q    Type
REMARK                         _______ _______ _______ _____ _____    ______ ____
ROOT
ATOM      1  C   UNL     1     103.160 125.425  81.843  0.00  0.00    +0.000 C 
ATOM      2  C   UNL     1     102.512 126.569  81.570  0.00  0.00    +0.000 C 
ATOM      3  F   UNL     1     102.916 124.783  83.009  0.00  0.00    +0.000 F 
ENDROOT
BRANCH   2   4
ATOM      4  C   UNL     1     101.512 127.208  82.439  0.00  0.00    +0.000 A 
ATOM      5  C   UNL     1     100.181 126.773  82.502  0.00  0.00    +0.000 A 
ATOM      6  C   UNL     1      99.271 127.384  83.370  0.00  0.00    +0.000 A 
ATOM      7  C   UNL     1      99.692 128.425  84.192  0.00  0.00    +0.000 A 
ATOM      8  C   UNL     1     101.015 128.860  84.156  0.00  0.00    +0.000 A 
ATOM      9  C   UNL     1     101.922 128.248  83.286  0.00  0.00    +0.000 A 
ATOM     10 BR   UNL     1      98.464 129.251  85.369  0.00  0.00    +0.000 Br
ENDBRANCH   2   4
BRANCH   1  14
ATOM     11  C   UNL     1     106.132 123.725  79.259  0.00  0.00    +0.000 A 
ATOM     12  C   UNL     1     105.781 125.068  79.156  0.00  0.00    +0.000 A 
ATOM     13  C   UNL     1     104.810 125.604  80.005  0.00  0.00    +0.000 A 
ATOM     14  C   UNL     1     104.169 124.804  80.963  0.00  0.00    +0.000 A 
ATOM     15  C   UNL     1     104.545 123.456  81.064  0.00  0.00    +0.000 A 
ATOM     16  C   UNL     1     105.518 122.920  80.216  0.00  0.00    +0.000 A 
ENDBRANCH   1  14
TORSDOF 2
ENDMDL
