MODEL 1
REMARK VINA RESULT:      -3.7      0.000      0.000
REMARK  Name = *****
REMARK  3 active torsions:
REMARK  status: ('A' for Active; 'I' for Inactive)
REMARK    1  A    between atoms: C_4  and  C_6
REMARK    2  A    between atoms: C_6  and  C_7
REMARK    3  A    between atoms: C_7  and  C_8
REMARK                            x       y       z     vdW  Elec       q    Type
REMARK                         _______ _______ _______ _____ _____    ______ ____
ROOT
ATOM      1  C   UNL     1     101.374 126.274  82.222  0.00  0.00    +0.000 C 
ENDROOT
BRANCH   1   2
ATOM      2  C   UNL     1     102.545 127.183  81.946  0.00  0.00    +0.000 A 
ATOM      3  C   UNL     1     102.949 128.126  82.900  0.00  0.00    +0.000 A 
ATOM      4  C   UNL     1     104.021 128.982  82.640  0.00  0.00    +0.000 A 
ATOM      5  C   UNL     1     104.694 128.906  81.422  0.00  0.00    +0.000 A 
ATOM      6  C   UNL     1     104.296 127.976  80.463  0.00  0.00    +0.000 A 
ATOM      7  C   UNL     1     103.224 127.119  80.722  0.00  0.00    +0.000 A 
ENDBRANCH   1   2
BRANCH   1   8
ATOM      8  C   UNL     1     100.930 126.360  83.684  0.00  0.00    +0.000 C 
BRANCH   8  12
ATOM      9  C   UNL     1      99.412 130.183  83.415  0.00  0.00    +0.000 C 
ATOM     10  C   UNL     1      99.207 128.881  83.628  0.00  0.00    +0.000 C 
ATOM     11  C   UNL     1      98.943 127.725  82.692  0.00  0.00    +0.000 C 
ATOM     12  C   UNL     1      99.456 126.768  83.792  0.00  0.00    +0.000 C 
ATOM     13  S   UNL     1      99.128 127.997  85.111  0.00  0.00    +0.000 S 
ENDBRANCH   8  12
ENDBRANCH   1   8
TORSDOF 3
ENDMDL
