REMARK  Name = *****
REMARK  3 active torsions:
REMARK  status: ('A' for Active; 'I' for Inactive)
REMARK    1  A    between atoms: C_4  and  C_7
REMARK    2  A    between atoms: C_8  and  C_9
REMARK    3  A    between atoms: C_9  and  C_11
REMARK                            x       y       z     vdW  Elec       q    Type
REMARK                         _______ _______ _______ _____ _____    ______ ____
ROOT
ATOM      1  C   UNL     1      -5.176  -0.305  -0.489  0.00  0.00    +0.000 C 
ATOM      2  O   UNL     1      -5.564   0.812  -0.814  0.00  0.00    +0.000 OA
ENDROOT
BRANCH   1   3
ATOM      3  C   UNL     1      -6.163  -1.399  -0.300  0.00  0.00    +0.000 A 
ATOM      4  C   UNL     1      -5.944  -2.464   0.581  0.00  0.00    +0.000 A 
ATOM      5  C   UNL     1      -6.919  -3.449   0.720  0.00  0.00    +0.000 A 
ATOM      6  C   UNL     1      -8.108  -3.395   0.007  0.00  0.00    +0.000 A 
ATOM      7  C   UNL     1      -8.323  -2.327  -0.851  0.00  0.00    +0.000 A 
ATOM      8  C   UNL     1      -7.369  -1.327  -1.009  0.00  0.00    +0.000 A 
ATOM      9  F   UNL     1      -9.470  -2.258  -1.540  0.00  0.00    +0.000 F 
ATOM     10  F   UNL     1      -6.703  -4.467   1.563  0.00  0.00    +0.000 F 
ENDBRANCH   1   3
BRANCH   1  12
ATOM     11  C   UNL     1      -2.835   0.374  -0.306  0.00  0.00    +0.000 C 
ATOM     12  C   UNL     1      -3.733  -0.622  -0.317  0.00  0.00    +0.000 C 
BRANCH  11  16
ATOM     13  C   UNL     1       1.384  -0.124   0.177  0.00  0.00    +0.000 A 
ATOM     14  C   UNL     1       0.672  -1.031  -0.605  0.00  0.00    +0.000 A 
ATOM     15  C   UNL     1      -0.708  -0.883  -0.767  0.00  0.00    +0.000 A 
ATOM     16  C   UNL     1      -1.391   0.167  -0.140  0.00  0.00    +0.000 A 
ATOM     17  C   UNL     1      -0.661   1.083   0.629  0.00  0.00    +0.000 A 
ATOM     18  C   UNL     1       0.719   0.935   0.792  0.00  0.00    +0.000 A 
ENDBRANCH  11  16
ENDBRANCH   1  12
TORSDOF 3
