MODEL 1
REMARK VINA RESULT:      -4.8      0.000      0.000
REMARK  Name = *****
REMARK  4 active torsions:
REMARK  status: ('A' for Active; 'I' for Inactive)
REMARK    1  A    between atoms: C_4  and  C_10
REMARK    2  A    between atoms: C_5  and  C_7
REMARK    3  A    between atoms: C_7  and  C_8
REMARK    4  A    between atoms: C_11  and  C_12
REMARK                            x       y       z     vdW  Elec       q    Type
REMARK                         _______ _______ _______ _____ _____    ______ ____
ROOT
ATOM      1  C   UNL     1      98.823 128.725  83.417  0.00  0.00    +0.000 A 
ATOM      2  C   UNL     1      98.556 127.584  82.667  0.00  0.00    +0.000 A 
ATOM      3  C   UNL     1      99.601 126.740  82.288  0.00  0.00    +0.000 A 
ATOM      4  C   UNL     1     100.919 127.034  82.656  0.00  0.00    +0.000 A 
ATOM      5  C   UNL     1     101.201 128.193  83.404  0.00  0.00    +0.000 A 
ATOM      6  C   UNL     1     100.134 129.028  83.785  0.00  0.00    +0.000 A 
ENDROOT
BRANCH   4   7
ATOM      7  C   UNL     1     101.952 126.120  82.267  0.00  0.00    +0.000 C 
ATOM      8  C   UNL     1     102.833 125.363  81.959  0.00  0.00    +0.000 C 
BRANCH   8   9
ATOM      9  C   UNL     1     103.904 124.478  81.620  0.00  0.00    +0.000 A 
ATOM     10  C   UNL     1     104.406 123.588  82.573  0.00  0.00    +0.000 A 
ATOM     11  C   UNL     1     105.472 122.744  82.249  0.00  0.00    +0.000 A 
ATOM     12  C   UNL     1     106.029 122.794  80.971  0.00  0.00    +0.000 A 
ATOM     13  C   UNL     1     105.527 123.675  80.015  0.00  0.00    +0.000 A 
ATOM     14  C   UNL     1     104.462 124.519  80.340  0.00  0.00    +0.000 A 
ATOM     15 CL   UNL     1     107.350 121.764  80.575  0.00  0.00    +0.000 Cl
ENDBRANCH   8   9
ENDBRANCH   4   7
BRANCH   5  16
ATOM     16  C   UNL     1     102.604 128.542  83.850  0.00  0.00    +0.000 C 
BRANCH  16  17
ATOM     17  C   UNL     1     102.738 129.951  84.246  0.00  0.00    +0.000 C 
ATOM     18  N   UNL     1     102.871 131.062  84.560  0.00  0.00    +0.000 NA
ENDBRANCH  16  17
ENDBRANCH   5  16
TORSDOF 4
ENDMDL
