REMARK  Name = *****
REMARK  4 active torsions:
REMARK  status: ('A' for Active; 'I' for Inactive)
REMARK    1  A    between atoms: C_1  and  N_2
REMARK    2  A    between atoms: N_2  and  C_3
REMARK    3  A    between atoms: N_2  and  C_10
REMARK    4  A    between atoms: C_3  and  C_4
REMARK                            x       y       z     vdW  Elec       q    Type
REMARK                         _______ _______ _______ _____ _____    ______ ____
ROOT
ATOM      1  C   UNL     1       2.262   0.891  -1.067  0.00  0.00    +0.000 C 
ATOM      2  N   UNL     1       2.407   0.157   0.183  0.00  0.00    +0.000 N 
ENDROOT
BRANCH   2   3
ATOM      3  C   UNL     1       2.265   0.807   1.389  0.00  0.00    +0.000 A 
ATOM      4  C   UNL     1       1.883   2.126   1.591  0.00  0.00    +0.000 A 
ATOM      5  C   UNL     1       1.814   2.509   2.962  0.00  0.00    +0.000 A 
ATOM      6  C   UNL     1       2.143   1.470   3.796  0.00  0.00    +0.000 A 
ATOM      7  S   UNL     1       2.526   0.056   2.927  0.00  0.00    +0.000 S 
ENDBRANCH   2   3
BRANCH   2   8
ATOM      8  C   UNL     1       3.032  -1.170   0.089  0.00  0.00    +0.000 C 
BRANCH   8   9
ATOM      9  C   UNL     1       2.066  -2.305   0.368  0.00  0.00    +0.000 A 
ATOM     10  C   UNL     1       0.728  -2.260  -0.051  0.00  0.00    +0.000 A 
ATOM     11  C   UNL     1      -0.130  -3.337   0.183  0.00  0.00    +0.000 A 
ATOM     12  C   UNL     1       0.341  -4.478   0.828  0.00  0.00    +0.000 A 
ATOM     13  C   UNL     1       1.671  -4.544   1.238  0.00  0.00    +0.000 A 
ATOM     14  C   UNL     1       2.529  -3.467   1.005  0.00  0.00    +0.000 A 
ENDBRANCH   8   9
ENDBRANCH   2   8
TORSDOF 3
