MODEL 1
REMARK VINA RESULT:      -4.6      0.000      0.000
REMARK  Name = *****
REMARK  3 active torsions:
REMARK  status: ('A' for Active; 'I' for Inactive)
REMARK    1  A    between atoms: C_6  and  O_7
REMARK    2  A    between atoms: O_7  and  C_8
REMARK    3  A    between atoms: C_8  and  C_10
REMARK                            x       y       z     vdW  Elec       q    Type
REMARK                         _______ _______ _______ _____ _____    ______ ____
ROOT
ATOM      1  C   UNL     1     101.781 125.993  82.883  0.00  0.00    +0.000 C 
ATOM      2  O   UNL     1     102.253 125.369  83.822  0.00  0.00    +0.000 OA
ENDROOT
BRANCH   1   3
ATOM      3  C   UNL     1     100.880 127.150  83.074  0.00  0.00    +0.000 A 
ATOM      4  C   UNL     1      99.559 127.157  82.621  0.00  0.00    +0.000 A 
ATOM      5  C   UNL     1      98.745 128.273  82.814  0.00  0.00    +0.000 A 
ATOM      6  C   UNL     1      99.255 129.399  83.459  0.00  0.00    +0.000 A 
ATOM      7  C   UNL     1     100.576 129.396  83.897  0.00  0.00    +0.000 A 
ATOM      8  C   UNL     1     101.395 128.288  83.709  0.00  0.00    +0.000 A 
ATOM      9  F   UNL     1     101.067 130.480  84.511  0.00  0.00    +0.000 F 
ATOM     10  F   UNL     1      99.041 126.110  81.964  0.00  0.00    +0.000 F 
ENDBRANCH   1   3
BRANCH   1  11
ATOM     11  O   UNL     1     101.918 125.722  81.537  0.00  0.00    +0.000 OA
BRANCH  11  17
ATOM     12  C   UNL     1     103.762 127.215  80.964  0.00  0.00    +0.000 A 
ATOM     13  C   UNL     1     105.050 127.372  80.450  0.00  0.00    +0.000 A 
ATOM     14  C   UNL     1     105.751 126.259  79.980  0.00  0.00    +0.000 A 
ATOM     15  C   UNL     1     105.177 124.986  80.025  0.00  0.00    +0.000 A 
ATOM     16  C   UNL     1     103.888 124.826  80.536  0.00  0.00    +0.000 A 
ATOM     17  C   UNL     1     103.186 125.946  80.983  0.00  0.00    +0.000 A 
ATOM     18 CL   UNL     1     107.341 126.454  79.352  0.00  0.00    +0.000 Cl
ENDBRANCH  11  17
ENDBRANCH   1  11
TORSDOF 3
ENDMDL
