MODEL 1
REMARK VINA RESULT:      -4.6      0.000      0.000
REMARK  Name = *****
REMARK  4 active torsions:
REMARK  status: ('A' for Active; 'I' for Inactive)
REMARK    1  A    between atoms: C_4  and  C_7
REMARK    2  A    between atoms: C_7  and  N_8
REMARK    3  A    between atoms: N_8  and  N_9
REMARK    4  A    between atoms: N_8  and  N_11
REMARK                            x       y       z     vdW  Elec       q    Type
REMARK                         _______ _______ _______ _____ _____    ______ ____
ROOT
ATOM      1  N   UNL     1      89.666  65.934  86.303  0.00  0.00    +0.000 N 
ENDROOT
BRANCH   1   2
ATOM      2  N   UNL     1      88.887  64.720  86.380  0.00  0.00    +0.000 N 
ATOM      3  C   UNL     1      88.315  64.251  87.547  0.00  0.00    +0.000 A 
ATOM      4  C   UNL     1      88.359  64.678  88.881  0.00  0.00    +0.000 A 
ATOM      5  C   UNL     1      87.632  63.922  89.808  0.00  0.00    +0.000 A 
ATOM      6  C   UNL     1      86.899  62.800  89.414  0.00  0.00    +0.000 A 
ATOM      7  C   UNL     1      86.870  62.394  88.073  0.00  0.00    +0.000 A 
ATOM      8  C   UNL     1      87.594  63.140  87.132  0.00  0.00    +0.000 A 
ATOM      9  N   UNL     1      87.731  62.977  85.782  0.00  0.00    +0.000 NA
ATOM     10  N   UNL     1      88.512  63.947  85.327  0.00  0.00    +0.000 NA
ENDBRANCH   1   2
BRANCH   1  11
ATOM     11  N   UNL     1      90.793  65.767  85.643  0.00  0.00    +0.000 NA
ATOM     12  O   UNL     1      90.765  66.368  84.564  0.00  0.00    +0.000 OA
ENDBRANCH   1  11
BRANCH   1  13
ATOM     13  C   UNL     1      88.819  67.011  85.768  0.00  0.00    +0.000 C 
BRANCH  13  17
ATOM     14  C   UNL     1      88.287  70.289  88.536  0.00  0.00    +0.000 A 
ATOM     15  C   UNL     1      89.359  70.295  87.647  0.00  0.00    +0.000 A 
ATOM     16  C   UNL     1      89.533  69.237  86.753  0.00  0.00    +0.000 A 
ATOM     17  C   UNL     1      88.632  68.163  86.739  0.00  0.00    +0.000 A 
ATOM     18  C   UNL     1      87.556  68.167  87.641  0.00  0.00    +0.000 A 
ATOM     19  C   UNL     1      87.386  69.226  88.534  0.00  0.00    +0.000 A 
ENDBRANCH  13  17
ENDBRANCH   1  13
TORSDOF 4
ENDMDL
