MODEL 1
REMARK VINA RESULT:      -4.7      0.000      0.000
REMARK  Name = *****
REMARK  3 active torsions:
REMARK  status: ('A' for Active; 'I' for Inactive)
REMARK    1  A    between atoms: C_4  and  O_7
REMARK    2  A    between atoms: O_7  and  C_8
REMARK    3  A    between atoms: C_8  and  C_10
REMARK                            x       y       z     vdW  Elec       q    Type
REMARK                         _______ _______ _______ _____ _____    ______ ____
ROOT
ATOM      1  C   UNL     1     103.443 127.857  82.775  0.00  0.00    +0.000 C 
ATOM      2  O   UNL     1     103.969 128.908  82.442  0.00  0.00    +0.000 OA
ENDROOT
BRANCH   1   3
ATOM      3  C   UNL     1     103.732 126.580  82.092  0.00  0.00    +0.000 A 
ATOM      4  C   UNL     1     104.074 125.472  82.881  0.00  0.00    +0.000 A 
ATOM      5  C   UNL     1     104.345 124.254  82.267  0.00  0.00    +0.000 A 
ATOM      6  C   UNL     1     104.270 124.125  80.883  0.00  0.00    +0.000 A 
ATOM      7  C   UNL     1     103.918 125.213  80.094  0.00  0.00    +0.000 A 
ATOM      8  C   UNL     1     103.645 126.436  80.703  0.00  0.00    +0.000 A 
ATOM      9  F   UNL     1     103.272 127.457  79.920  0.00  0.00    +0.000 F 
ATOM     10  F   UNL     1     104.532 122.948  80.300  0.00  0.00    +0.000 F 
ATOM     11  F   UNL     1     104.680 123.199  83.022  0.00  0.00    +0.000 F 
ENDBRANCH   1   3
BRANCH   1  12
ATOM     12  O   UNL     1     102.472 127.657  83.736  0.00  0.00    +0.000 OA
BRANCH  12  16
ATOM     13  C   UNL     1      98.437 128.068  82.727  0.00  0.00    +0.000 A 
ATOM     14  C   UNL     1      99.090 126.869  82.432  0.00  0.00    +0.000 A 
ATOM     15  C   UNL     1     100.440 126.711  82.748  0.00  0.00    +0.000 A 
ATOM     16  C   UNL     1     101.130 127.768  83.341  0.00  0.00    +0.000 A 
ATOM     17  C   UNL     1     100.480 128.961  83.658  0.00  0.00    +0.000 A 
ATOM     18  C   UNL     1      99.131 129.111  83.342  0.00  0.00    +0.000 A 
ENDBRANCH  12  16
ENDBRANCH   1  12
TORSDOF 3
ENDMDL
