REMARK  Name = *****
REMARK  3 active torsions:
REMARK  status: ('A' for Active; 'I' for Inactive)
REMARK    1  A    between atoms: C_1  and  C_2
REMARK    2  A    between atoms: C_7  and  N_8
REMARK    3  A    between atoms: C_9  and  C_10
REMARK                            x       y       z     vdW  Elec       q    Type
REMARK                         _______ _______ _______ _____ _____    ______ ____
ROOT
ATOM      1  N   UNL     1       1.395  -2.164   0.508  0.00  0.00    +0.000 NA
ATOM      2  C   UNL     1       2.079  -2.771  -0.421  0.00  0.00    +0.000 C 
ATOM      3 CL   UNL     1       2.004  -2.250  -2.082  0.00  0.00    +0.000 Cl
ENDROOT
BRANCH   1  10
ATOM      4  C   UNL     1       2.467   0.530   0.718  0.00  0.00    +0.000 C 
ATOM      5  C   UNL     1       1.047   0.252   0.317  0.00  0.00    +0.000 A 
ATOM      6  C   UNL     1       0.183   1.318   0.019  0.00  0.00    +0.000 A 
ATOM      7  C   UNL     1      -1.141   1.078  -0.351  0.00  0.00    +0.000 A 
ATOM      8  C   UNL     1      -1.617  -0.227  -0.426  0.00  0.00    +0.000 A 
ATOM      9  C   UNL     1      -0.764  -1.294  -0.141  0.00  0.00    +0.000 A 
ATOM     10  C   UNL     1       0.573  -1.068   0.209  0.00  0.00    +0.000 A 
ENDBRANCH   1  10
BRANCH   2  11
ATOM     11  C   UNL     1       2.940  -3.936  -0.023  0.00  0.00    +0.000 A 
ATOM     12  C   UNL     1       3.735  -4.613  -0.957  0.00  0.00    +0.000 A 
ATOM     13  C   UNL     1       4.528  -5.694  -0.558  0.00  0.00    +0.000 A 
ATOM     14  C   UNL     1       4.532  -6.105   0.774  0.00  0.00    +0.000 A 
ATOM     15  C   UNL     1       3.746  -5.439   1.711  0.00  0.00    +0.000 A 
ATOM     16  C   UNL     1       2.954  -4.359   1.315  0.00  0.00    +0.000 A 
ENDBRANCH   2  11
TORSDOF 2
