MODEL 1
REMARK VINA RESULT:      -4.4      0.000      0.000
REMARK  Name = *****
REMARK  3 active torsions:
REMARK  status: ('A' for Active; 'I' for Inactive)
REMARK    1  A    between atoms: C_4  and  O_7
REMARK    2  A    between atoms: O_7  and  C_8
REMARK    3  A    between atoms: N_9  and  C_10
REMARK                            x       y       z     vdW  Elec       q    Type
REMARK                         _______ _______ _______ _____ _____    ______ ____
ROOT
ATOM      1  C   UNL     1      89.713  68.742  85.711  0.00  0.00    +0.000 C 
ATOM      2  N   UNL     1      90.196  67.929  86.586  0.00  0.00    +0.000 NA
ENDROOT
BRANCH   2   3
ATOM      3  C   UNL     1      90.116  66.564  86.255  0.00  0.00    +0.000 A 
ATOM      4  C   UNL     1      91.156  66.007  85.501  0.00  0.00    +0.000 A 
ATOM      5  C   UNL     1      91.144  64.655  85.148  0.00  0.00    +0.000 A 
ATOM      6  C   UNL     1      90.092  63.839  85.557  0.00  0.00    +0.000 A 
ATOM      7  C   UNL     1      89.055  64.372  86.324  0.00  0.00    +0.000 A 
ATOM      8  C   UNL     1      89.069  65.726  86.676  0.00  0.00    +0.000 A 
ATOM      9 BR   UNL     1      87.633  66.381  87.734  0.00  0.00    +0.000 Br
ENDBRANCH   2   3
BRANCH   1  10
ATOM     10  O   UNL     1      89.734  70.091  85.944  0.00  0.00    +0.000 OA
BRANCH  10  14
ATOM     11  C   UNL     1      85.999  71.524  87.096  0.00  0.00    +0.000 A 
ATOM     12  C   UNL     1      86.877  71.024  88.062  0.00  0.00    +0.000 A 
ATOM     13  C   UNL     1      88.128  70.540  87.681  0.00  0.00    +0.000 A 
ATOM     14  C   UNL     1      88.479  70.551  86.331  0.00  0.00    +0.000 A 
ATOM     15  C   UNL     1      87.621  71.067  85.362  0.00  0.00    +0.000 A 
ATOM     16  C   UNL     1      86.372  71.550  85.750  0.00  0.00    +0.000 A 
ENDBRANCH  10  14
ENDBRANCH   1  10
TORSDOF 3
ENDMDL
