MODEL 1
REMARK VINA RESULT:      -5.2      0.000      0.000
REMARK  Name = *****
REMARK  5 active torsions:
REMARK  status: ('A' for Active; 'I' for Inactive)
REMARK    1  A    between atoms: C_1  and  C_2
REMARK    2  A    between atoms: C_3  and  C_17
REMARK    3  A    between atoms: C_5  and  C_8
REMARK    4  A    between atoms: C_8  and  C_10
REMARK    5  A    between atoms: C_10  and  C_11
REMARK                            x       y       z     vdW  Elec       q    Type
REMARK                         _______ _______ _______ _____ _____    ______ ____
ROOT
ATOM      1  C   UNL     1      88.842  70.141  86.616  0.00  0.00    +0.000 C 
ATOM      2  O   UNL     1      89.684  70.794  87.236  0.00  0.00    +0.000 OA
ENDROOT
BRANCH   1   7
ATOM      3  C   UNL     1      88.988  64.329  86.950  0.00  0.00    +0.000 C 
ATOM      4  C   UNL     1      88.962  65.831  86.858  0.00  0.00    +0.000 A 
ATOM      5  C   UNL     1      89.966  66.541  86.172  0.00  0.00    +0.000 A 
ATOM      6  C   UNL     1      89.898  67.944  86.118  0.00  0.00    +0.000 A 
ATOM      7  C   UNL     1      88.848  68.648  86.726  0.00  0.00    +0.000 A 
ATOM      8  C   UNL     1      87.857  67.935  87.403  0.00  0.00    +0.000 A 
ATOM      9  C   UNL     1      87.917  66.540  87.467  0.00  0.00    +0.000 A 
ATOM     10  C   UNL     1      91.113  65.835  85.503  0.00  0.00    +0.000 C 
ENDBRANCH   1   7
BRANCH   1  11
ATOM     11  C   UNL     1      87.815  70.833  85.740  0.00  0.00    +0.000 C 
BRANCH  11  12
ATOM     12  C   UNL     1      86.601  71.338  86.483  0.00  0.00    +0.000 A 
ATOM     13  C   UNL     1      86.543  71.305  87.883  0.00  0.00    +0.000 A 
ATOM     14  C   UNL     1      85.425  71.796  88.559  0.00  0.00    +0.000 A 
ATOM     15  C   UNL     1      84.359  72.339  87.845  0.00  0.00    +0.000 A 
ATOM     16  C   UNL     1      84.413  72.397  86.455  0.00  0.00    +0.000 A 
ATOM     17  C   UNL     1      85.531  71.906  85.776  0.00  0.00    +0.000 A 
ENDBRANCH  11  12
ENDBRANCH   1  11
TORSDOF 3
ENDMDL
