REMARK  Name = *****
REMARK  5 active torsions:
REMARK  status: ('A' for Active; 'I' for Inactive)
REMARK    1  A    between atoms: C_1  and  C_2
REMARK    2  A    between atoms: C_3  and  C_9
REMARK    3  A    between atoms: C_4  and  C_8
REMARK    4  A    between atoms: C_9  and  O_11
REMARK    5  A    between atoms: O_11  and  C_12
REMARK                            x       y       z     vdW  Elec       q    Type
REMARK                         _______ _______ _______ _____ _____    ______ ____
ROOT
ATOM      1  C   UNL     1       0.245   2.363  -0.842  0.00  0.00    +0.000 C 
ATOM      2  O   UNL     1      -0.431   2.789  -1.762  0.00  0.00    +0.000 OA
ENDROOT
BRANCH   1   5
ATOM      3  C   UNL     1       2.595   0.562  -0.959  0.00  0.00    +0.000 C 
ATOM      4  C   UNL     1       1.277   0.124  -0.380  0.00  0.00    +0.000 A 
ATOM      5  C   UNL     1       0.156   0.980  -0.319  0.00  0.00    +0.000 A 
ATOM      6  C   UNL     1      -1.071   0.533   0.217  0.00  0.00    +0.000 A 
ATOM      7  C   UNL     1      -1.156  -0.778   0.704  0.00  0.00    +0.000 A 
ATOM      8  C   UNL     1      -0.047  -1.622   0.672  0.00  0.00    +0.000 A 
ATOM      9  C   UNL     1       1.161  -1.174   0.139  0.00  0.00    +0.000 A 
ATOM     10  C   UNL     1      -2.290   1.414   0.258  0.00  0.00    +0.000 C 
ENDBRANCH   1   5
BRANCH   1  11
ATOM     11  O   UNL     1       1.156   3.040  -0.051  0.00  0.00    +0.000 OA
BRANCH  11  12
ATOM     12  C   UNL     1       1.403   4.385  -0.363  0.00  0.00    +0.000 A 
ATOM     13  C   UNL     1       1.369   5.291   0.696  0.00  0.00    +0.000 A 
ATOM     14  C   UNL     1       1.664   6.634   0.460  0.00  0.00    +0.000 A 
ATOM     15  C   UNL     1       2.005   7.057  -0.826  0.00  0.00    +0.000 A 
ATOM     16  C   UNL     1       2.057   6.139  -1.877  0.00  0.00    +0.000 A 
ATOM     17  C   UNL     1       1.765   4.795  -1.646  0.00  0.00    +0.000 A 
ENDBRANCH  11  12
ENDBRANCH   1  11
TORSDOF 3
