REMARK  Name = *****
REMARK  2 active torsions:
REMARK  status: ('A' for Active; 'I' for Inactive)
REMARK    1  A    between atoms: C_2  and  C_9
REMARK    2  A    between atoms: C_3  and  C_4
REMARK                            x       y       z     vdW  Elec       q    Type
REMARK                         _______ _______ _______ _____ _____    ______ ____
ROOT
ATOM      1  C   UNL     1      -0.001   0.635   0.005  0.00  0.00    +0.000 C 
ATOM      2  C   UNL     1       0.782  -0.619   0.252  0.00  0.00    +0.000 C 
ATOM      3  C   UNL     1      -0.679  -0.700  -0.187  0.00  0.00    +0.000 C 
ENDROOT
BRANCH   2   4
ATOM      4  C   UNL     1       1.868  -1.047  -0.708  0.00  0.00    +0.000 A 
ATOM      5  C   UNL     1       2.936  -0.194  -1.031  0.00  0.00    +0.000 A 
ATOM      6  C   UNL     1       3.951  -0.596  -1.904  0.00  0.00    +0.000 A 
ATOM      7  C   UNL     1       3.920  -1.867  -2.469  0.00  0.00    +0.000 A 
ATOM      8  C   UNL     1       2.878  -2.736  -2.157  0.00  0.00    +0.000 A 
ATOM      9  C   UNL     1       1.867  -2.329  -1.283  0.00  0.00    +0.000 A 
ENDBRANCH   2   4
BRANCH   3  10
ATOM     10  C   UNL     1      -1.728  -1.172   0.821  0.00  0.00    +0.000 A 
ATOM     11  C   UNL     1      -1.730  -0.916   2.174  0.00  0.00    +0.000 A 
ATOM     12  C   UNL     1      -2.852  -1.510   2.826  0.00  0.00    +0.000 A 
ATOM     13  C   UNL     1      -3.661  -2.191   1.944  0.00  0.00    +0.000 A 
ATOM     14  S   UNL     1      -3.069  -2.112   0.341  0.00  0.00    +0.000 S 
ENDBRANCH   3  10
TORSDOF 2
