REMARK  Name = *****
REMARK  3 active torsions:
REMARK  status: ('A' for Active; 'I' for Inactive)
REMARK    1  A    between atoms: C_4  and  C_7
REMARK    2  A    between atoms: C_8  and  C_9
REMARK    3  A    between atoms: C_14  and  C_15
REMARK                            x       y       z     vdW  Elec       q    Type
REMARK                         _______ _______ _______ _____ _____    ______ ____
ROOT
ATOM      1  C   UNL     1      -0.813  -2.840  -0.048  0.00  0.00    +0.000 C 
ATOM      2  C   UNL     1      -1.159  -3.990  -0.072  0.00  0.00    +0.000 C 
ENDROOT
BRANCH   1   6
ATOM      3  C   UNL     1       0.344   1.283   0.348  0.00  0.00    +0.000 C 
ATOM      4  C   UNL     1       1.372   0.319  -0.235  0.00  0.00    +0.000 C 
ATOM      5  C   UNL     1       1.042  -1.129   0.137  0.00  0.00    +0.000 C 
ATOM      6  C   UNL     1      -0.419  -1.469  -0.024  0.00  0.00    +0.000 C 
ATOM      7  C   UNL     1      -1.359  -0.518  -0.167  0.00  0.00    +0.000 C 
ATOM      8  C   UNL     1      -1.065   0.954  -0.147  0.00  0.00    +0.000 C 
ENDBRANCH   1   6
BRANCH   2   9
ATOM      9  C   UNL     1      -1.590  -5.356  -0.106  0.00  0.00    +0.000 A 
ATOM     10  C   UNL     1      -0.691  -6.353   0.293  0.00  0.00    +0.000 A 
ATOM     11  C   UNL     1      -1.072  -7.696   0.274  0.00  0.00    +0.000 A 
ATOM     12  C   UNL     1      -2.352  -8.052  -0.144  0.00  0.00    +0.000 A 
ATOM     13  C   UNL     1      -3.254  -7.065  -0.543  0.00  0.00    +0.000 A 
ATOM     14  C   UNL     1      -2.880  -5.713  -0.527  0.00  0.00    +0.000 A 
BRANCH  14  15
ATOM     15  C   UNL     1      -3.835  -4.725  -0.942  0.00  0.00    +0.000 C 
ATOM     16  N   UNL     1      -4.628  -3.948  -1.283  0.00  0.00    +0.000 NA
ENDBRANCH  14  15
ENDBRANCH   2   9
TORSDOF 3
