MODEL 1
REMARK VINA RESULT:      -4.6      0.000      0.000
REMARK  Name = *****
REMARK  4 active torsions:
REMARK  status: ('A' for Active; 'I' for Inactive)
REMARK    1  A    between atoms: C_1  and  C_2
REMARK    2  A    between atoms: C_3  and  C_17
REMARK    3  A    between atoms: C_5  and  N_8
REMARK    4  A    between atoms: C_9  and  C_10
REMARK                            x       y       z     vdW  Elec       q    Type
REMARK                         _______ _______ _______ _____ _____    ______ ____
ROOT
ATOM      1  N   UNL     1     101.811 125.969  82.251  0.00  0.00    +0.000 NA
ATOM      2  C   UNL     1     102.946 125.683  82.808  0.00  0.00    +0.000 C 
ENDROOT
BRANCH   1   7
ATOM      3  C   UNL     1      99.123 130.578  84.320  0.00  0.00    +0.000 C 
ATOM      4  C   UNL     1      99.854 129.381  83.778  0.00  0.00    +0.000 A 
ATOM      5  C   UNL     1     101.250 129.247  83.915  0.00  0.00    +0.000 A 
ATOM      6  C   UNL     1     101.885 128.106  83.397  0.00  0.00    +0.000 A 
ATOM      7  C   UNL     1     101.158 127.104  82.750  0.00  0.00    +0.000 A 
ATOM      8  C   UNL     1      99.774 127.231  82.641  0.00  0.00    +0.000 A 
ATOM      9  C   UNL     1      99.127 128.359  83.146  0.00  0.00    +0.000 A 
ATOM     10  C   UNL     1     102.078 130.300  84.601  0.00  0.00    +0.000 C 
ENDBRANCH   1   7
BRANCH   2  11
ATOM     11  C   UNL     1     103.747 124.517  82.387  0.00  0.00    +0.000 A 
ATOM     12  C   UNL     1     104.066 124.316  81.040  0.00  0.00    +0.000 A 
ATOM     13  C   UNL     1     104.825 123.205  80.663  0.00  0.00    +0.000 A 
ATOM     14  C   UNL     1     105.261 122.305  81.635  0.00  0.00    +0.000 A 
ATOM     15  C   UNL     1     104.945 122.503  82.979  0.00  0.00    +0.000 A 
ATOM     16  C   UNL     1     104.186 123.612  83.359  0.00  0.00    +0.000 A 
ATOM     17 CL   UNL     1     106.197 120.936  81.171  0.00  0.00    +0.000 Cl
ENDBRANCH   2  11
TORSDOF 2
ENDMDL
