MODEL 1
REMARK VINA RESULT:      -4.7      0.000      0.000
REMARK  Name = *****
REMARK  3 active torsions:
REMARK  status: ('A' for Active; 'I' for Inactive)
REMARK    1  A    between atoms: C_1  and  N_2
REMARK    2  A    between atoms: N_2  and  C_11
REMARK    3  A    between atoms: N_4  and  C_5
REMARK                            x       y       z     vdW  Elec       q    Type
REMARK                         _______ _______ _______ _____ _____    ______ ____
ROOT
ATOM      1  C   UNL     1     103.773 128.024  82.821  0.00  0.00    +0.000 C 
ATOM      2  N   UNL     1     102.752 126.978  82.825  0.00  0.00    +0.000 N 
ATOM      3  C   UNL     1     103.131 125.673  82.573  0.00  0.00    +0.000 C 
ATOM      4  N   UNL     1     104.346 125.232  82.467  0.00  0.00    +0.000 NA
ENDROOT
BRANCH   2   5
ATOM      5  C   UNL     1     101.400 127.387  82.891  0.00  0.00    +0.000 A 
ATOM      6  C   UNL     1     101.017 128.619  83.452  0.00  0.00    +0.000 A 
ATOM      7  C   UNL     1      99.674 129.006  83.501  0.00  0.00    +0.000 A 
ATOM      8  C   UNL     1      98.677 128.178  82.999  0.00  0.00    +0.000 A 
ATOM      9  C   UNL     1      99.027 126.953  82.442  0.00  0.00    +0.000 A 
ATOM     10  C   UNL     1     100.371 126.567  82.391  0.00  0.00    +0.000 A 
ATOM     11 CL   UNL     1      99.252 130.527  84.189  0.00  0.00    +0.000 Cl
ENDBRANCH   2   5
BRANCH   4  12
ATOM     12  C   UNL     1     104.477 123.865  82.191  0.00  0.00    +0.000 A 
ATOM     13  C   UNL     1     104.395 122.919  83.217  0.00  0.00    +0.000 A 
ATOM     14  C   UNL     1     104.516 121.557  82.934  0.00  0.00    +0.000 A 
ATOM     15  C   UNL     1     104.708 121.133  81.619  0.00  0.00    +0.000 A 
ATOM     16  C   UNL     1     104.773 122.070  80.588  0.00  0.00    +0.000 A 
ATOM     17  C   UNL     1     104.654 123.431  80.875  0.00  0.00    +0.000 A 
ENDBRANCH   4  12
TORSDOF 2
ENDMDL
