MODEL 1
REMARK VINA RESULT:      -4.4      0.000      0.000
REMARK  Name = *****
REMARK  4 active torsions:
REMARK  status: ('A' for Active; 'I' for Inactive)
REMARK    1  A    between atoms: C_1  and  O_8
REMARK    2  A    between atoms: C_3  and  C_7
REMARK    3  A    between atoms: O_8  and  C_9
REMARK    4  A    between atoms: C_9  and  C_11
REMARK                            x       y       z     vdW  Elec       q    Type
REMARK                         _______ _______ _______ _____ _____    ______ ____
ROOT
ATOM      1  O   UNL     1      88.172  69.546  87.317  0.00  0.00    +0.000 OA
ENDROOT
BRANCH   1   2
ATOM      2  C   UNL     1      89.557  69.499  86.937  0.00  0.00    +0.000 C 
ATOM      3  C   UNL     1      89.869  68.211  86.153  0.00  0.00    +0.000 C 
ATOM      4  C   UNL     1      89.470  68.279  84.667  0.00  0.00    +0.000 C 
ATOM      5  C   UNL     1      90.130  69.493  83.989  0.00  0.00    +0.000 C 
ATOM      6  C   UNL     1      90.088  70.743  84.818  0.00  0.00    +0.000 C 
ATOM      7  C   UNL     1      89.814  70.743  86.131  0.00  0.00    +0.000 C 
ATOM      8  C   UNL     1      87.950  68.286  84.474  0.00  0.00    +0.000 C 
ENDBRANCH   1   2
BRANCH   1   9
ATOM      9  C   UNL     1      87.847  70.464  88.257  0.00  0.00    +0.000 C 
ATOM     10  O   UNL     1      88.470  70.695  89.282  0.00  0.00    +0.000 OA
BRANCH   9  11
ATOM     11  C   UNL     1      86.592  71.171  87.881  0.00  0.00    +0.000 A 
ATOM     12  C   UNL     1      86.327  71.368  86.519  0.00  0.00    +0.000 A 
ATOM     13  C   UNL     1      85.164  72.028  86.116  0.00  0.00    +0.000 A 
ATOM     14  C   UNL     1      84.261  72.493  87.070  0.00  0.00    +0.000 A 
ATOM     15  C   UNL     1      84.516  72.301  88.427  0.00  0.00    +0.000 A 
ATOM     16  C   UNL     1      85.679  71.641  88.835  0.00  0.00    +0.000 A 
ENDBRANCH   9  11
ENDBRANCH   1   9
TORSDOF 3
ENDMDL
