MODEL 1
REMARK VINA RESULT:      -4.1      0.000      0.000
REMARK  Name = *****
REMARK  5 active torsions:
REMARK  status: ('A' for Active; 'I' for Inactive)
REMARK    1  A    between atoms: C_1  and  C_2
REMARK    2  A    between atoms: C_2  and  C_4
REMARK    3  A    between atoms: C_4  and  C_10
REMARK    4  A    between atoms: C_10  and  S_12
REMARK    5  A    between atoms: S_12  and  C_13
REMARK                            x       y       z     vdW  Elec       q    Type
REMARK                         _______ _______ _______ _____ _____    ______ ____
ROOT
ATOM      1  C   UNL     1      88.982  69.404  85.167  0.00  0.00    +0.000 C 
ATOM      2  C   UNL     1      89.891  70.588  85.580  0.00  0.00    +0.000 C 
ATOM      3  C   UNL     1      90.458  71.132  84.277  0.00  0.00    +0.000 C 
ATOM      4  C   UNL     1      89.278  71.086  83.327  0.00  0.00    +0.000 C 
ATOM      5  C   UNL     1      88.484  69.893  83.797  0.00  0.00    +0.000 C 
ATOM      6  C   UNL     1      87.470  69.400  83.068  0.00  0.00    +0.000 C 
ENDROOT
BRANCH   1   8
ATOM      7  C   UNL     1      90.189  67.324  86.215  0.00  0.00    +0.000 C 
ATOM      8  C   UNL     1      89.796  68.107  84.984  0.00  0.00    +0.000 C 
ATOM      9  O   UNL     1      90.111  67.680  83.869  0.00  0.00    +0.000 OA
ENDBRANCH   1   8
BRANCH   1  10
ATOM     10  C   UNL     1      87.876  69.205  86.223  0.00  0.00    +0.000 C 
ATOM     11  O   UNL     1      87.045  68.304  86.206  0.00  0.00    +0.000 OA
BRANCH  10  12
ATOM     12  S   UNL     1      87.879  70.362  87.572  0.00  0.00    +0.000 S 
BRANCH  12  13
ATOM     13  C   UNL     1      86.382  71.255  87.211  0.00  0.00    +0.000 A 
ATOM     14  C   UNL     1      85.538  71.639  88.258  0.00  0.00    +0.000 A 
ATOM     15  C   UNL     1      84.354  72.329  87.990  0.00  0.00    +0.000 A 
ATOM     16  C   UNL     1      84.013  72.646  86.676  0.00  0.00    +0.000 A 
ATOM     17  C   UNL     1      84.855  72.275  85.629  0.00  0.00    +0.000 A 
ATOM     18  C   UNL     1      86.038  71.584  85.895  0.00  0.00    +0.000 A 
ENDBRANCH  12  13
ENDBRANCH  10  12
ENDBRANCH   1  10
TORSDOF 4
ENDMDL
