MODEL 1
REMARK VINA RESULT:      -3.8      0.000      0.000
REMARK  Name = *****
REMARK  3 active torsions:
REMARK  status: ('A' for Active; 'I' for Inactive)
REMARK    1  A    between atoms: C_5  and  C_6
REMARK    2  A    between atoms: C_5  and  S_8
REMARK    3  A    between atoms: S_8  and  C_9
REMARK                            x       y       z     vdW  Elec       q    Type
REMARK                         _______ _______ _______ _____ _____    ______ ____
ROOT
ATOM      1  C   UNL     1      86.703  71.172  86.495  0.00  0.00    +0.000 C 
ATOM      2  C   UNL     1      85.766  69.971  86.448  0.00  0.00    +0.000 C 
ATOM      3  S   UNL     1      86.180  68.704  87.676  0.00  0.00    +0.000 S 
ATOM      4  C   UNL     1      87.834  68.346  87.206  0.00  0.00    +0.000 C 
ATOM      5  C   UNL     1      88.262  67.100  86.882  0.00  0.00    +0.000 C 
ATOM      6  S   UNL     1      88.940  69.711  87.277  0.00  0.00    +0.000 S 
ATOM      7  C   UNL     1      88.135  70.831  86.100  0.00  0.00    +0.000 C 
ENDROOT
BRANCH   5   8
ATOM      8  C   UNL     1      89.623  66.857  86.498  0.00  0.00    +0.000 C 
ATOM      9  N   UNL     1      90.716  66.667  86.157  0.00  0.00    +0.000 NA
ENDBRANCH   5   8
BRANCH   5  10
ATOM     10  S   UNL     1      87.206  65.689  86.819  0.00  0.00    +0.000 S 
BRANCH  10  11
ATOM     11  C   UNL     1      87.492  65.056  88.465  0.00  0.00    +0.000 A 
ATOM     12  C   UNL     1      86.587  65.363  89.486  0.00  0.00    +0.000 A 
ATOM     13  C   UNL     1      86.788  64.876  90.779  0.00  0.00    +0.000 A 
ATOM     14  C   UNL     1      87.892  64.072  91.057  0.00  0.00    +0.000 A 
ATOM     15  C   UNL     1      88.790  63.748  90.042  0.00  0.00    +0.000 A 
ATOM     16  C   UNL     1      88.588  64.232  88.747  0.00  0.00    +0.000 A 
ENDBRANCH  10  11
ENDBRANCH   5  10
TORSDOF 3
ENDMDL
