REMARK  Name = *****
REMARK  3 active torsions:
REMARK  status: ('A' for Active; 'I' for Inactive)
REMARK    1  A    between atoms: C_7  and  O_8
REMARK    2  A    between atoms: O_8  and  C_9
REMARK    3  A    between atoms: C_9  and  C_11
REMARK                            x       y       z     vdW  Elec       q    Type
REMARK                         _______ _______ _______ _____ _____    ______ ____
ROOT
ATOM      1  O   UNL     1      -2.356  -1.373   0.772  0.00  0.00    +0.000 OA
ENDROOT
BRANCH   1   8
ATOM      2  C   UNL     1      -1.244  -0.024   2.895  0.00  0.00    +0.000 C 
ATOM      3  C   UNL     1      -2.287   0.921   2.217  0.00  0.00    +0.000 C 
ATOM      4  C   UNL     1      -1.767   1.004   0.738  0.00  0.00    +0.000 C 
ATOM      5  C   UNL     1      -0.586   1.693   0.636  0.00  0.00    +0.000 C 
ATOM      6  C   UNL     1       0.400   0.827   1.366  0.00  0.00    +0.000 C 
ATOM      7  C   UNL     1      -0.325  -0.282   1.690  0.00  0.00    +0.000 C 
ATOM      8  C   UNL     1      -1.305  -0.445   0.533  0.00  0.00    +0.000 C 
ENDBRANCH   1   8
BRANCH   1   9
ATOM      9  C   UNL     1      -2.074  -2.643   0.398  0.00  0.00    +0.000 C 
ATOM     10  O   UNL     1      -1.038  -3.031  -0.117  0.00  0.00    +0.000 OA
BRANCH   9  11
ATOM     11  C   UNL     1      -3.220  -3.540   0.710  0.00  0.00    +0.000 A 
ATOM     12  C   UNL     1      -3.074  -4.911   0.455  0.00  0.00    +0.000 A 
ATOM     13  C   UNL     1      -4.121  -5.794   0.730  0.00  0.00    +0.000 A 
ATOM     14  C   UNL     1      -5.317  -5.314   1.259  0.00  0.00    +0.000 A 
ATOM     15  C   UNL     1      -5.472  -3.952   1.515  0.00  0.00    +0.000 A 
ATOM     16  C   UNL     1      -4.427  -3.065   1.242  0.00  0.00    +0.000 A 
ENDBRANCH   9  11
ENDBRANCH   1   9
TORSDOF 3
