REMARK  Name = *****
REMARK  2 active torsions:
REMARK  status: ('A' for Active; 'I' for Inactive)
REMARK    1  A    between atoms: C_4  and  C_7
REMARK    2  A    between atoms: C_8  and  C_9
REMARK                            x       y       z     vdW  Elec       q    Type
REMARK                         _______ _______ _______ _____ _____    ______ ____
ROOT
ATOM      1  C   UNL     1      -5.170  -0.272  -0.570  0.00  0.00    +0.000 A 
ATOM      2  C   UNL     1      -5.672   0.821  -1.292  0.00  0.00    +0.000 A 
ATOM      3  C   UNL     1      -7.047   0.972  -1.462  0.00  0.00    +0.000 A 
ATOM      4  C   UNL     1      -7.934   0.042  -0.932  0.00  0.00    +0.000 A 
ATOM      5  C   UNL     1      -7.462  -1.057  -0.230  0.00  0.00    +0.000 A 
ATOM      6  C   UNL     1      -6.088  -1.208  -0.060  0.00  0.00    +0.000 A 
ATOM      7  F   UNL     1      -5.648  -2.281   0.615  0.00  0.00    +0.000 F 
ATOM      8  F   UNL     1      -9.254   0.195  -1.103  0.00  0.00    +0.000 F 
ATOM      9  F   UNL     1      -7.509   2.025  -2.150  0.00  0.00    +0.000 F 
ENDROOT
BRANCH   1  11
ATOM     10  C   UNL     1      -2.792   0.463  -0.351  0.00  0.00    +0.000 C 
ATOM     11  C   UNL     1      -3.727  -0.501  -0.379  0.00  0.00    +0.000 C 
BRANCH  10  15
ATOM     12  C   UNL     1       1.392  -0.191   0.266  0.00  0.00    +0.000 A 
ATOM     13  C   UNL     1       0.662  -1.097  -0.501  0.00  0.00    +0.000 A 
ATOM     14  C   UNL     1      -0.706  -0.899  -0.705  0.00  0.00    +0.000 A 
ATOM     15  C   UNL     1      -1.361   0.201  -0.135  0.00  0.00    +0.000 A 
ATOM     16  C   UNL     1      -0.612   1.114   0.619  0.00  0.00    +0.000 A 
ATOM     17  C   UNL     1       0.756   0.916   0.824  0.00  0.00    +0.000 A 
ENDBRANCH  10  15
ENDBRANCH   1  11
TORSDOF 2
