MODEL 1
REMARK VINA RESULT:      -4.8      0.000      0.000
REMARK  Name = *****
REMARK  2 active torsions:
REMARK  status: ('A' for Active; 'I' for Inactive)
REMARK    1  A    between atoms: C_5  and  C_7
REMARK    2  A    between atoms: C_8  and  C_9
REMARK                            x       y       z     vdW  Elec       q    Type
REMARK                         _______ _______ _______ _____ _____    ______ ____
ROOT
ATOM      1  C   UNL     1     101.968 126.070  82.531  0.00  0.00    +0.000 C 
ATOM      2  C   UNL     1     102.648 125.980  81.376  0.00  0.00    +0.000 C 
ENDROOT
BRANCH   2   3
ATOM      3  C   UNL     1     103.771 125.061  81.149  0.00  0.00    +0.000 A 
ATOM      4  C   UNL     1     104.483 125.150  79.946  0.00  0.00    +0.000 A 
ATOM      5  C   UNL     1     105.543 124.276  79.676  0.00  0.00    +0.000 A 
ATOM      6  C   UNL     1     105.891 123.293  80.608  0.00  0.00    +0.000 A 
ATOM      7  C   UNL     1     105.173 123.187  81.802  0.00  0.00    +0.000 A 
ATOM      8  C   UNL     1     104.116 124.062  82.068  0.00  0.00    +0.000 A 
ATOM      9 CL   UNL     1     107.185 122.179  80.345  0.00  0.00    +0.000 Cl
ATOM     10 CL   UNL     1     106.377 124.463  78.174  0.00  0.00    +0.000 Cl
ENDBRANCH   2   3
BRANCH   1  15
ATOM     11  C   UNL     1     100.009 129.094  83.579  0.00  0.00    +0.000 A 
ATOM     12  C   UNL     1      98.744 128.722  83.140  0.00  0.00    +0.000 A 
ATOM     13  C   UNL     1      98.605 127.493  82.520  0.00  0.00    +0.000 A 
ATOM     14  N   UNL     1      99.627 126.632  82.318  0.00  0.00    +0.000 NA
ATOM     15  C   UNL     1     100.853 127.006  82.751  0.00  0.00    +0.000 A 
ATOM     16  C   UNL     1     101.081 128.226  83.383  0.00  0.00    +0.000 A 
ENDBRANCH   1  15
TORSDOF 2
ENDMDL
