MODEL 1
REMARK VINA RESULT:      -4.5      0.000      0.000
REMARK  Name = *****
REMARK  3 active torsions:
REMARK  status: ('A' for Active; 'I' for Inactive)
REMARK    1  A    between atoms: C_1  and  C_2
REMARK    2  A    between atoms: C_7  and  C_8
REMARK    3  A    between atoms: C_9  and  C_10
REMARK                            x       y       z     vdW  Elec       q    Type
REMARK                         _______ _______ _______ _____ _____    ______ ____
ROOT
ATOM      1  C   UNL     1     107.654 124.410  81.783  0.00  0.00    +0.000 C 
ATOM      2  C   UNL     1     106.960 123.552  80.720  0.00  0.00    +0.000 C 
ATOM      3  C   UNL     1     106.743 124.336  79.414  0.00  0.00    +0.000 C 
ATOM      4  C   UNL     1     105.635 125.386  79.524  0.00  0.00    +0.000 C 
ATOM      5  C   UNL     1     104.328 124.786  80.044  0.00  0.00    +0.000 C 
ATOM      6  C   UNL     1     104.555 124.033  81.335  0.00  0.00    +0.000 C 
ATOM      7  C   UNL     1     103.901 124.253  82.490  0.00  0.00    +0.000 C 
ATOM      8  C   UNL     1     105.631 122.974  81.236  0.00  0.00    +0.000 C 
ENDROOT
BRANCH   7   9
ATOM      9  C   UNL     1     102.890 125.240  82.650  0.00  0.00    +0.000 C 
ATOM     10  C   UNL     1     102.039 126.076  82.781  0.00  0.00    +0.000 C 
BRANCH  10  11
ATOM     11  C   UNL     1     101.014 127.063  82.932  0.00  0.00    +0.000 A 
ATOM     12  C   UNL     1     101.307 128.293  83.525  0.00  0.00    +0.000 A 
ATOM     13  C   UNL     1     100.306 129.254  83.672  0.00  0.00    +0.000 A 
ATOM     14  C   UNL     1      99.011 128.987  83.228  0.00  0.00    +0.000 A 
ATOM     15  C   UNL     1      98.716 127.759  82.635  0.00  0.00    +0.000 A 
ATOM     16  C   UNL     1      99.716 126.797  82.487  0.00  0.00    +0.000 A 
ENDBRANCH  10  11
ENDBRANCH   7   9
TORSDOF 2
ENDMDL
