MODEL 1
REMARK VINA RESULT:      -5.0      0.000      0.000
REMARK  Name = *****
REMARK  1 active torsions:
REMARK  status: ('A' for Active; 'I' for Inactive)
REMARK    1  A    between atoms: C_9  and  C_10
REMARK                            x       y       z     vdW  Elec       q    Type
REMARK                         _______ _______ _______ _____ _____    ______ ____
ROOT
ATOM      1  C   UNL     1     102.924 125.172  83.301  0.00  0.00    +0.000 C 
ATOM      2  C   UNL     1     103.897 124.424  82.442  0.00  0.00    +0.000 A 
ATOM      3  C   UNL     1     104.791 123.427  82.795  0.00  0.00    +0.000 A 
ATOM      4  C   UNL     1     105.602 122.889  81.792  0.00  0.00    +0.000 A 
ATOM      5  C   UNL     1     105.509 123.351  80.468  0.00  0.00    +0.000 A 
ATOM      6  C   UNL     1     104.603 124.359  80.127  0.00  0.00    +0.000 A 
ATOM      7  C   UNL     1     103.804 124.885  81.125  0.00  0.00    +0.000 A 
ATOM      8  C   UNL     1     102.789 125.923  81.055  0.00  0.00    +0.000 C 
ATOM      9  C   UNL     1     102.268 126.097  82.287  0.00  0.00    +0.000 C 
ENDROOT
BRANCH   9  10
ATOM     10  C   UNL     1     101.206 127.048  82.668  0.00  0.00    +0.000 A 
ATOM     11  C   UNL     1     101.506 128.266  83.304  0.00  0.00    +0.000 A 
ATOM     12  C   UNL     1     100.497 129.168  83.656  0.00  0.00    +0.000 A 
ATOM     13  C   UNL     1      99.166 128.872  83.378  0.00  0.00    +0.000 A 
ATOM     14  C   UNL     1      98.846 127.676  82.745  0.00  0.00    +0.000 A 
ATOM     15  C   UNL     1      99.857 126.775  82.392  0.00  0.00    +0.000 A 
ENDBRANCH   9  10
TORSDOF 1
ENDMDL
