MODEL 1
REMARK VINA RESULT:      -3.6      0.000      0.000
REMARK  Name = *****
REMARK  6 active torsions:
REMARK  status: ('A' for Active; 'I' for Inactive)
REMARK    1  A    between atoms: C_1  and  C_2
REMARK    2  A    between atoms: C_2  and  C_3
REMARK    3  A    between atoms: C_2  and  O_9
REMARK    4  A    between atoms: O_9  and  C_10
REMARK    5  A    between atoms: C_10  and  C_11
REMARK    6  A    between atoms: C_11  and  C_12
REMARK                            x       y       z     vdW  Elec       q    Type
REMARK                         _______ _______ _______ _____ _____    ______ ____
ROOT
ATOM      1  O   UNL     1      87.279  63.320  86.464  0.00  0.00    +0.000 OA
ENDROOT
BRANCH   1   3
ATOM      2  C   UNL     1      85.162  64.346  86.070  0.00  0.00    +0.000 C 
ATOM      3  C   UNL     1      85.869  63.053  86.467  0.00  0.00    +0.000 C 
BRANCH   3   4
ATOM      4  C   UNL     1      85.394  62.591  87.832  0.00  0.00    +0.000 A 
ATOM      5  C   UNL     1      86.172  61.727  88.619  0.00  0.00    +0.000 A 
ATOM      6  C   UNL     1      85.728  61.317  89.877  0.00  0.00    +0.000 A 
ATOM      7  C   UNL     1      84.505  61.772  90.367  0.00  0.00    +0.000 A 
ATOM      8  C   UNL     1      83.725  62.635  89.599  0.00  0.00    +0.000 A 
ATOM      9  C   UNL     1      84.168  63.045  88.340  0.00  0.00    +0.000 A 
ENDBRANCH   3   4
ENDBRANCH   1   3
BRANCH   1  10
ATOM     10  C   UNL     1      87.611  64.700  86.288  0.00  0.00    +0.000 C 
BRANCH  10  11
ATOM     11  C   UNL     1      88.575  65.176  87.376  0.00  0.00    +0.000 C 
BRANCH  11  12
ATOM     12  C   UNL     1      88.014  64.969  88.760  0.00  0.00    +0.000 A 
ATOM     13  C   UNL     1      88.657  64.117  89.666  0.00  0.00    +0.000 A 
ATOM     14  C   UNL     1      88.127  63.910  90.940  0.00  0.00    +0.000 A 
ATOM     15  C   UNL     1      86.950  64.552  91.319  0.00  0.00    +0.000 A 
ATOM     16  C   UNL     1      86.300  65.399  90.423  0.00  0.00    +0.000 A 
ATOM     17  C   UNL     1      86.828  65.606  89.147  0.00  0.00    +0.000 A 
ENDBRANCH  11  12
ENDBRANCH  10  11
ENDBRANCH   1  10
TORSDOF 5
ENDMDL
