MODEL 1
REMARK VINA RESULT:      -4.7      0.000      0.000
REMARK  Name = *****
REMARK  3 active torsions:
REMARK  status: ('A' for Active; 'I' for Inactive)
REMARK    1  A    between atoms: C_4  and  C_7
REMARK    2  A    between atoms: C_7  and  C_8
REMARK    3  A    between atoms: C_8  and  C_9
REMARK                            x       y       z     vdW  Elec       q    Type
REMARK                         _______ _______ _______ _____ _____    ______ ____
ROOT
ATOM      1  C   UNL     1      88.775  70.418  86.573  0.00  0.00    +0.000 C 
ATOM      2  F   UNL     1      87.946  70.974  87.514  0.00  0.00    +0.000 F 
ATOM      3  F   UNL     1      90.003  70.981  86.820  0.00  0.00    +0.000 F 
ENDROOT
BRANCH   1   7
ATOM      4  C   UNL     1      88.930  66.116  87.006  0.00  0.00    +0.000 A 
ATOM      5  C   UNL     1      89.988  66.792  86.405  0.00  0.00    +0.000 A 
ATOM      6  C   UNL     1      89.941  68.181  86.268  0.00  0.00    +0.000 A 
ATOM      7  C   UNL     1      88.833  68.906  86.731  0.00  0.00    +0.000 A 
ATOM      8  C   UNL     1      87.774  68.211  87.337  0.00  0.00    +0.000 A 
ATOM      9  C   UNL     1      87.822  66.823  87.473  0.00  0.00    +0.000 A 
ENDBRANCH   1   7
BRANCH   1  10
ATOM     10  C   UNL     1      88.294  70.837  85.150  0.00  0.00    +0.000 C 
ATOM     11  F   UNL     1      87.725  69.755  84.527  0.00  0.00    +0.000 F 
ATOM     12  F   UNL     1      87.270  71.743  85.267  0.00  0.00    +0.000 F 
BRANCH  10  13
ATOM     13  C   UNL     1      89.428  71.410  84.312  0.00  0.00    +0.000 A 
ATOM     14  C   UNL     1      90.436  70.574  83.808  0.00  0.00    +0.000 A 
ATOM     15  C   UNL     1      91.480  71.102  83.048  0.00  0.00    +0.000 A 
ATOM     16  C   UNL     1      91.528  72.469  82.784  0.00  0.00    +0.000 A 
ATOM     17  C   UNL     1      90.533  73.311  83.276  0.00  0.00    +0.000 A 
ATOM     18  C   UNL     1      89.487  72.785  84.037  0.00  0.00    +0.000 A 
ENDBRANCH  10  13
ENDBRANCH   1  10
TORSDOF 3
ENDMDL
