MODEL 1
REMARK VINA RESULT:      -3.6      0.000      0.000
REMARK  Name = *****
REMARK  3 active torsions:
REMARK  status: ('A' for Active; 'I' for Inactive)
REMARK    1  A    between atoms: C_5  and  S_7
REMARK    2  A    between atoms: S_7  and  S_8
REMARK    3  A    between atoms: S_8  and  C_9
REMARK                            x       y       z     vdW  Elec       q    Type
REMARK                         _______ _______ _______ _____ _____    ______ ____
ROOT
ATOM      1  C   UNL     1      99.152 126.800  82.419  0.00  0.00    +0.000 A 
ATOM      2  C   UNL     1      98.483 127.878  82.995  0.00  0.00    +0.000 A 
ATOM      3  C   UNL     1      99.210 128.912  83.585  0.00  0.00    +0.000 A 
ATOM      4  C   UNL     1     100.610 128.871  83.604  0.00  0.00    +0.000 A 
ATOM      5  C   UNL     1     101.294 127.785  83.033  0.00  0.00    +0.000 A 
ATOM      6  C   UNL     1     100.548 126.756  82.437  0.00  0.00    +0.000 A 
ATOM      7 CL   UNL     1     101.429 130.200  84.347  0.00  0.00    +0.000 Cl
ENDROOT
BRANCH   5   8
ATOM      8  S   UNL     1     103.078 127.645  82.997  0.00  0.00    +0.000 S 
BRANCH   8   9
ATOM      9  S   UNL     1     103.428 127.313  80.995  0.00  0.00    +0.000 S 
BRANCH   9  10
ATOM     10  C   UNL     1     103.984 125.646  80.995  0.00  0.00    +0.000 A 
ATOM     11  N   UNL     1     104.577 125.068  79.969  0.00  0.00    +0.000 NA
ATOM     12  C   UNL     1     104.903 123.766  80.288  0.00  0.00    +0.000 A 
ATOM     13  C   UNL     1     104.554 123.357  81.557  0.00  0.00    +0.000 A 
ATOM     14  S   UNL     1     103.791 124.649  82.385  0.00  0.00    +0.000 S 
ENDBRANCH   9  10
ENDBRANCH   8   9
ENDBRANCH   5   8
TORSDOF 3
ENDMDL
