MODEL 1
REMARK VINA RESULT:      -4.3      0.000      0.000
REMARK  Name = *****
REMARK  5 active torsions:
REMARK  status: ('A' for Active; 'I' for Inactive)
REMARK    1  A    between atoms: C_1  and  C_2
REMARK    2  A    between atoms: C_2  and  C_12
REMARK    3  A    between atoms: N_3  and  O_4
REMARK    4  A    between atoms: O_4  and  C_5
REMARK    5  A    between atoms: C_5  and  C_6
REMARK                            x       y       z     vdW  Elec       q    Type
REMARK                         _______ _______ _______ _____ _____    ______ ____
ROOT
ATOM      1  C   UNL     1      87.794  63.328  86.214  0.00  0.00    +0.000 C 
ATOM      2  C   UNL     1      88.507  64.496  86.855  0.00  0.00    +0.000 C 
ATOM      3  N   UNL     1      89.208  65.257  86.066  0.00  0.00    +0.000 NA
ENDROOT
BRANCH   2   4
ATOM      4  C   UNL     1      88.326  64.739  88.359  0.00  0.00    +0.000 C 
ATOM      5  C   UNL     1      88.922  63.618  89.221  0.00  0.00    +0.000 C 
ATOM      6  C   UNL     1      88.699  63.886  90.709  0.00  0.00    +0.000 C 
ATOM      7  C   UNL     1      87.220  64.094  91.023  0.00  0.00    +0.000 C 
ATOM      8  C   UNL     1      86.608  65.194  90.160  0.00  0.00    +0.000 C 
ATOM      9  C   UNL     1      86.839  64.940  88.671  0.00  0.00    +0.000 C 
ENDBRANCH   2   4
BRANCH   3  10
ATOM     10  O   UNL     1      89.783  66.333  86.758  0.00  0.00    +0.000 OA
BRANCH  10  11
ATOM     11  C   UNL     1      89.532  67.537  86.035  0.00  0.00    +0.000 C 
BRANCH  11  12
ATOM     12  C   UNL     1      88.867  68.521  86.962  0.00  0.00    +0.000 A 
ATOM     13  C   UNL     1      89.512  69.716  87.314  0.00  0.00    +0.000 A 
ATOM     14  C   UNL     1      88.903  70.618  88.188  0.00  0.00    +0.000 A 
ATOM     15  C   UNL     1      87.649  70.331  88.724  0.00  0.00    +0.000 A 
ATOM     16  C   UNL     1      87.004  69.140  88.392  0.00  0.00    +0.000 A 
ATOM     17  C   UNL     1      87.612  68.237  87.519  0.00  0.00    +0.000 A 
ENDBRANCH  11  12
ENDBRANCH  10  11
ENDBRANCH   3  10
TORSDOF 4
ENDMDL
