MODEL 1
REMARK VINA RESULT:      -4.8      0.000      0.000
REMARK  Name = *****
REMARK  5 active torsions:
REMARK  status: ('A' for Active; 'I' for Inactive)
REMARK    1  A    between atoms: C_1  and  N_2
REMARK    2  A    between atoms: N_2  and  C_3
REMARK    3  A    between atoms: N_2  and  C_4
REMARK    4  A    between atoms: C_7  and  C_10
REMARK    5  A    between atoms: C_11  and  C_12
REMARK                            x       y       z     vdW  Elec       q    Type
REMARK                         _______ _______ _______ _____ _____    ______ ____
ROOT
ATOM      1  C   UNL     1     106.015 122.733  80.875  0.00  0.00    +0.000 A 
ATOM      2  C   UNL     1     105.447 122.729  82.163  0.00  0.00    +0.000 A 
ATOM      3  C   UNL     1     104.416 123.608  82.532  0.00  0.00    +0.000 A 
ATOM      4  C   UNL     1     103.913 124.519  81.611  0.00  0.00    +0.000 A 
ATOM      5  C   UNL     1     104.436 124.541  80.324  0.00  0.00    +0.000 A 
ATOM      6  C   UNL     1     105.466 123.658  79.967  0.00  0.00    +0.000 A 
ENDROOT
BRANCH   1   8
ATOM      7  C   UNL     1     107.204 120.603  81.257  0.00  0.00    +0.000 C 
ATOM      8  N   UNL     1     107.032 121.845  80.505  0.00  0.00    +0.000 N 
ATOM      9  C   UNL     1     108.242 122.379  79.883  0.00  0.00    +0.000 C 
ENDBRANCH   1   8
BRANCH   4  10
ATOM     10  C   UNL     1     102.864 125.418  81.981  0.00  0.00    +0.000 C 
ATOM     11  C   UNL     1     101.982 126.173  82.288  0.00  0.00    +0.000 C 
BRANCH  11  12
ATOM     12  C   UNL     1     100.929 127.071  82.651  0.00  0.00    +0.000 A 
ATOM     13  C   UNL     1      99.603 126.753  82.346  0.00  0.00    +0.000 A 
ATOM     14  C   UNL     1      98.575 127.631  82.698  0.00  0.00    +0.000 A 
ATOM     15  C   UNL     1      98.872 128.825  83.356  0.00  0.00    +0.000 A 
ATOM     16  C   UNL     1     100.195 129.143  83.661  0.00  0.00    +0.000 A 
ATOM     17  C   UNL     1     101.224 128.266  83.309  0.00  0.00    +0.000 A 
ENDBRANCH  11  12
ENDBRANCH   4  10
TORSDOF 3
ENDMDL
