MODEL 1
REMARK VINA RESULT:      -4.3      0.000      0.000
REMARK  Name = *****
REMARK  6 active torsions:
REMARK  status: ('A' for Active; 'I' for Inactive)
REMARK    1  A    between atoms: C_1  and  C_2
REMARK    2  A    between atoms: C_2  and  C_3
REMARK    3  A    between atoms: C_2  and  N_9
REMARK    4  A    between atoms: N_9  and  C_10
REMARK    5  A    between atoms: N_9  and  C_17
REMARK    6  A    between atoms: C_10  and  C_11
REMARK                            x       y       z     vdW  Elec       q    Type
REMARK                         _______ _______ _______ _____ _____    ______ ____
ROOT
ATOM      1  N   UNL     1      88.766  66.059  86.501  0.00  0.00    +0.000 N 
ENDROOT
BRANCH   1   3
ATOM      2  C   UNL     1      88.441  63.635  86.017  0.00  0.00    +0.000 C 
ATOM      3  C   UNL     1      87.956  64.863  86.799  0.00  0.00    +0.000 C 
BRANCH   3   4
ATOM      4  C   UNL     1      87.851  64.662  88.308  0.00  0.00    +0.000 A 
ATOM      5  C   UNL     1      86.761  65.121  89.066  0.00  0.00    +0.000 A 
ATOM      6  C   UNL     1      86.710  64.909  90.447  0.00  0.00    +0.000 A 
ATOM      7  C   UNL     1      87.740  64.226  91.090  0.00  0.00    +0.000 A 
ATOM      8  C   UNL     1      88.820  63.750  90.352  0.00  0.00    +0.000 A 
ATOM      9  C   UNL     1      88.874  63.962  88.974  0.00  0.00    +0.000 A 
ENDBRANCH   3   4
ENDBRANCH   1   3
BRANCH   1  10
ATOM     10  C   UNL     1      90.085  65.843  85.907  0.00  0.00    +0.000 C 
ATOM     11  C   UNL     1      91.170  65.673  85.426  0.00  0.00    +0.000 C 
ENDBRANCH   1  10
BRANCH   1  12
ATOM     12  C   UNL     1      88.061  67.246  86.015  0.00  0.00    +0.000 C 
BRANCH  12  13
ATOM     13  C   UNL     1      88.228  68.420  86.957  0.00  0.00    +0.000 A 
ATOM     14  C   UNL     1      89.258  69.352  86.752  0.00  0.00    +0.000 A 
ATOM     15  C   UNL     1      89.409  70.442  87.610  0.00  0.00    +0.000 A 
ATOM     16  C   UNL     1      88.531  70.616  88.677  0.00  0.00    +0.000 A 
ATOM     17  C   UNL     1      87.500  69.701  88.887  0.00  0.00    +0.000 A 
ATOM     18  C   UNL     1      87.347  68.610  88.030  0.00  0.00    +0.000 A 
ENDBRANCH  12  13
ENDBRANCH   1  12
TORSDOF 5
ENDMDL
