MODEL 1
REMARK VINA RESULT:      -4.9      0.000      0.000
REMARK  Name = *****
REMARK  4 active torsions:
REMARK  status: ('A' for Active; 'I' for Inactive)
REMARK    1  A    between atoms: C_1  and  C_2
REMARK    2  A    between atoms: C_2  and  C_12
REMARK    3  A    between atoms: C_3  and  C_4
REMARK    4  A    between atoms: C_3  and  C_6
REMARK                            x       y       z     vdW  Elec       q    Type
REMARK                         _______ _______ _______ _____ _____    ______ ____
ROOT
ATOM      1  C   UNL     1     102.834 128.758  83.809  0.00  0.00    +0.000 C 
ATOM      2  C   UNL     1     101.902 127.818  83.079  0.00  0.00    +0.000 C 
ATOM      3  C   UNL     1     100.550 127.808  83.189  0.00  0.00    +0.000 C 
ENDROOT
BRANCH   3   4
ATOM      4  C   UNL     1      99.855 128.768  84.069  0.00  0.00    +0.000 A 
ATOM      5  C   UNL     1      99.676 130.097  83.664  0.00  0.00    +0.000 A 
ATOM      6  C   UNL     1      99.034 131.007  84.505  0.00  0.00    +0.000 A 
ATOM      7  C   UNL     1      98.567 130.595  85.753  0.00  0.00    +0.000 A 
ATOM      8  C   UNL     1      98.740 129.273  86.161  0.00  0.00    +0.000 A 
ATOM      9  C   UNL     1      99.381 128.360  85.322  0.00  0.00    +0.000 A 
ENDBRANCH   3   4
BRANCH   2  10
ATOM     10  C   UNL     1     102.629 126.876  82.205  0.00  0.00    +0.000 A 
ATOM     11  C   UNL     1     102.864 125.561  82.627  0.00  0.00    +0.000 A 
ATOM     12  C   UNL     1     103.564 124.677  81.806  0.00  0.00    +0.000 A 
ATOM     13  C   UNL     1     104.032 125.101  80.562  0.00  0.00    +0.000 A 
ATOM     14  C   UNL     1     103.800 126.408  80.136  0.00  0.00    +0.000 A 
ATOM     15  C   UNL     1     103.100 127.295  80.955  0.00  0.00    +0.000 A 
ENDBRANCH   2  10
BRANCH   3  16
ATOM     16  C   UNL     1      99.709 126.829  82.424  0.00  0.00    +0.000 C 
ATOM     17  O   UNL     1      98.564 127.071  82.055  0.00  0.00    +0.000 OA
ENDBRANCH   3  16
TORSDOF 3
ENDMDL
