MODEL 1
REMARK VINA RESULT:      -4.6      0.000      0.000
REMARK  Name = *****
REMARK  6 active torsions:
REMARK  status: ('A' for Active; 'I' for Inactive)
REMARK    1  A    between atoms: C_1  and  C_2
REMARK    2  A    between atoms: C_5  and  C_8
REMARK    3  A    between atoms: C_8  and  O_9
REMARK    4  A    between atoms: O_9  and  C_10
REMARK    5  A    between atoms: C_10  and  C_11
REMARK    6  A    between atoms: C_14  and  C_17
REMARK                            x       y       z     vdW  Elec       q    Type
REMARK                         _______ _______ _______ _____ _____    ______ ____
ROOT
ATOM      1  O   UNL     1     103.442 125.148  80.078  0.00  0.00    +0.000 OA
ENDROOT
BRANCH   1   2
ATOM      2  C   UNL     1     104.685 124.452  80.090  0.00  0.00    +0.000 C 
BRANCH   2   7
ATOM      3  C   UNL     1     104.359 120.035  83.882  0.00  0.00    +0.000 C 
ATOM      4  C   UNL     1     104.479 121.175  82.914  0.00  0.00    +0.000 A 
ATOM      5  C   UNL     1     104.394 122.498  83.361  0.00  0.00    +0.000 A 
ATOM      6  C   UNL     1     104.475 123.557  82.454  0.00  0.00    +0.000 A 
ATOM      7  C   UNL     1     104.641 123.317  81.083  0.00  0.00    +0.000 A 
ATOM      8  C   UNL     1     104.697 121.990  80.637  0.00  0.00    +0.000 A 
ATOM      9  C   UNL     1     104.616 120.929  81.543  0.00  0.00    +0.000 A 
ENDBRANCH   2   7
ENDBRANCH   1   2
BRANCH   1  10
ATOM     10  C   UNL     1     103.613 126.534  80.370  0.00  0.00    +0.000 C 
BRANCH  10  11
ATOM     11  C   UNL     1     102.833 126.912  81.606  0.00  0.00    +0.000 A 
ATOM     12  C   UNL     1     103.089 128.107  82.289  0.00  0.00    +0.000 A 
ATOM     13  C   UNL     1     102.332 128.467  83.407  0.00  0.00    +0.000 A 
ATOM     14  C   UNL     1     101.305 127.635  83.865  0.00  0.00    +0.000 A 
ATOM     15  C   UNL     1     101.027 126.455  83.169  0.00  0.00    +0.000 A 
ATOM     16  C   UNL     1     101.784 126.096  82.050  0.00  0.00    +0.000 A 
ATOM     17  C   UNL     1     100.471 128.037  85.045  0.00  0.00    +0.000 C 
ENDBRANCH  10  11
ENDBRANCH   1  10
TORSDOF 4
ENDMDL
