MODEL 1
REMARK VINA RESULT:      -4.1      0.000      0.000
REMARK  Name = *****
REMARK  4 active torsions:
REMARK  status: ('A' for Active; 'I' for Inactive)
REMARK    1  A    between atoms: C_1  and  C_2
REMARK    2  A    between atoms: C_2  and  C_11
REMARK    3  A    between atoms: N_3  and  C_4
REMARK    4  A    between atoms: C_9  and  S_10
REMARK                            x       y       z     vdW  Elec       q    Type
REMARK                         _______ _______ _______ _____ _____    ______ ____
ROOT
ATOM      1  C   UNL     1      89.294  68.098  84.168  0.00  0.00    +0.000 C 
ATOM      2  C   UNL     1      89.711  68.459  85.583  0.00  0.00    +0.000 C 
ATOM      3  N   UNL     1      90.168  67.601  86.454  0.00  0.00    +0.000 NA
ENDROOT
BRANCH   3   4
ATOM      4  C   UNL     1      90.311  66.246  86.097  0.00  0.00    +0.000 A 
ATOM      5  C   UNL     1      91.450  65.845  85.387  0.00  0.00    +0.000 A 
ATOM      6  C   UNL     1      91.621  64.513  85.005  0.00  0.00    +0.000 A 
ATOM      7  C   UNL     1      90.645  63.570  85.320  0.00  0.00    +0.000 A 
ATOM      8  C   UNL     1      89.493  63.960  86.006  0.00  0.00    +0.000 A 
ATOM      9  C   UNL     1      89.314  65.294  86.388  0.00  0.00    +0.000 A 
BRANCH   9  10
ATOM     10  S   UNL     1      87.811  65.746  87.247  0.00  0.00    +0.000 S 
ATOM     11  H   UNL     1      87.782  65.134  88.461  0.00  0.00    +0.000 HD
ENDBRANCH   9  10
ENDBRANCH   3   4
BRANCH   2  12
ATOM     12  C   UNL     1      89.544  69.909  86.062  0.00  0.00    +0.000 C 
ATOM     13  C   UNL     1      89.335  69.993  87.550  0.00  0.00    +0.000 C 
ATOM     14  C   UNL     1      88.153  70.577  87.808  0.00  0.00    +0.000 C 
ATOM     15  C   UNL     1      87.504  70.915  86.565  0.00  0.00    +0.000 C 
ATOM     16  C   UNL     1      88.281  70.540  85.538  0.00  0.00    +0.000 C 
ENDBRANCH   2  12
TORSDOF 3
ENDMDL
