REMARK  Name = *****
REMARK  4 active torsions:
REMARK  status: ('A' for Active; 'I' for Inactive)
REMARK    1  A    between atoms: C_5  and  C_7
REMARK    2  A    between atoms: C_7  and  O_9
REMARK    3  A    between atoms: O_9  and  C_10
REMARK    4  A    between atoms: C_10  and  C_11
REMARK                            x       y       z     vdW  Elec       q    Type
REMARK                         _______ _______ _______ _____ _____    ______ ____
ROOT
ATOM      1  O   UNL     1       2.279  -2.947   0.664  0.00  0.00    +0.000 OA
ENDROOT
BRANCH   1   2
ATOM      2  C   UNL     1       1.005  -2.855   0.223  0.00  0.00    +0.000 C 
ATOM      3  O   UNL     1       0.403  -3.705  -0.417  0.00  0.00    +0.000 OA
BRANCH   2   8
ATOM      4  C   UNL     1      -1.678  -0.376   1.138  0.00  0.00    +0.000 A 
ATOM      5  C   UNL     1      -0.933   0.744   1.504  0.00  0.00    +0.000 A 
ATOM      6  C   UNL     1       0.460   0.701   1.447  0.00  0.00    +0.000 A 
ATOM      7  C   UNL     1       1.106  -0.462   1.029  0.00  0.00    +0.000 A 
ATOM      8  C   UNL     1       0.373  -1.595   0.673  0.00  0.00    +0.000 A 
ATOM      9  C   UNL     1      -1.029  -1.542   0.720  0.00  0.00    +0.000 A 
ATOM     10  F   UNL     1       2.445  -0.441   0.961  0.00  0.00    +0.000 F 
ENDBRANCH   2   8
ENDBRANCH   1   2
BRANCH   1  11
ATOM     11  C   UNL     1       2.989  -4.136   0.301  0.00  0.00    +0.000 C 
BRANCH  11  12
ATOM     12  C   UNL     1       3.782  -3.897  -0.960  0.00  0.00    +0.000 A 
ATOM     13  C   UNL     1       5.016  -3.227  -0.963  0.00  0.00    +0.000 A 
ATOM     14  C   UNL     1       5.707  -3.008  -2.158  0.00  0.00    +0.000 A 
ATOM     15  C   UNL     1       5.164  -3.450  -3.361  0.00  0.00    +0.000 A 
ATOM     16  C   UNL     1       3.936  -4.105  -3.383  0.00  0.00    +0.000 A 
ATOM     17  C   UNL     1       3.246  -4.323  -2.189  0.00  0.00    +0.000 A 
ATOM     18 CL   UNL     1       6.013  -3.181  -4.833  0.00  0.00    +0.000 Cl
ATOM     19 CL   UNL     1       5.741  -2.644   0.494  0.00  0.00    +0.000 Cl
ENDBRANCH  11  12
ENDBRANCH   1  11
TORSDOF 4
