MODEL 1
REMARK VINA RESULT:      -4.2      0.000      0.000
REMARK  Name = *****
REMARK  5 active torsions:
REMARK  status: ('A' for Active; 'I' for Inactive)
REMARK    1  A    between atoms: C_1  and  C_2
REMARK    2  A    between atoms: C_3  and  C_16
REMARK    3  A    between atoms: C_5  and  S_8
REMARK    4  A    between atoms: S_8  and  C_9
REMARK    5  A    between atoms: C_9  and  C_10
REMARK                            x       y       z     vdW  Elec       q    Type
REMARK                         _______ _______ _______ _____ _____    ______ ____
ROOT
ATOM      1  C   UNL     1      83.308  72.999  86.866  0.00  0.00    +0.000 C 
ATOM      2  C   UNL     1      84.615  72.299  87.121  0.00  0.00    +0.000 A 
ATOM      3  C   UNL     1      85.471  71.933  86.063  0.00  0.00    +0.000 A 
ATOM      4  C   UNL     1      86.685  71.286  86.353  0.00  0.00    +0.000 A 
ATOM      5  C   UNL     1      87.054  71.000  87.670  0.00  0.00    +0.000 A 
ATOM      6  C   UNL     1      86.213  71.386  88.714  0.00  0.00    +0.000 A 
ATOM      7  C   UNL     1      85.003  72.027  88.441  0.00  0.00    +0.000 A 
ATOM      8  C   UNL     1      85.113  72.216  84.629  0.00  0.00    +0.000 C 
ENDROOT
BRANCH   5   9
ATOM      9  S   UNL     1      88.605  70.181  87.986  0.00  0.00    +0.000 S 
BRANCH   9  10
ATOM     10  C   UNL     1      89.508  70.661  86.477  0.00  0.00    +0.000 C 
BRANCH  10  11
ATOM     11  C   UNL     1      89.720  69.475  85.598  0.00  0.00    +0.000 A 
ATOM     12  C   UNL     1      89.908  69.422  84.229  0.00  0.00    +0.000 A 
ATOM     13  N   UNL     1      90.063  68.158  83.690  0.00  0.00    +0.000 NA
ATOM     14  C   UNL     1      90.003  67.284  84.663  0.00  0.00    +0.000 A 
ATOM     15  S   UNL     1      89.744  67.876  86.234  0.00  0.00    +0.000 S 
ATOM     16 CL   UNL     1      90.159  65.596  84.396  0.00  0.00    +0.000 Cl
ENDBRANCH  10  11
ENDBRANCH   9  10
ENDBRANCH   5   9
TORSDOF 3
ENDMDL
