MODEL 1
REMARK VINA RESULT:      -4.7      0.000      0.000
REMARK  Name = *****
REMARK  3 active torsions:
REMARK  status: ('A' for Active; 'I' for Inactive)
REMARK    1  A    between atoms: C_6  and  N_7
REMARK    2  A    between atoms: N_7  and  N_8
REMARK    3  A    between atoms: N_8  and  C_10
REMARK                            x       y       z     vdW  Elec       q    Type
REMARK                         _______ _______ _______ _____ _____    ______ ____
ROOT
ATOM      1  N   UNL     1     101.375 125.949  82.128  0.00  0.00    +0.000 N 
ATOM      2  H   UNL     1     100.996 125.555  81.309  0.00  0.00    +0.000 HD
ENDROOT
BRANCH   1   8
ATOM      3  C   UNL     1     101.430 128.094  83.237  0.00  0.00    +0.000 A 
ATOM      4  C   UNL     1     100.805 129.235  83.749  0.00  0.00    +0.000 A 
ATOM      5  C   UNL     1      99.428 129.362  83.644  0.00  0.00    +0.000 A 
ATOM      6  C   UNL     1      98.669 128.371  83.039  0.00  0.00    +0.000 A 
ATOM      7  C   UNL     1      99.301 127.231  82.528  0.00  0.00    +0.000 A 
ATOM      8  C   UNL     1     100.689 127.075  82.611  0.00  0.00    +0.000 A 
ATOM      9  F   UNL     1      98.825 130.453  84.134  0.00  0.00    +0.000 F 
ENDBRANCH   1   8
BRANCH   1  10
ATOM     10  N   UNL     1     102.528 125.287  82.628  0.00  0.00    +0.000 N 
ATOM     11  O   UNL     1     102.666 125.024  83.805  0.00  0.00    +0.000 OA
BRANCH  10  12
ATOM     12  C   UNL     1     103.561 124.854  81.708  0.00  0.00    +0.000 A 
ATOM     13  C   UNL     1     103.787 125.563  80.520  0.00  0.00    +0.000 A 
ATOM     14  C   UNL     1     104.781 125.129  79.642  0.00  0.00    +0.000 A 
ATOM     15  C   UNL     1     105.538 124.004  79.959  0.00  0.00    +0.000 A 
ATOM     16  C   UNL     1     105.324 123.302  81.142  0.00  0.00    +0.000 A 
ATOM     17  C   UNL     1     104.334 123.729  82.026  0.00  0.00    +0.000 A 
ATOM     18  F   UNL     1     106.490 123.592  79.113  0.00  0.00    +0.000 F 
ENDBRANCH  10  12
ENDBRANCH   1  10
TORSDOF 3
ENDMDL
