MODEL 1
REMARK VINA RESULT:      -4.7      0.000      0.000
REMARK  Name = *****
REMARK  4 active torsions:
REMARK  status: ('A' for Active; 'I' for Inactive)
REMARK    1  A    between atoms: C_1  and  C_2
REMARK    2  A    between atoms: C_3  and  O_9
REMARK    3  A    between atoms: O_9  and  C_10
REMARK    4  A    between atoms: C_10  and  C_12
REMARK                            x       y       z     vdW  Elec       q    Type
REMARK                         _______ _______ _______ _____ _____    ______ ____
ROOT
ATOM      1  C   UNL     1     101.967 125.976  82.857  0.00  0.00    +0.000 C 
ATOM      2  O   UNL     1     102.341 125.234  83.754  0.00  0.00    +0.000 OA
ENDROOT
BRANCH   1   3
ATOM      3  C   UNL     1     101.104 127.152  83.113  0.00  0.00    +0.000 A 
ATOM      4  C   UNL     1      99.780 127.233  82.668  0.00  0.00    +0.000 A 
ATOM      5  C   UNL     1      99.007 128.360  82.930  0.00  0.00    +0.000 A 
ATOM      6  C   UNL     1      99.565 129.418  83.636  0.00  0.00    +0.000 A 
ATOM      7  C   UNL     1     100.883 129.368  84.078  0.00  0.00    +0.000 A 
ATOM      8  C   UNL     1     101.657 128.236  83.814  0.00  0.00    +0.000 A 
ATOM      9  F   UNL     1      98.826 130.505  83.890  0.00  0.00    +0.000 F 
ATOM     10  F   UNL     1      99.222 126.244  81.956  0.00  0.00    +0.000 F 
ENDBRANCH   1   3
BRANCH   1  11
ATOM     11  O   UNL     1     102.188 125.833  81.503  0.00  0.00    +0.000 OA
BRANCH  11  14
ATOM     12  C   UNL     1     104.281 123.920  81.044  0.00  0.00    +0.000 C 
ATOM     13  C   UNL     1     104.470 125.393  80.831  0.00  0.00    +0.000 A 
ATOM     14  C   UNL     1     103.440 126.305  81.093  0.00  0.00    +0.000 A 
ATOM     15  C   UNL     1     103.600 127.677  80.880  0.00  0.00    +0.000 A 
ATOM     16  C   UNL     1     104.829 128.160  80.433  0.00  0.00    +0.000 A 
ATOM     17  C   UNL     1     105.874 127.268  80.193  0.00  0.00    +0.000 A 
ATOM     18  C   UNL     1     105.701 125.895  80.389  0.00  0.00    +0.000 A 
ATOM     19 CL   UNL     1     107.392 127.865  79.642  0.00  0.00    +0.000 Cl
ENDBRANCH  11  14
ENDBRANCH   1  11
TORSDOF 3
ENDMDL
