MODEL 1
REMARK VINA RESULT:      -4.8      0.000      0.000
REMARK  Name = *****
REMARK  2 active torsions:
REMARK  status: ('A' for Active; 'I' for Inactive)
REMARK    1  A    between atoms: C_4  and  C_7
REMARK    2  A    between atoms: C_7  and  C_9
REMARK                            x       y       z     vdW  Elec       q    Type
REMARK                         _______ _______ _______ _____ _____    ______ ____
ROOT
ATOM      1  C   UNL     1     102.053 125.880  83.346  0.00  0.00    +0.000 C 
ATOM      2  O   UNL     1     102.420 125.148  84.259  0.00  0.00    +0.000 OA
ENDROOT
BRANCH   1   3
ATOM      3  C   UNL     1     100.995 126.914  83.574  0.00  0.00    +0.000 C 
ATOM      4  C   UNL     1      99.714 126.534  84.290  0.00  0.00    +0.000 C 
ATOM      5  C   UNL     1      99.698 126.815  82.792  0.00  0.00    +0.000 C 
ATOM      6  C   UNL     1      98.652 127.929  82.648  0.00  0.00    +0.000 C 
ATOM      7  C   UNL     1      97.630 127.472  83.711  0.00  0.00    +0.000 C 
ATOM      8  C   UNL     1      98.674 127.515  84.848  0.00  0.00    +0.000 C 
ATOM      9  C   UNL     1      99.096 128.962  84.661  0.00  0.00    +0.000 C 
ATOM     10  C   UNL     1      99.083 129.211  83.338  0.00  0.00    +0.000 C 
ENDBRANCH   1   3
BRANCH   1  14
ATOM     11  C   UNL     1     104.806 125.986  79.972  0.00  0.00    +0.000 C 
ATOM     12  C   UNL     1     104.288 124.633  80.447  0.00  0.00    +0.000 C 
ATOM     13  C   UNL     1     103.678 124.717  81.843  0.00  0.00    +0.000 C 
ATOM     14  C   UNL     1     102.588 125.792  81.923  0.00  0.00    +0.000 C 
ATOM     15  C   UNL     1     103.122 127.150  81.448  0.00  0.00    +0.000 C 
ATOM     16  C   UNL     1     103.723 127.059  80.048  0.00  0.00    +0.000 C 
ENDBRANCH   1  14
TORSDOF 2
ENDMDL
