MODEL 1
REMARK VINA RESULT:      -4.9      0.000      0.000
REMARK  Name = *****
REMARK  0 active torsions:
REMARK  status: ('A' for Active; 'I' for Inactive)
REMARK                            x       y       z     vdW  Elec       q    Type
REMARK                         _______ _______ _______ _____ _____    ______ ____
ROOT
ATOM      1  C   UNL     1     100.773 127.286  84.811  0.00  0.00    +0.000 C 
ATOM      2  C   UNL     1     101.831 126.464  84.876  0.00  0.00    +0.000 C 
ATOM      3  C   UNL     1     102.276 125.605  83.703  0.00  0.00    +0.000 C 
ATOM      4  C   UNL     1     101.709 126.123  82.321  0.00  0.00    +0.000 C 
ATOM      5  C   UNL     1     102.676 126.994  81.539  0.00  0.00    +0.000 C 
ATOM      6  C   UNL     1     103.607 126.565  80.665  0.00  0.00    +0.000 C 
ATOM      7  C   UNL     1     103.936 125.120  80.310  0.00  0.00    +0.000 C 
ATOM      8  C   UNL     1     104.034 124.121  81.531  0.00  0.00    +0.000 C 
ATOM      9  C   UNL     1     104.534 124.757  82.816  0.00  0.00    +0.000 C 
ATOM     10  C   UNL     1     103.780 125.366  83.750  0.00  0.00    +0.000 C 
ATOM     11  C   UNL     1     104.878 122.897  81.234  0.00  0.00    +0.000 C 
ATOM     12  C   UNL     1     105.777 122.864  80.240  0.00  0.00    +0.000 C 
ATOM     13  C   UNL     1     105.992 124.008  79.393  0.00  0.00    +0.000 C 
ATOM     14  C   UNL     1     105.154 125.053  79.401  0.00  0.00    +0.000 C 
ATOM     15  C   UNL     1     100.391 126.863  82.456  0.00  0.00    +0.000 C 
ATOM     16  C   UNL     1      99.977 127.391  83.616  0.00  0.00    +0.000 C 
ENDROOT
TORSDOF 0
ENDMDL
