MODEL 1
REMARK VINA RESULT:      -4.2      0.000      0.000
REMARK  Name = *****
REMARK  3 active torsions:
REMARK  status: ('A' for Active; 'I' for Inactive)
REMARK    1  A    between atoms: C_4  and  S_7
REMARK    2  A    between atoms: S_7  and  C_8
REMARK    3  A    between atoms: C_8  and  C_9
REMARK                            x       y       z     vdW  Elec       q    Type
REMARK                         _______ _______ _______ _____ _____    ______ ____
ROOT
ATOM      1  C   UNL     1     102.884 125.430  83.585  0.00  0.00    +0.000 C 
ENDROOT
BRANCH   1   2
ATOM      2  C   UNL     1     103.663 124.746  82.487  0.00  0.00    +0.000 A 
ATOM      3  C   UNL     1     103.578 125.279  81.185  0.00  0.00    +0.000 A 
ATOM      4  C   UNL     1     104.261 124.697  80.116  0.00  0.00    +0.000 A 
ATOM      5  C   UNL     1     105.039 123.564  80.325  0.00  0.00    +0.000 A 
ATOM      6  C   UNL     1     105.131 123.012  81.602  0.00  0.00    +0.000 A 
ATOM      7  C   UNL     1     104.447 123.593  82.679  0.00  0.00    +0.000 A 
ATOM      8  I   UNL     1     104.665 122.642  84.541  0.00  0.00    +0.000 I 
ENDBRANCH   1   2
BRANCH   1   9
ATOM      9  S   UNL     1     102.967 127.246  83.436  0.00  0.00    +0.000 S 
BRANCH   9  13
ATOM     10  C   UNL     1      98.511 128.092  82.810  0.00  0.00    +0.000 A 
ATOM     11  C   UNL     1      99.318 129.054  83.412  0.00  0.00    +0.000 A 
ATOM     12  C   UNL     1     100.679 128.803  83.605  0.00  0.00    +0.000 A 
ATOM     13  C   UNL     1     101.234 127.585  83.200  0.00  0.00    +0.000 A 
ATOM     14  C   UNL     1     100.421 126.629  82.586  0.00  0.00    +0.000 A 
ATOM     15  C   UNL     1      99.060 126.880  82.395  0.00  0.00    +0.000 A 
ENDBRANCH   9  13
ENDBRANCH   1   9
TORSDOF 3
ENDMDL
