REMARK  Name = *****
REMARK  2 active torsions:
REMARK  status: ('A' for Active; 'I' for Inactive)
REMARK    1  A    between atoms: C_4  and  C_6
REMARK    2  A    between atoms: N_7  and  C_8
REMARK                            x       y       z     vdW  Elec       q    Type
REMARK                         _______ _______ _______ _____ _____    ______ ____
ROOT
ATOM      1  C   UNL     1       0.524  -4.963  -0.284  0.00  0.00    +0.000 A 
ATOM      2  C   UNL     1       1.156  -5.750   0.681  0.00  0.00    +0.000 A 
ATOM      3  C   UNL     1       0.859  -7.112   0.788  0.00  0.00    +0.000 A 
ATOM      4  C   UNL     1      -0.069  -7.695  -0.082  0.00  0.00    +0.000 A 
ATOM      5  C   UNL     1      -0.691  -6.913  -1.059  0.00  0.00    +0.000 A 
ATOM      6  C   UNL     1      -0.389  -5.553  -1.162  0.00  0.00    +0.000 A 
ATOM      7 CL   UNL     1      -0.488  -9.369  -0.006  0.00  0.00    +0.000 Cl
ATOM      8 CL   UNL     1       1.673  -8.017   2.015  0.00  0.00    +0.000 Cl
ENDROOT
BRANCH   1  10
ATOM      9  C   UNL     1       0.073  -2.781   0.238  0.00  0.00    +0.000 C 
ATOM     10  N   UNL     1       0.842  -3.606  -0.403  0.00  0.00    +0.000 NA
BRANCH   9  14
ATOM     11  C   UNL     1       1.208   0.737  -0.293  0.00  0.00    +0.000 A 
ATOM     12  C   UNL     1       0.140   1.074   0.508  0.00  0.00    +0.000 A 
ATOM     13  S   UNL     1      -0.733  -0.303   1.027  0.00  0.00    +0.000 S 
ATOM     14  C   UNL     1       0.312  -1.361   0.182  0.00  0.00    +0.000 A 
ATOM     15  C   UNL     1       1.307  -0.672  -0.482  0.00  0.00    +0.000 A 
ENDBRANCH   9  14
ENDBRANCH   1  10
TORSDOF 2
