MODEL 1
REMARK VINA RESULT:      -4.2      0.000      0.000
REMARK  Name = *****
REMARK  5 active torsions:
REMARK  status: ('A' for Active; 'I' for Inactive)
REMARK    1  A    between atoms: C_1  and  C_2
REMARK    2  A    between atoms: C_5  and  C_7
REMARK    3  A    between atoms: C_7  and  O_9
REMARK    4  A    between atoms: O_9  and  C_10
REMARK    5  A    between atoms: C_10  and  C_11
REMARK                            x       y       z     vdW  Elec       q    Type
REMARK                         _______ _______ _______ _____ _____    ______ ____
ROOT
ATOM      1  C   UNL     1      99.262 127.412  82.923  0.00  0.00    +0.000 C 
ATOM      2  O   UNL     1      98.489 127.000  82.066  0.00  0.00    +0.000 OA
ENDROOT
BRANCH   1   7
ATOM      3  C   UNL     1      97.971 130.816  86.768  0.00  0.00    +0.000 C 
ATOM      4  C   UNL     1      98.500 130.211  85.513  0.00  0.00    +0.000 A 
ATOM      5  C   UNL     1      99.171 130.827  84.479  0.00  0.00    +0.000 A 
ATOM      6  C   UNL     1      99.520 129.912  83.444  0.00  0.00    +0.000 A 
ATOM      7  C   UNL     1      99.105 128.619  83.714  0.00  0.00    +0.000 A 
ATOM      8  S   UNL     1      98.295 128.539  85.223  0.00  0.00    +0.000 S 
ENDBRANCH   1   7
BRANCH   1   9
ATOM      9  O   UNL     1     100.416 126.781  83.284  0.00  0.00    +0.000 OA
BRANCH   9  10
ATOM     10  C   UNL     1     101.225 126.298  82.207  0.00  0.00    +0.000 C 
BRANCH  10  11
ATOM     11  C   UNL     1     102.425 127.194  82.043  0.00  0.00    +0.000 A 
ATOM     12  C   UNL     1     102.792 128.085  83.061  0.00  0.00    +0.000 A 
ATOM     13  C   UNL     1     103.891 128.930  82.899  0.00  0.00    +0.000 A 
ATOM     14  C   UNL     1     104.626 128.899  81.716  0.00  0.00    +0.000 A 
ATOM     15  C   UNL     1     104.261 128.026  80.692  0.00  0.00    +0.000 A 
ATOM     16  C   UNL     1     103.164 127.180  80.853  0.00  0.00    +0.000 A 
ENDBRANCH  10  11
ENDBRANCH   9  10
ENDBRANCH   1   9
TORSDOF 4
ENDMDL
