MODEL 1
REMARK VINA RESULT:      -4.5      0.000      0.000
REMARK  Name = *****
REMARK  4 active torsions:
REMARK  status: ('A' for Active; 'I' for Inactive)
REMARK    1  A    between atoms: C_1  and  C_2
REMARK    2  A    between atoms: C_2  and  C_16
REMARK    3  A    between atoms: C_5  and  C_7
REMARK    4  A    between atoms: C_8  and  C_9
REMARK                            x       y       z     vdW  Elec       q    Type
REMARK                         _______ _______ _______ _____ _____    ______ ____
ROOT
ATOM      1  C   UNL     1     101.321 126.072  82.524  0.00  0.00    +0.000 C 
ATOM      2  C   UNL     1     102.293 126.399  81.660  0.00  0.00    +0.000 C 
ENDROOT
BRANCH   1   7
ATOM      3  C   UNL     1      98.335 128.583  85.210  0.00  0.00    +0.000 C 
ATOM      4  C   UNL     1      99.026 128.539  83.852  0.00  0.00    +0.000 C 
ATOM      5  C   UNL     1      98.207 127.783  82.814  0.00  0.00    +0.000 C 
ATOM      6  O   UNL     1      99.173 127.017  82.104  0.00  0.00    +0.000 OA
ATOM      7  C   UNL     1     100.254 126.998  82.919  0.00  0.00    +0.000 C 
ATOM      8  N   UNL     1     100.278 127.764  83.959  0.00  0.00    +0.000 NA
ATOM      9  C   UNL     1      99.377 129.954  83.381  0.00  0.00    +0.000 C 
ENDBRANCH   1   7
BRANCH   2  10
ATOM     10  C   UNL     1     103.375 125.489  81.258  0.00  0.00    +0.000 A 
ATOM     11  C   UNL     1     104.055 125.620  80.039  0.00  0.00    +0.000 A 
ATOM     12  C   UNL     1     105.100 124.750  79.709  0.00  0.00    +0.000 A 
ATOM     13  C   UNL     1     105.477 123.751  80.603  0.00  0.00    +0.000 A 
ATOM     14  C   UNL     1     104.824 123.617  81.824  0.00  0.00    +0.000 A 
ATOM     15  C   UNL     1     103.780 124.488  82.153  0.00  0.00    +0.000 A 
ATOM     16 CL   UNL     1     106.763 122.682  80.198  0.00  0.00    +0.000 Cl
ENDBRANCH   2  10
TORSDOF 2
ENDMDL
