MODEL 1
REMARK VINA RESULT:      -3.9      0.000      0.000
REMARK  Name = *****
REMARK  5 active torsions:
REMARK  status: ('A' for Active; 'I' for Inactive)
REMARK    1  A    between atoms: C_1  and  S_2
REMARK    2  A    between atoms: S_2  and  C_3
REMARK    3  A    between atoms: C_8  and  S_9
REMARK    4  A    between atoms: S_9  and  C_10
REMARK    5  A    between atoms: C_10  and  C_12
REMARK                            x       y       z     vdW  Elec       q    Type
REMARK                         _______ _______ _______ _____ _____    ______ ____
ROOT
ATOM      1  S   UNL     1      88.962  68.248  84.505  0.00  0.00    +0.000 S 
ENDROOT
BRANCH   1   7
ATOM      2  C   UNL     1      88.101  70.924  84.281  0.00  0.00    +0.000 A 
ATOM      3  C   UNL     1      88.349  72.286  84.047  0.00  0.00    +0.000 A 
ATOM      4  C   UNL     1      89.641  72.744  83.790  0.00  0.00    +0.000 A 
ATOM      5  C   UNL     1      90.702  71.845  83.764  0.00  0.00    +0.000 A 
ATOM      6  C   UNL     1      90.469  70.487  83.988  0.00  0.00    +0.000 A 
ATOM      7  C   UNL     1      89.172  70.009  84.235  0.00  0.00    +0.000 A 
BRANCH   2   9
ATOM      8  C   UNL     1      86.094  71.543  86.026  0.00  0.00    +0.000 C 
ATOM      9  S   UNL     1      86.401  70.454  84.611  0.00  0.00    +0.000 S 
ENDBRANCH   2   9
ENDBRANCH   1   7
BRANCH   1  10
ATOM     10  C   UNL     1      89.541  68.137  86.165  0.00  0.00    +0.000 C 
ATOM     11  O   UNL     1      90.509  67.435  86.431  0.00  0.00    +0.000 OA
BRANCH  10  12
ATOM     12  C   UNL     1      88.833  68.905  87.233  0.00  0.00    +0.000 A 
ATOM     13  C   UNL     1      89.303  70.112  87.769  0.00  0.00    +0.000 A 
ATOM     14  C   UNL     1      88.579  70.772  88.767  0.00  0.00    +0.000 A 
ATOM     15  C   UNL     1      87.385  70.232  89.241  0.00  0.00    +0.000 A 
ATOM     16  C   UNL     1      86.911  69.031  88.722  0.00  0.00    +0.000 A 
ATOM     17  C   UNL     1      87.631  68.369  87.724  0.00  0.00    +0.000 A 
ENDBRANCH  10  12
ENDBRANCH   1  10
TORSDOF 4
ENDMDL
