MODEL 1
REMARK VINA RESULT:      -4.7      0.000      0.000
REMARK  Name = *****
REMARK  4 active torsions:
REMARK  status: ('A' for Active; 'I' for Inactive)
REMARK    1  A    between atoms: C_1  and  C_2
REMARK    2  A    between atoms: C_5  and  C_8
REMARK    3  A    between atoms: C_8  and  O_10
REMARK    4  A    between atoms: O_10  and  C_11
REMARK                            x       y       z     vdW  Elec       q    Type
REMARK                         _______ _______ _______ _____ _____    ______ ____
ROOT
ATOM      1  C   UNL     1      88.112  70.530  87.681  0.00  0.00    +0.000 C 
ATOM      2  O   UNL     1      88.767  70.604  88.709  0.00  0.00    +0.000 OA
ENDROOT
BRANCH   1   7
ATOM      3  C   UNL     1      82.981  73.111  86.838  0.00  0.00    +0.000 C 
ATOM      4  C   UNL     1      84.292  72.419  87.070  0.00  0.00    +0.000 A 
ATOM      5  C   UNL     1      84.736  72.160  88.372  0.00  0.00    +0.000 A 
ATOM      6  C   UNL     1      85.972  71.545  88.594  0.00  0.00    +0.000 A 
ATOM      7  C   UNL     1      86.785  71.187  87.511  0.00  0.00    +0.000 A 
ATOM      8  C   UNL     1      86.347  71.458  86.207  0.00  0.00    +0.000 A 
ATOM      9  C   UNL     1      85.113  72.074  85.990  0.00  0.00    +0.000 A 
ENDBRANCH   1   7
BRANCH   1  10
ATOM     10  O   UNL     1      88.450  69.853  86.522  0.00  0.00    +0.000 OA
BRANCH  10  11
ATOM     11  C   UNL     1      88.682  68.482  86.674  0.00  0.00    +0.000 A 
ATOM     12  C   UNL     1      87.694  67.636  87.182  0.00  0.00    +0.000 A 
ATOM     13  C   UNL     1      87.946  66.267  87.261  0.00  0.00    +0.000 A 
ATOM     14  C   UNL     1      89.168  65.767  86.818  0.00  0.00    +0.000 A 
ATOM     15  C   UNL     1      90.144  66.609  86.291  0.00  0.00    +0.000 A 
ATOM     16  C   UNL     1      89.900  67.979  86.211  0.00  0.00    +0.000 A 
ATOM     17  F   UNL     1      89.406  64.451  86.892  0.00  0.00    +0.000 F 
ENDBRANCH  10  11
ENDBRANCH   1  10
TORSDOF 3
ENDMDL
