REMARK  Name = *****
REMARK  5 active torsions:
REMARK  status: ('A' for Active; 'I' for Inactive)
REMARK    1  A    between atoms: C_1  and  C_2
REMARK    2  A    between atoms: C_5  and  N_8
REMARK    3  A    between atoms: N_8  and  C_9
REMARK    4  A    between atoms: N_8  and  C_10
REMARK    5  A    between atoms: C_11  and  C_12
REMARK                            x       y       z     vdW  Elec       q    Type
REMARK                         _______ _______ _______ _____ _____    ______ ____
ROOT
ATOM      1  N   UNL     1      -3.334  -0.067   0.049  0.00  0.00    +0.000 N 
ATOM      2  C   UNL     1      -3.956  -1.383  -0.126  0.00  0.00    +0.000 C 
ENDROOT
BRANCH   1   7
ATOM      3  C   UNL     1       2.430   0.019   0.032  0.00  0.00    +0.000 C 
ATOM      4  C   UNL     1       0.932  -0.029   0.056  0.00  0.00    +0.000 A 
ATOM      5  C   UNL     1       0.234  -0.927  -0.755  0.00  0.00    +0.000 A 
ATOM      6  C   UNL     1      -1.166  -0.947  -0.755  0.00  0.00    +0.000 A 
ATOM      7  C   UNL     1      -1.913  -0.064   0.043  0.00  0.00    +0.000 A 
ATOM      8  C   UNL     1      -1.193   0.845   0.838  0.00  0.00    +0.000 A 
ATOM      9  C   UNL     1       0.206   0.867   0.844  0.00  0.00    +0.000 A 
ENDBRANCH   1   7
BRANCH   1  10
ATOM     10  C   UNL     1      -4.066   1.117   0.013  0.00  0.00    +0.000 C 
ATOM     11  C   UNL     1      -5.396   1.297  -0.007  0.00  0.00    +0.000 C 
BRANCH  11  12
ATOM     12  C   UNL     1      -6.045   2.615  -0.062  0.00  0.00    +0.000 A 
ATOM     13  C   UNL     1      -5.561   3.653  -0.869  0.00  0.00    +0.000 A 
ATOM     14  C   UNL     1      -6.224   4.882  -0.920  0.00  0.00    +0.000 A 
ATOM     15  C   UNL     1      -7.384   5.081  -0.175  0.00  0.00    +0.000 A 
ATOM     16  C   UNL     1      -7.885   4.051   0.618  0.00  0.00    +0.000 A 
ATOM     17  C   UNL     1      -7.222   2.822   0.669  0.00  0.00    +0.000 A 
ENDBRANCH  11  12
ENDBRANCH   1  10
TORSDOF 3
