MODEL 1
REMARK VINA RESULT:      -4.9      0.000      0.000
REMARK  Name = *****
REMARK  6 active torsions:
REMARK  status: ('A' for Active; 'I' for Inactive)
REMARK    1  A    between atoms: C_1  and  C_2
REMARK    2  A    between atoms: C_4  and  C_18
REMARK    3  A    between atoms: C_6  and  C_8
REMARK    4  A    between atoms: C_8  and  O_9
REMARK    5  A    between atoms: O_9  and  C_10
REMARK    6  A    between atoms: C_10  and  C_12
REMARK                            x       y       z     vdW  Elec       q    Type
REMARK                         _______ _______ _______ _____ _____    ______ ____
ROOT
ATOM      1  C   UNL     1     101.257 126.243  82.656  0.00  0.00    +0.000 C 
ENDROOT
BRANCH   1   7
ATOM      2  C   UNL     1     104.750 128.963  80.250  0.00  0.00    +0.000 C 
ATOM      3  C   UNL     1     104.163 127.629  80.609  0.00  0.00    +0.000 A 
ATOM      4  C   UNL     1     104.797 126.446  80.211  0.00  0.00    +0.000 A 
ATOM      5  C   UNL     1     104.277 125.196  80.572  0.00  0.00    +0.000 A 
ATOM      6  C   UNL     1     103.126 125.140  81.366  0.00  0.00    +0.000 A 
ATOM      7  C   UNL     1     102.479 126.314  81.778  0.00  0.00    +0.000 A 
ATOM      8  C   UNL     1     103.014 127.555  81.405  0.00  0.00    +0.000 A 
ATOM      9  C   UNL     1     104.986 123.936  80.173  0.00  0.00    +0.000 C 
ENDBRANCH   1   7
BRANCH   1  10
ATOM     10  O   UNL     1     100.628 127.528  82.699  0.00  0.00    +0.000 OA
BRANCH  10  11
ATOM     11  C   UNL     1      99.265 127.518  82.665  0.00  0.00    +0.000 C 
ATOM     12  O   UNL     1      98.580 126.716  82.047  0.00  0.00    +0.000 OA
BRANCH  11  13
ATOM     13  C   UNL     1      98.725 128.648  83.527  0.00  0.00    +0.000 C 
ATOM     14  C   UNL     1      99.708 129.826  83.565  0.00  0.00    +0.000 C 
ATOM     15  C   UNL     1      99.213 130.946  84.477  0.00  0.00    +0.000 C 
ATOM     16  C   UNL     1      98.919 130.431  85.884  0.00  0.00    +0.000 C 
ATOM     17  C   UNL     1      97.944 129.259  85.859  0.00  0.00    +0.000 C 
ATOM     18  C   UNL     1      98.431 128.138  84.943  0.00  0.00    +0.000 C 
ENDBRANCH  11  13
ENDBRANCH  10  11
ENDBRANCH   1  10
TORSDOF 4
ENDMDL
