MODEL 1
REMARK VINA RESULT:      -4.5      0.000      0.000
REMARK  Name = *****
REMARK  2 active torsions:
REMARK  status: ('A' for Active; 'I' for Inactive)
REMARK    1  A    between atoms: C_7  and  C_9
REMARK    2  A    between atoms: C_10  and  C_11
REMARK                            x       y       z     vdW  Elec       q    Type
REMARK                         _______ _______ _______ _____ _____    ______ ____
ROOT
ATOM      1  C   UNL     1     105.067 124.351  82.945  0.00  0.00    +0.000 C 
ATOM      2  C   UNL     1     106.328 125.145  82.618  0.00  0.00    +0.000 C 
ATOM      3  C   UNL     1     106.030 126.572  82.180  0.00  0.00    +0.000 C 
ATOM      4  C   UNL     1     105.688 126.718  80.717  0.00  0.00    +0.000 C 
ATOM      5  O   UNL     1     105.998 127.748  80.111  0.00  0.00    +0.000 OA
ATOM      6  C   UNL     1     104.974 125.600  79.989  0.00  0.00    +0.000 C 
ATOM      7  C   UNL     1     103.790 124.961  80.730  0.00  0.00    +0.000 C 
ATOM      8  C   UNL     1     104.260 123.887  81.732  0.00  0.00    +0.000 C 
ENDROOT
BRANCH   7   9
ATOM      9  C   UNL     1     102.796 125.996  81.217  0.00  0.00    +0.000 C 
ATOM     10  C   UNL     1     101.956 125.884  82.260  0.00  0.00    +0.000 C 
BRANCH  10  11
ATOM     11  C   UNL     1     101.017 126.938  82.677  0.00  0.00    +0.000 A 
ATOM     12  C   UNL     1     101.439 128.109  83.316  0.00  0.00    +0.000 A 
ATOM     13  C   UNL     1     100.516 129.099  83.669  0.00  0.00    +0.000 A 
ATOM     14  C   UNL     1      99.165 128.931  83.375  0.00  0.00    +0.000 A 
ATOM     15  C   UNL     1      98.735 127.777  82.723  0.00  0.00    +0.000 A 
ATOM     16  C   UNL     1      99.657 126.788  82.371  0.00  0.00    +0.000 A 
ENDBRANCH  10  11
ENDBRANCH   7   9
TORSDOF 2
ENDMDL
