MODEL 1
REMARK VINA RESULT:      -4.0      0.000      0.000
REMARK  Name = *****
REMARK  3 active torsions:
REMARK  status: ('A' for Active; 'I' for Inactive)
REMARK    1  A    between atoms: C_4  and  P_7
REMARK    2  A    between atoms: P_7  and  P_8
REMARK    3  A    between atoms: P_8  and  C_9
REMARK                            x       y       z     vdW  Elec       q    Type
REMARK                         _______ _______ _______ _____ _____    ______ ____
ROOT
ATOM      1  P   UNL     1     102.421 125.976  82.406  0.00  0.00    +0.000 P 
ATOM      2  H   UNL     1     101.872 124.749  82.094  0.00  0.00    +0.000 HD
ENDROOT
BRANCH   1   6
ATOM      3  C   UNL     1      98.887 128.720  83.812  0.00  0.00    +0.000 C 
ATOM      4  C   UNL     1     100.285 129.331  83.777  0.00  0.00    +0.000 C 
ATOM      5  C   UNL     1     101.369 128.258  83.679  0.00  0.00    +0.000 C 
ATOM      6  C   UNL     1     101.143 127.337  82.470  0.00  0.00    +0.000 C 
ATOM      7  C   UNL     1      99.735 126.718  82.526  0.00  0.00    +0.000 C 
ATOM      8  C   UNL     1      98.653 127.793  82.624  0.00  0.00    +0.000 C 
ENDBRANCH   1   6
BRANCH   1   9
ATOM      9  P   UNL     1     103.656 126.850  80.683  0.00  0.00    +0.000 P 
ATOM     10  H   UNL     1     104.664 127.683  81.124  0.00  0.00    +0.000 HD
BRANCH   9  11
ATOM     11  C   UNL     1     104.305 125.225  80.031  0.00  0.00    +0.000 C 
ATOM     12  C   UNL     1     104.214 124.155  81.135  0.00  0.00    +0.000 C 
ATOM     13  C   UNL     1     104.774 122.813  80.665  0.00  0.00    +0.000 C 
ATOM     14  C   UNL     1     106.206 122.951  80.156  0.00  0.00    +0.000 C 
ATOM     15  C   UNL     1     106.314 124.015  79.070  0.00  0.00    +0.000 C 
ATOM     16  C   UNL     1     105.755 125.358  79.537  0.00  0.00    +0.000 C 
ENDBRANCH   9  11
ENDBRANCH   1   9
TORSDOF 3
ENDMDL
