MODEL 1
REMARK VINA RESULT:      -4.4      0.000      0.000
REMARK  Name = *****
REMARK  5 active torsions:
REMARK  status: ('A' for Active; 'I' for Inactive)
REMARK    1  A    between atoms: C_1  and  N_2
REMARK    2  A    between atoms: N_2  and  C_3
REMARK    3  A    between atoms: N_2  and  C_4
REMARK    4  A    between atoms: C_9  and  C_10
REMARK    5  A    between atoms: C_11  and  C_12
REMARK                            x       y       z     vdW  Elec       q    Type
REMARK                         _______ _______ _______ _____ _____    ______ ____
ROOT
ATOM      1  C   UNL     1     101.008 128.002  83.804  0.00  0.00    +0.000 A 
ATOM      2  C   UNL     1      99.874 128.708  84.250  0.00  0.00    +0.000 A 
ATOM      3  C   UNL     1      98.598 128.462  83.729  0.00  0.00    +0.000 A 
ATOM      4  C   UNL     1      98.419 127.495  82.748  0.00  0.00    +0.000 A 
ATOM      5  C   UNL     1      99.516 126.769  82.292  0.00  0.00    +0.000 A 
ATOM      6  C   UNL     1     100.798 127.011  82.812  0.00  0.00    +0.000 A 
ENDROOT
BRANCH   1   8
ATOM      7  C   UNL     1     102.670 127.641  85.590  0.00  0.00    +0.000 C 
ATOM      8  N   UNL     1     102.286 128.262  84.327  0.00  0.00    +0.000 N 
ATOM      9  C   UNL     1     102.769 129.630  84.131  0.00  0.00    +0.000 C 
ENDBRANCH   1   8
BRANCH   6  10
ATOM     10  C   UNL     1     101.868 126.180  82.329  0.00  0.00    +0.000 C 
ATOM     11  C   UNL     1     102.758 125.484  81.923  0.00  0.00    +0.000 C 
BRANCH  11  12
ATOM     12  C   UNL     1     103.822 124.663  81.434  0.00  0.00    +0.000 A 
ATOM     13  C   UNL     1     104.369 124.910  80.170  0.00  0.00    +0.000 A 
ATOM     14  C   UNL     1     105.403 124.105  79.689  0.00  0.00    +0.000 A 
ATOM     15  C   UNL     1     105.883 123.063  80.475  0.00  0.00    +0.000 A 
ATOM     16  C   UNL     1     105.348 122.809  81.734  0.00  0.00    +0.000 A 
ATOM     17  C   UNL     1     104.313 123.612  82.217  0.00  0.00    +0.000 A 
ATOM     18  F   UNL     1     106.876 122.292  80.013  0.00  0.00    +0.000 F 
ENDBRANCH  11  12
ENDBRANCH   6  10
TORSDOF 3
ENDMDL
