MODEL 1
REMARK VINA RESULT:      -5.2      0.000      0.000
REMARK  Name = *****
REMARK  3 active torsions:
REMARK  status: ('A' for Active; 'I' for Inactive)
REMARK    1  A    between atoms: C_1  and  C_2
REMARK    2  A    between atoms: C_5  and  C_8
REMARK    3  A    between atoms: C_9  and  C_10
REMARK                            x       y       z     vdW  Elec       q    Type
REMARK                         _______ _______ _______ _____ _____    ______ ____
ROOT
ATOM      1  C   UNL     1     102.951 125.881  81.746  0.00  0.00    +0.000 C 
ATOM      2  C   UNL     1     101.908 125.858  82.596  0.00  0.00    +0.000 C 
ATOM      3 BR   UNL     1     103.437 127.345  80.685  0.00  0.00    +0.000 Br
ENDROOT
BRANCH   1   8
ATOM      4  C   UNL     1     106.297 121.174  81.341  0.00  0.00    +0.000 C 
ATOM      5  C   UNL     1     105.408 122.378  81.439  0.00  0.00    +0.000 A 
ATOM      6  C   UNL     1     105.149 123.164  80.310  0.00  0.00    +0.000 A 
ATOM      7  C   UNL     1     104.348 124.305  80.410  0.00  0.00    +0.000 A 
ATOM      8  C   UNL     1     103.804 124.684  81.643  0.00  0.00    +0.000 A 
ATOM      9  C   UNL     1     104.074 123.906  82.775  0.00  0.00    +0.000 A 
ATOM     10  C   UNL     1     104.875 122.765  82.674  0.00  0.00    +0.000 A 
ENDBRANCH   1   8
BRANCH   2  11
ATOM     11  C   UNL     1     100.965 126.955  82.830  0.00  0.00    +0.000 A 
ATOM     12  C   UNL     1      99.635 126.863  82.406  0.00  0.00    +0.000 A 
ATOM     13  C   UNL     1      98.745 127.912  82.650  0.00  0.00    +0.000 A 
ATOM     14  C   UNL     1      99.180 129.053  83.324  0.00  0.00    +0.000 A 
ATOM     15  C   UNL     1     100.502 129.147  83.755  0.00  0.00    +0.000 A 
ATOM     16  C   UNL     1     101.393 128.099  83.511  0.00  0.00    +0.000 A 
ENDBRANCH   2  11
TORSDOF 2
ENDMDL
