REMARK  Name = *****
REMARK  6 active torsions:
REMARK  status: ('A' for Active; 'I' for Inactive)
REMARK    1  A    between atoms: C_1  and  C_2
REMARK    2  A    between atoms: C_5  and  C_8
REMARK    3  A    between atoms: C_8  and  C_18
REMARK    4  A    between atoms: N_9  and  C_10
REMARK    5  A    between atoms: C_11  and  C_17
REMARK    6  A    between atoms: C_15  and  C_16
REMARK                            x       y       z     vdW  Elec       q    Type
REMARK                         _______ _______ _______ _____ _____    ______ ____
ROOT
ATOM      1  C   UNL     1      -3.303  -0.010  -0.289  0.00  0.00    +0.000 C 
ATOM      2  N   UNL     1      -3.925  -1.153  -0.290  0.00  0.00    +0.000 NA
ATOM      3  C   UNL     1      -4.153   1.225  -0.495  0.00  0.00    +0.000 C 
ENDROOT
BRANCH   2   4
ATOM      4  C   UNL     1      -3.239  -2.372  -0.139  0.00  0.00    +0.000 A 
ATOM      5  C   UNL     1      -3.348  -3.068   1.084  0.00  0.00    +0.000 A 
ATOM      6  C   UNL     1      -2.671  -4.284   1.258  0.00  0.00    +0.000 A 
ATOM      7  C   UNL     1      -1.906  -4.818   0.226  0.00  0.00    +0.000 A 
ATOM      8  C   UNL     1      -1.834  -4.160  -0.998  0.00  0.00    +0.000 A 
ATOM      9  C   UNL     1      -2.520  -2.951  -1.205  0.00  0.00    +0.000 A 
ATOM     10  C   UNL     1      -2.435  -2.302  -2.558  0.00  0.00    +0.000 C 
ATOM     11  C   UNL     1      -4.211  -2.534   2.195  0.00  0.00    +0.000 C 
ENDBRANCH   2   4
BRANCH   1  16
ATOM     12  C   UNL     1       2.365   1.001   0.313  0.00  0.00    +0.000 C 
ATOM     13  C   UNL     1       0.902   0.714   0.145  0.00  0.00    +0.000 A 
ATOM     14  C   UNL     1       0.210   1.178  -0.981  0.00  0.00    +0.000 A 
ATOM     15  C   UNL     1      -1.158   0.932  -1.120  0.00  0.00    +0.000 A 
ATOM     16  C   UNL     1      -1.844   0.221  -0.130  0.00  0.00    +0.000 A 
ATOM     17  C   UNL     1      -1.167  -0.221   1.007  0.00  0.00    +0.000 A 
ATOM     18  C   UNL     1       0.201   0.026   1.143  0.00  0.00    +0.000 A 
ENDBRANCH   1  16
TORSDOF 2
