MODEL 1
REMARK VINA RESULT:      -4.5      0.000      0.000
REMARK  Name = *****
REMARK  3 active torsions:
REMARK  status: ('A' for Active; 'I' for Inactive)
REMARK    1  A    between atoms: C_5  and  C_7
REMARK    2  A    between atoms: C_7  and  C_15
REMARK    3  A    between atoms: C_8  and  C_9
REMARK                            x       y       z     vdW  Elec       q    Type
REMARK                         _______ _______ _______ _____ _____    ______ ____
ROOT
ATOM      1  C   UNL     1     102.387 126.451  82.425  0.00  0.00    +0.000 C 
ATOM      2  C   UNL     1     103.037 126.706  81.273  0.00  0.00    +0.000 C 
ENDROOT
BRANCH   1   7
ATOM      3  C   UNL     1      98.738 127.381  82.594  0.00  0.00    +0.000 A 
ATOM      4  C   UNL     1      98.780 128.610  83.249  0.00  0.00    +0.000 A 
ATOM      5  C   UNL     1     100.004 129.149  83.644  0.00  0.00    +0.000 A 
ATOM      6  C   UNL     1     101.191 128.458  83.384  0.00  0.00    +0.000 A 
ATOM      7  C   UNL     1     101.163 127.219  82.720  0.00  0.00    +0.000 A 
ATOM      8  C   UNL     1      99.922 126.687  82.331  0.00  0.00    +0.000 A 
ATOM      9 CL   UNL     1     102.675 129.176  83.910  0.00  0.00    +0.000 Cl
ENDBRANCH   1   7
BRANCH   2  10
ATOM     10  C   UNL     1     104.250 126.013  80.834  0.00  0.00    +0.000 A 
ATOM     11  C   UNL     1     104.168 124.748  80.252  0.00  0.00    +0.000 A 
ATOM     12  C   UNL     1     105.344 124.135  79.854  0.00  0.00    +0.000 A 
ATOM     13  N   UNL     1     106.565 124.692  79.993  0.00  0.00    +0.000 NA
ATOM     14  C   UNL     1     106.617 125.912  80.567  0.00  0.00    +0.000 A 
ATOM     15  C   UNL     1     105.499 126.608  80.999  0.00  0.00    +0.000 A 
ENDBRANCH   2  10
BRANCH   1  16
ATOM     16  C   UNL     1     102.825 125.474  83.371  0.00  0.00    +0.000 C 
ATOM     17  N   UNL     1     103.163 124.669  84.135  0.00  0.00    +0.000 NA
ENDBRANCH   1  16
TORSDOF 3
ENDMDL
