REMARK  Name = *****
REMARK  3 active torsions:
REMARK  status: ('A' for Active; 'I' for Inactive)
REMARK    1  A    between atoms: C_2  and  C_3
REMARK    2  A    between atoms: C_7  and  C_8
REMARK    3  A    between atoms: C_9  and  C_10
REMARK                            x       y       z     vdW  Elec       q    Type
REMARK                         _______ _______ _______ _____ _____    ______ ____
ROOT
ATOM      1  C   UNL     1       4.030  -2.562  -0.064  0.00  0.00    +0.000 C 
ATOM      2  C   UNL     1       3.654  -3.702  -0.095  0.00  0.00    +0.000 C 
ENDROOT
BRANCH   2   3
ATOM      3  C   UNL     1       3.203  -5.059  -0.134  0.00  0.00    +0.000 A 
ATOM      4  C   UNL     1       4.060  -6.093   0.251  0.00  0.00    +0.000 A 
ATOM      5  C   UNL     1       3.619  -7.417   0.211  0.00  0.00    +0.000 A 
ATOM      6  C   UNL     1       2.322  -7.708  -0.213  0.00  0.00    +0.000 A 
ATOM      7  C   UNL     1       1.465  -6.677  -0.597  0.00  0.00    +0.000 A 
ATOM      8  C   UNL     1       1.905  -5.352  -0.558  0.00  0.00    +0.000 A 
ENDBRANCH   2   3
BRANCH   1  13
ATOM      9  C   UNL     1       3.636  -0.047  -0.015  0.00  0.00    +0.000 A 
ATOM     10  C   UNL     1       4.367   1.120   0.019  0.00  0.00    +0.000 A 
ATOM     11  S   UNL     1       6.054   0.827   0.034  0.00  0.00    +0.000 S 
ATOM     12  C   UNL     1       5.812  -0.868  -0.006  0.00  0.00    +0.000 A 
ATOM     13  C   UNL     1       4.475  -1.202  -0.029  0.00  0.00    +0.000 A 
BRANCH   9  15
ATOM     14  C   UNL     1       1.003  -0.052  -0.047  0.00  0.00    +0.000 C 
ATOM     15  C   UNL     1       2.204  -0.050  -0.033  0.00  0.00    +0.000 C 
ENDBRANCH   9  15
ENDBRANCH   1  13
TORSDOF 3
