MODEL 1
REMARK VINA RESULT:      -3.6      0.000      0.000
REMARK  Name = *****
REMARK  5 active torsions:
REMARK  status: ('A' for Active; 'I' for Inactive)
REMARK    1  A    between atoms: C_1  and  C_2
REMARK    2  A    between atoms: C_5  and  C_7
REMARK    3  A    between atoms: C_7  and  C_8
REMARK    4  A    between atoms: C_8  and  C_9
REMARK    5  A    between atoms: C_9  and  C_10
REMARK                            x       y       z     vdW  Elec       q    Type
REMARK                         _______ _______ _______ _____ _____    ______ ____
ROOT
ATOM      1  C   UNL     1      87.614  63.378  86.862  0.00  0.00    +0.000 C 
ENDROOT
BRANCH   1   2
ATOM      2  C   UNL     1      87.774  64.849  87.256  0.00  0.00    +0.000 C 
BRANCH   2   7
ATOM      3  C   UNL     1      86.298  64.825  92.100  0.00  0.00    +0.000 C 
ATOM      4  C   UNL     1      87.136  64.608  90.892  0.00  0.00    +0.000 C 
ATOM      5  C   UNL     1      88.239  63.856  90.796  0.00  0.00    +0.000 C 
ATOM      6  C   UNL     1      88.782  63.844  89.405  0.00  0.00    +0.000 C 
ATOM      7  C   UNL     1      88.057  65.029  88.751  0.00  0.00    +0.000 C 
ATOM      8  C   UNL     1      86.772  65.221  89.575  0.00  0.00    +0.000 C 
ENDBRANCH   2   7
ENDBRANCH   1   2
BRANCH   1   9
ATOM      9  C   UNL     1      86.140  63.022  86.649  0.00  0.00    +0.000 C 
BRANCH   9  10
ATOM     10  C   UNL     1      85.505  62.500  87.914  0.00  0.00    +0.000 A 
ATOM     11  C   UNL     1      84.219  62.912  88.285  0.00  0.00    +0.000 A 
ATOM     12  C   UNL     1      83.639  62.442  89.465  0.00  0.00    +0.000 A 
ATOM     13  C   UNL     1      84.341  61.562  90.285  0.00  0.00    +0.000 A 
ATOM     14  C   UNL     1      85.624  61.151  89.928  0.00  0.00    +0.000 A 
ATOM     15  C   UNL     1      86.205  61.620  88.750  0.00  0.00    +0.000 A 
ENDBRANCH   9  10
ENDBRANCH   1   9
TORSDOF 4
ENDMDL
