REMARK  Name = *****
REMARK  3 active torsions:
REMARK  status: ('A' for Active; 'I' for Inactive)
REMARK    1  A    between atoms: C_1  and  C_2
REMARK    2  A    between atoms: C_2  and  C_10
REMARK    3  A    between atoms: N_3  and  C_4
REMARK                            x       y       z     vdW  Elec       q    Type
REMARK                         _______ _______ _______ _____ _____    ______ ____
ROOT
ATOM      1  C   UNL     1       1.183   0.721   0.480  0.00  0.00    +0.000 C 
ATOM      2  C   UNL     1       2.522   0.093   0.148  0.00  0.00    +0.000 C 
ATOM      3  N   UNL     1       3.079  -0.858   0.845  0.00  0.00    +0.000 NA
ENDROOT
BRANCH   3   4
ATOM      4  C   UNL     1       2.428  -1.364   1.977  0.00  0.00    +0.000 A 
ATOM      5  C   UNL     1       1.521  -2.420   1.859  0.00  0.00    +0.000 A 
ATOM      6  C   UNL     1       0.888  -2.938   2.991  0.00  0.00    +0.000 A 
ATOM      7  C   UNL     1       1.174  -2.412   4.250  0.00  0.00    +0.000 A 
ATOM      8  C   UNL     1       2.096  -1.374   4.378  0.00  0.00    +0.000 A 
ATOM      9  C   UNL     1       2.726  -0.857   3.244  0.00  0.00    +0.000 A 
ENDBRANCH   3   4
BRANCH   2  10
ATOM     10  C   UNL     1       3.228   0.608  -1.067  0.00  0.00    +0.000 C 
ATOM     11  C   UNL     1       4.527   0.933  -0.957  0.00  0.00    +0.000 C 
ATOM     12  C   UNL     1       5.345   1.434  -2.111  0.00  0.00    +0.000 C 
ATOM     13  C   UNL     1       4.504   1.806  -3.335  0.00  0.00    +0.000 C 
ATOM     14  C   UNL     1       3.390   0.790  -3.576  0.00  0.00    +0.000 C 
ATOM     15  C   UNL     1       2.466   0.686  -2.358  0.00  0.00    +0.000 C 
ENDBRANCH   2  10
TORSDOF 2
