MODEL 1
REMARK VINA RESULT:      -4.4      0.000      0.000
REMARK  Name = *****
REMARK  4 active torsions:
REMARK  status: ('A' for Active; 'I' for Inactive)
REMARK    1  A    between atoms: C_1  and  C_2
REMARK    2  A    between atoms: C_4  and  S_8
REMARK    3  A    between atoms: S_8  and  C_9
REMARK    4  A    between atoms: C_10  and  C_11
REMARK                            x       y       z     vdW  Elec       q    Type
REMARK                         _______ _______ _______ _____ _____    ______ ____
ROOT
ATOM      1  S   UNL     1      88.910  64.282  86.658  0.00  0.00    +0.000 S 
ENDROOT
BRANCH   1   5
ATOM      2  C   UNL     1      85.406  66.199  90.112  0.00  0.00    +0.000 C 
ATOM      3  C   UNL     1      86.587  65.312  89.847  0.00  0.00    +0.000 A 
ATOM      4  C   UNL     1      87.121  65.213  88.555  0.00  0.00    +0.000 A 
ATOM      5  C   UNL     1      88.241  64.409  88.305  0.00  0.00    +0.000 A 
ATOM      6  C   UNL     1      88.843  63.720  89.362  0.00  0.00    +0.000 A 
ATOM      7  C   UNL     1      88.328  63.827  90.653  0.00  0.00    +0.000 A 
ATOM      8  C   UNL     1      87.207  64.622  90.895  0.00  0.00    +0.000 A 
ENDBRANCH   1   5
BRANCH   1   9
ATOM      9  C   UNL     1      88.796  65.949  86.189  0.00  0.00    +0.000 C 
ATOM     10  C   UNL     1      89.774  66.818  86.486  0.00  0.00    +0.000 C 
BRANCH  10  11
ATOM     11  C   UNL     1      89.747  68.240  86.117  0.00  0.00    +0.000 A 
ATOM     12  C   UNL     1      89.567  69.259  87.063  0.00  0.00    +0.000 A 
ATOM     13  C   UNL     1      89.580  70.601  86.673  0.00  0.00    +0.000 A 
ATOM     14  C   UNL     1      89.782  70.940  85.338  0.00  0.00    +0.000 A 
ATOM     15  C   UNL     1      89.980  69.937  84.391  0.00  0.00    +0.000 A 
ATOM     16  C   UNL     1      89.967  68.595  84.779  0.00  0.00    +0.000 A 
ENDBRANCH  10  11
ENDBRANCH   1   9
TORSDOF 3
ENDMDL
