MODEL 1
REMARK VINA RESULT:      -4.9      0.000      0.000
REMARK  Name = *****
REMARK  5 active torsions:
REMARK  status: ('A' for Active; 'I' for Inactive)
REMARK    1  A    between atoms: C_1  and  C_2
REMARK    2  A    between atoms: C_4  and  C_8
REMARK    3  A    between atoms: C_8  and  C_9
REMARK    4  A    between atoms: C_8  and  C_10
REMARK    5  A    between atoms: C_10  and  C_11
REMARK                            x       y       z     vdW  Elec       q    Type
REMARK                         _______ _______ _______ _____ _____    ______ ____
ROOT
ATOM      1  C   UNL     1      88.764  70.258  86.272  0.00  0.00    +0.000 C 
ATOM      2  C   UNL     1      89.977  70.876  85.549  0.00  0.00    +0.000 C 
ENDROOT
BRANCH   1   6
ATOM      3  C   UNL     1      91.208  65.880  85.479  0.00  0.00    +0.000 C 
ATOM      4  C   UNL     1      90.049  66.628  86.070  0.00  0.00    +0.000 A 
ATOM      5  C   UNL     1      89.927  68.017  85.904  0.00  0.00    +0.000 A 
ATOM      6  C   UNL     1      88.851  68.740  86.454  0.00  0.00    +0.000 A 
ATOM      7  C   UNL     1      87.921  68.024  87.226  0.00  0.00    +0.000 A 
ATOM      8  C   UNL     1      88.037  66.642  87.404  0.00  0.00    +0.000 A 
ATOM      9  C   UNL     1      89.095  65.946  86.827  0.00  0.00    +0.000 A 
ENDBRANCH   1   6
BRANCH   1  10
ATOM     10  C   UNL     1      87.449  70.835  85.675  0.00  0.00    +0.000 C 
BRANCH  10  11
ATOM     11  C   UNL     1      86.372  71.402  86.581  0.00  0.00    +0.000 A 
ATOM     12  C   UNL     1      85.190  71.993  86.119  0.00  0.00    +0.000 A 
ATOM     13  C   UNL     1      84.226  72.468  87.014  0.00  0.00    +0.000 A 
ATOM     14  C   UNL     1      84.427  72.351  88.387  0.00  0.00    +0.000 A 
ATOM     15  C   UNL     1      85.588  71.755  88.866  0.00  0.00    +0.000 A 
ATOM     16  C   UNL     1      86.549  71.280  87.970  0.00  0.00    +0.000 A 
ENDBRANCH  10  11
ENDBRANCH   1  10
TORSDOF 3
ENDMDL
