MODEL 1
REMARK VINA RESULT:      -3.6      0.000      0.000
REMARK  Name = *****
REMARK  4 active torsions:
REMARK  status: ('A' for Active; 'I' for Inactive)
REMARK    1  A    between atoms: C_2  and  C_3
REMARK    2  A    between atoms: C_2  and  S_9
REMARK    3  A    between atoms: S_9  and  C_10
REMARK    4  A    between atoms: C_10  and  C_11
REMARK                            x       y       z     vdW  Elec       q    Type
REMARK                         _______ _______ _______ _____ _____    ______ ____
ROOT
ATOM      1  C   UNL     1      88.713  72.415  83.897  0.00  0.00    +0.000 C 
ATOM      2  C   UNL     1      89.083  71.289  84.524  0.00  0.00    +0.000 C 
ENDROOT
BRANCH   2   3
ATOM      3  C   UNL     1      88.575  70.952  85.849  0.00  0.00    +0.000 C 
ATOM      4  C   UNL     1      89.401  70.617  86.859  0.00  0.00    +0.000 C 
ATOM      5  C   UNL     1      88.931  70.275  88.243  0.00  0.00    +0.000 C 
ATOM      6  C   UNL     1      87.419  70.071  88.342  0.00  0.00    +0.000 C 
ATOM      7  C   UNL     1      86.669  71.113  87.519  0.00  0.00    +0.000 C 
ATOM      8  C   UNL     1      87.076  71.043  86.046  0.00  0.00    +0.000 C 
ENDBRANCH   2   3
BRANCH   2   9
ATOM      9  S   UNL     1      90.157  70.163  83.747  0.00  0.00    +0.000 S 
BRANCH   9  10
ATOM     10  C   UNL     1      89.010  68.779  83.469  0.00  0.00    +0.000 C 
BRANCH  10  11
ATOM     11  C   UNL     1      88.906  67.887  84.681  0.00  0.00    +0.000 A 
ATOM     12  C   UNL     1      90.061  67.391  85.304  0.00  0.00    +0.000 A 
ATOM     13  C   UNL     1      89.964  66.563  86.423  0.00  0.00    +0.000 A 
ATOM     14  C   UNL     1      88.713  66.222  86.932  0.00  0.00    +0.000 A 
ATOM     15  C   UNL     1      87.558  66.703  86.319  0.00  0.00    +0.000 A 
ATOM     16  C   UNL     1      87.652  67.529  85.197  0.00  0.00    +0.000 A 
ENDBRANCH  10  11
ENDBRANCH   9  10
ENDBRANCH   2   9
TORSDOF 4
ENDMDL
