REMARK  Name = *****
REMARK  6 active torsions:
REMARK  status: ('A' for Active; 'I' for Inactive)
REMARK    1  A    between atoms: C_1  and  C_2
REMARK    2  A    between atoms: C_4  and  C_18
REMARK    3  A    between atoms: C_6  and  C_8
REMARK    4  A    between atoms: C_8  and  O_10
REMARK    5  A    between atoms: O_10  and  C_11
REMARK    6  A    between atoms: C_11  and  C_12
REMARK                            x       y       z     vdW  Elec       q    Type
REMARK                         _______ _______ _______ _____ _____    ______ ____
ROOT
ATOM      1  C   UNL     1      -2.528   1.232   0.032  0.00  0.00    +0.000 C 
ATOM      2  O   UNL     1      -3.606   0.701   0.251  0.00  0.00    +0.000 OA
ENDROOT
BRANCH   1   8
ATOM      3  C   UNL     1       2.518   1.111  -0.132  0.00  0.00    +0.000 C 
ATOM      4  C   UNL     1       1.194   0.407  -0.064  0.00  0.00    +0.000 A 
ATOM      5  C   UNL     1       1.138  -0.988   0.053  0.00  0.00    +0.000 A 
ATOM      6  C   UNL     1      -0.090  -1.652   0.164  0.00  0.00    +0.000 A 
ATOM      7  C   UNL     1      -1.275  -0.905   0.140  0.00  0.00    +0.000 A 
ATOM      8  C   UNL     1      -1.236   0.492   0.034  0.00  0.00    +0.000 A 
ATOM      9  C   UNL     1       0.002   1.144  -0.057  0.00  0.00    +0.000 A 
ATOM     10  C   UNL     1      -0.141  -3.149   0.248  0.00  0.00    +0.000 C 
ENDBRANCH   1   8
BRANCH   1  11
ATOM     11  O   UNL     1      -2.324   2.538  -0.258  0.00  0.00    +0.000 OA
BRANCH  11  12
ATOM     12  C   UNL     1      -3.489   3.370  -0.253  0.00  0.00    +0.000 C 
BRANCH  12  13
ATOM     13  C   UNL     1      -3.530   4.153   1.034  0.00  0.00    +0.000 A 
ATOM     14  C   UNL     1      -2.856   5.376   1.148  0.00  0.00    +0.000 A 
ATOM     15  C   UNL     1      -2.878   6.087   2.349  0.00  0.00    +0.000 A 
ATOM     16  C   UNL     1      -3.566   5.576   3.449  0.00  0.00    +0.000 A 
ATOM     17  C   UNL     1      -4.228   4.354   3.351  0.00  0.00    +0.000 A 
ATOM     18  C   UNL     1      -4.207   3.643   2.150  0.00  0.00    +0.000 A 
ENDBRANCH  12  13
ENDBRANCH  11  12
ENDBRANCH   1  11
TORSDOF 4
