MODEL 1
REMARK VINA RESULT:      -4.4      0.000      0.000
REMARK  Name = *****
REMARK  4 active torsions:
REMARK  status: ('A' for Active; 'I' for Inactive)
REMARK    1  A    between atoms: C_1  and  C_2
REMARK    2  A    between atoms: C_5  and  N_8
REMARK    3  A    between atoms: N_8  and  S_9
REMARK    4  A    between atoms: S_9  and  N_12
REMARK                            x       y       z     vdW  Elec       q    Type
REMARK                         _______ _______ _______ _____ _____    ______ ____
ROOT
ATOM      1  N   UNL     1      87.578  62.549  87.172  0.00  0.00    +0.000 N 
ATOM      2  H   UNL     1      87.630  61.581  87.001  0.00  0.00    +0.000 HD
ENDROOT
BRANCH   1   7
ATOM      3  C   UNL     1      87.314  64.553  92.551  0.00  0.00    +0.000 C 
ATOM      4  C   UNL     1      87.357  64.039  91.140  0.00  0.00    +0.000 A 
ATOM      5  C   UNL     1      86.214  63.542  90.495  0.00  0.00    +0.000 A 
ATOM      6  C   UNL     1      86.284  63.064  89.183  0.00  0.00    +0.000 A 
ATOM      7  C   UNL     1      87.496  63.082  88.500  0.00  0.00    +0.000 A 
ATOM      8  C   UNL     1      88.645  63.557  89.131  0.00  0.00    +0.000 A 
ATOM      9  C   UNL     1      88.575  64.036  90.442  0.00  0.00    +0.000 A 
ATOM     10 CL   UNL     1      84.679  63.495  91.288  0.00  0.00    +0.000 Cl
ENDBRANCH   1   7
BRANCH   1  11
ATOM     11  S   UNL     1      87.582  63.683  85.916  0.00  0.00    +0.000 S 
ATOM     12  O   UNL     1      87.129  62.994  84.731  0.00  0.00    +0.000 OA
ATOM     13  O   UNL     1      86.915  64.877  86.379  0.00  0.00    +0.000 OA
BRANCH  11  14
ATOM     14  N   UNL     1      89.241  63.992  85.747  0.00  0.00    +0.000 NA
ATOM     15  C   UNL     1      89.956  63.024  84.870  0.00  0.00    +0.000 C 
ATOM     16  C   UNL     1      91.463  63.230  85.008  0.00  0.00    +0.000 C 
ATOM     17  C   UNL     1      91.856  64.665  84.674  0.00  0.00    +0.000 C 
ATOM     18  C   UNL     1      91.042  65.652  85.505  0.00  0.00    +0.000 C 
ATOM     19  C   UNL     1      89.543  65.398  85.364  0.00  0.00    +0.000 C 
ENDBRANCH  11  14
ENDBRANCH   1  11
TORSDOF 3
ENDMDL
