REMARK  Name = *****
REMARK  4 active torsions:
REMARK  status: ('A' for Active; 'I' for Inactive)
REMARK    1  A    between atoms: C_1  and  C_2
REMARK    2  A    between atoms: C_4  and  C_8
REMARK    3  A    between atoms: C_8  and  S_10
REMARK    4  A    between atoms: S_10  and  C_11
REMARK                            x       y       z     vdW  Elec       q    Type
REMARK                         _______ _______ _______ _____ _____    ______ ____
ROOT
ATOM      1  C   UNL     1      -1.805   1.386  -1.761  0.00  0.00    +0.000 C 
ATOM      2  O   UNL     1      -2.356   0.450  -2.328  0.00  0.00    +0.000 OA
ENDROOT
BRANCH   1   6
ATOM      3  C   UNL     1       2.445  -0.452  -0.559  0.00  0.00    +0.000 C 
ATOM      4  C   UNL     1       0.984  -0.197  -0.320  0.00  0.00    +0.000 C 
ATOM      5  C   UNL     1       0.394   0.957  -0.679  0.00  0.00    +0.000 C 
ATOM      6  C   UNL     1      -1.059   1.284  -0.425  0.00  0.00    +0.000 C 
ATOM      7  C   UNL     1      -1.744   0.273   0.510  0.00  0.00    +0.000 C 
ATOM      8  C   UNL     1      -1.295  -1.164   0.251  0.00  0.00    +0.000 C 
ATOM      9  C   UNL     1       0.223  -1.312   0.353  0.00  0.00    +0.000 C 
ENDBRANCH   1   6
BRANCH   1  10
ATOM     10  S   UNL     1      -1.838   3.011  -2.464  0.00  0.00    +0.000 S 
BRANCH  10  11
ATOM     11  C   UNL     1      -0.607   2.832  -3.741  0.00  0.00    +0.000 A 
ATOM     12  C   UNL     1      -0.732   1.867  -4.746  0.00  0.00    +0.000 A 
ATOM     13  C   UNL     1       0.245   1.751  -5.738  0.00  0.00    +0.000 A 
ATOM     14  C   UNL     1       1.348   2.603  -5.735  0.00  0.00    +0.000 A 
ATOM     15  C   UNL     1       1.473   3.575  -4.744  0.00  0.00    +0.000 A 
ATOM     16  C   UNL     1       0.496   3.692  -3.752  0.00  0.00    +0.000 A 
ENDBRANCH  10  11
ENDBRANCH   1  10
TORSDOF 3
