MODEL 1
REMARK VINA RESULT:      -4.8      0.000      0.000
REMARK  Name = *****
REMARK  3 active torsions:
REMARK  status: ('A' for Active; 'I' for Inactive)
REMARK    1  A    between atoms: C_2  and  C_3
REMARK    2  A    between atoms: C_4  and  C_12
REMARK    3  A    between atoms: C_5  and  C_6
REMARK                            x       y       z     vdW  Elec       q    Type
REMARK                         _______ _______ _______ _____ _____    ______ ____
ROOT
ATOM      1  C   UNL     1     103.769 127.864  81.809  0.00  0.00    +0.000 C 
ATOM      2  C   UNL     1     102.776 126.926  82.467  0.00  0.00    +0.000 C 
ATOM      3  C   UNL     1     103.240 126.673  81.040  0.00  0.00    +0.000 C 
ENDROOT
BRANCH   3   4
ATOM      4  C   UNL     1     104.096 125.470  80.701  0.00  0.00    +0.000 A 
ATOM      5  C   UNL     1     103.957 124.242  81.369  0.00  0.00    +0.000 A 
ATOM      6  C   UNL     1     104.737 123.133  81.027  0.00  0.00    +0.000 A 
ATOM      7  C   UNL     1     105.670 123.227  79.999  0.00  0.00    +0.000 A 
ATOM      8  C   UNL     1     105.817 124.427  79.309  0.00  0.00    +0.000 A 
ATOM      9  C   UNL     1     105.033 125.531  79.655  0.00  0.00    +0.000 A 
ENDBRANCH   3   4
BRANCH   2  10
ATOM     10  C   UNL     1     101.357 127.383  82.721  0.00  0.00    +0.000 A 
ATOM     11  C   UNL     1     100.258 126.600  82.330  0.00  0.00    +0.000 A 
ATOM     12  C   UNL     1      98.946 127.011  82.577  0.00  0.00    +0.000 A 
ATOM     13  C   UNL     1      98.706 128.216  83.232  0.00  0.00    +0.000 A 
ATOM     14  C   UNL     1      99.777 129.005  83.639  0.00  0.00    +0.000 A 
ATOM     15  C   UNL     1     101.087 128.588  83.389  0.00  0.00    +0.000 A 
ENDBRANCH   2  10
BRANCH   1  17
ATOM     16  C   UNL     1     105.523 127.392  83.525  0.00  0.00    +0.000 C 
ATOM     17  C   UNL     1     105.133 127.907  82.351  0.00  0.00    +0.000 C 
ENDBRANCH   1  17
TORSDOF 3
ENDMDL
