MODEL 1
REMARK VINA RESULT:      -3.9      0.000      0.000
REMARK  Name = *****
REMARK  3 active torsions:
REMARK  status: ('A' for Active; 'I' for Inactive)
REMARK    1  A    between atoms: S_4  and  C_6
REMARK    2  A    between atoms: C_6  and  C_7
REMARK    3  A    between atoms: C_7  and  C_8
REMARK                            x       y       z     vdW  Elec       q    Type
REMARK                         _______ _______ _______ _____ _____    ______ ____
ROOT
ATOM      1  C   UNL     1      88.071  70.455  87.581  0.00  0.00    +0.000 C 
ATOM      2 CL   UNL     1      88.563  70.796  89.271  0.00  0.00    +0.000 Cl
ENDROOT
BRANCH   1   3
ATOM      3  C   UNL     1      86.761  71.164  87.293  0.00  0.00    +0.000 A 
ATOM      4  C   UNL     1      85.877  71.534  88.321  0.00  0.00    +0.000 A 
ATOM      5  C   UNL     1      84.672  72.175  88.030  0.00  0.00    +0.000 A 
ATOM      6  C   UNL     1      84.333  72.459  86.709  0.00  0.00    +0.000 A 
ATOM      7  C   UNL     1      85.200  72.104  85.679  0.00  0.00    +0.000 A 
ATOM      8  C   UNL     1      86.406  71.461  85.967  0.00  0.00    +0.000 A 
ENDBRANCH   1   3
BRANCH   1   9
ATOM      9  C   UNL     1      87.974  68.948  87.319  0.00  0.00    +0.000 C 
BRANCH   9  13
ATOM     10  C   UNL     1      89.664  69.686  83.830  0.00  0.00    +0.000 C 
ATOM     11  C   UNL     1      88.200  69.281  83.638  0.00  0.00    +0.000 C 
ATOM     12  C   UNL     1      87.956  68.071  84.537  0.00  0.00    +0.000 C 
ATOM     13  S   UNL     1      88.960  68.366  85.968  0.00  0.00    +0.000 S 
ATOM     14  C   UNL     1      89.905  69.725  85.336  0.00  0.00    +0.000 C 
ATOM     15 CL   UNL     1      90.157  66.796  86.410  0.00  0.00    +0.000 Cl
ENDBRANCH   9  13
ENDBRANCH   1   9
TORSDOF 3
ENDMDL
