REMARK  Name = *****
REMARK  6 active torsions:
REMARK  status: ('A' for Active; 'I' for Inactive)
REMARK    1  A    between atoms: C_1  and  C_2
REMARK    2  A    between atoms: C_2  and  C_3
REMARK    3  A    between atoms: C_2  and  C_11
REMARK    4  A    between atoms: C_2  and  O_17
REMARK    5  A    between atoms: C_3  and  C_4
REMARK    6  A    between atoms: O_17  and  O_18
REMARK                            x       y       z     vdW  Elec       q    Type
REMARK                         _______ _______ _______ _____ _____    ______ ____
ROOT
ATOM      1  C   UNL     1       1.041   0.141  -0.092  0.00  0.00    +0.000 C 
ATOM      2  C   UNL     1       2.569  -0.020   0.040  0.00  0.00    +0.000 C 
ENDROOT
BRANCH   2   3
ATOM      3  C   UNL     1       3.058  -1.433  -0.331  0.00  0.00    +0.000 A 
ATOM      4  C   UNL     1       4.379  -1.624  -0.785  0.00  0.00    +0.000 A 
ATOM      5  C   UNL     1       4.863  -2.895  -1.104  0.00  0.00    +0.000 A 
ATOM      6  C   UNL     1       4.041  -4.008  -0.964  0.00  0.00    +0.000 A 
ATOM      7  C   UNL     1       2.737  -3.849  -0.505  0.00  0.00    +0.000 A 
ATOM      8  C   UNL     1       2.251  -2.576  -0.190  0.00  0.00    +0.000 A 
ENDBRANCH   2   3
BRANCH   2   9
ATOM      9  C   UNL     1       3.088   0.379   1.455  0.00  0.00    +0.000 C 
BRANCH   9  10
ATOM     10  C   UNL     1       2.584  -0.446   2.622  0.00  0.00    +0.000 A 
ATOM     11  C   UNL     1       3.278  -1.594   3.035  0.00  0.00    +0.000 A 
ATOM     12  C   UNL     1       2.807  -2.360   4.101  0.00  0.00    +0.000 A 
ATOM     13  C   UNL     1       1.645  -1.977   4.759  0.00  0.00    +0.000 A 
ATOM     14  C   UNL     1       0.947  -0.840   4.372  0.00  0.00    +0.000 A 
ATOM     15  C   UNL     1       1.416  -0.072   3.306  0.00  0.00    +0.000 A 
ATOM     16  F   UNL     1       1.191  -2.715   5.781  0.00  0.00    +0.000 F 
ENDBRANCH   9  10
ENDBRANCH   2   9
BRANCH   2  17
ATOM     17  O   UNL     1       3.177   0.862  -0.951  0.00  0.00    +0.000 OA
BRANCH  17  18
ATOM     18  O   UNL     1       2.803   2.238  -0.645  0.00  0.00    +0.000 OA
ATOM     19  H   UNL     1       3.201   2.834  -1.299  0.00  0.00    +0.000 HD
ENDBRANCH  17  18
ENDBRANCH   2  17
TORSDOF 5
