MODEL 1
REMARK VINA RESULT:      -4.8      0.000      0.000
REMARK  Name = *****
REMARK  2 active torsions:
REMARK  status: ('A' for Active; 'I' for Inactive)
REMARK    1  A    between atoms: C_4  and  N_7
REMARK    2  A    between atoms: C_8  and  C_9
REMARK                            x       y       z     vdW  Elec       q    Type
REMARK                         _______ _______ _______ _____ _____    ______ ____
ROOT
ATOM      1  C   UNL     1     103.565 124.829  82.082  0.00  0.00    +0.000 A 
ATOM      2  C   UNL     1     103.978 124.625  80.765  0.00  0.00    +0.000 A 
ATOM      3  C   UNL     1     104.817 123.561  80.441  0.00  0.00    +0.000 A 
ATOM      4  C   UNL     1     105.244 122.700  81.444  0.00  0.00    +0.000 A 
ATOM      5  C   UNL     1     104.846 122.882  82.761  0.00  0.00    +0.000 A 
ATOM      6  C   UNL     1     104.007 123.949  83.071  0.00  0.00    +0.000 A 
ATOM      7  F   UNL     1     103.632 124.113  84.348  0.00  0.00    +0.000 F 
ATOM      8  F   UNL     1     106.050 121.677  81.135  0.00  0.00    +0.000 F 
ATOM      9  F   UNL     1     103.585 125.433  79.771  0.00  0.00    +0.000 F 
ENDROOT
BRANCH   1  11
ATOM     10  N   UNL     1     101.412 125.945  82.225  0.00  0.00    +0.000 NA
ATOM     11  C   UNL     1     102.680 125.934  82.485  0.00  0.00    +0.000 C 
BRANCH  10  15
ATOM     12  C   UNL     1      99.290 129.299  83.601  0.00  0.00    +0.000 A 
ATOM     13  C   UNL     1      98.616 128.271  82.943  0.00  0.00    +0.000 A 
ATOM     14  C   UNL     1      99.322 127.155  82.487  0.00  0.00    +0.000 A 
ATOM     15  C   UNL     1     100.704 127.068  82.675  0.00  0.00    +0.000 A 
ATOM     16  C   UNL     1     101.369 128.094  83.349  0.00  0.00    +0.000 A 
ATOM     17  C   UNL     1     100.666 129.210  83.808  0.00  0.00    +0.000 A 
ENDBRANCH  10  15
ENDBRANCH   1  11
TORSDOF 2
ENDMDL
