MODEL 1
REMARK VINA RESULT:      -4.6      0.000      0.000
REMARK  Name = *****
REMARK  6 active torsions:
REMARK  status: ('A' for Active; 'I' for Inactive)
REMARK    1  A    between atoms: C_1  and  C_2
REMARK    2  A    between atoms: C_4  and  O_16
REMARK    3  A    between atoms: C_5  and  C_8
REMARK    4  A    between atoms: C_8  and  C_9
REMARK    5  A    between atoms: C_9  and  C_10
REMARK    6  A    between atoms: O_16  and  C_17
REMARK                            x       y       z     vdW  Elec       q    Type
REMARK                         _______ _______ _______ _____ _____    ______ ____
ROOT
ATOM      1  C   UNL     1      84.125  72.526  87.319  0.00  0.00    +0.000 C 
ATOM      2  C   UNL     1      85.453  71.829  87.344  0.00  0.00    +0.000 A 
ATOM      3  C   UNL     1      86.090  71.556  88.561  0.00  0.00    +0.000 A 
ATOM      4  C   UNL     1      87.345  70.935  88.593  0.00  0.00    +0.000 A 
ATOM      5  C   UNL     1      87.994  70.592  87.387  0.00  0.00    +0.000 A 
ATOM      6  C   UNL     1      87.348  70.873  86.174  0.00  0.00    +0.000 A 
ATOM      7  C   UNL     1      86.097  71.494  86.152  0.00  0.00    +0.000 A 
ENDROOT
BRANCH   4   8
ATOM      8  O   UNL     1      88.021  70.615  89.744  0.00  0.00    +0.000 OA
ATOM      9  C   UNL     1      88.489  71.686  90.553  0.00  0.00    +0.000 C 
ENDBRANCH   4   8
BRANCH   5  10
ATOM     10  C   UNL     1      89.343  69.891  87.441  0.00  0.00    +0.000 C 
BRANCH  10  11
ATOM     11  C   UNL     1      89.793  69.054  86.231  0.00  0.00    +0.000 C 
BRANCH  11  12
ATOM     12  C   UNL     1      89.604  67.551  86.281  0.00  0.00    +0.000 A 
ATOM     13  C   UNL     1      90.505  66.638  85.716  0.00  0.00    +0.000 A 
ATOM     14  C   UNL     1      90.285  65.261  85.818  0.00  0.00    +0.000 A 
ATOM     15  C   UNL     1      89.168  64.778  86.493  0.00  0.00    +0.000 A 
ATOM     16  C   UNL     1      88.268  65.670  87.069  0.00  0.00    +0.000 A 
ATOM     17  C   UNL     1      88.486  67.045  86.965  0.00  0.00    +0.000 A 
ENDBRANCH  11  12
ENDBRANCH  10  11
ENDBRANCH   5  10
TORSDOF 4
ENDMDL
