MODEL 1
REMARK VINA RESULT:      -4.7      0.000      0.000
REMARK  Name = *****
REMARK  5 active torsions:
REMARK  status: ('A' for Active; 'I' for Inactive)
REMARK    1  A    between atoms: C_1  and  C_2
REMARK    2  A    between atoms: C_3  and  C_10
REMARK    3  A    between atoms: C_6  and  O_8
REMARK    4  A    between atoms: O_8  and  C_9
REMARK    5  A    between atoms: C_11  and  C_12
REMARK                            x       y       z     vdW  Elec       q    Type
REMARK                         _______ _______ _______ _____ _____    ______ ____
ROOT
ATOM      1  C   UNL     1     103.955 124.110  84.234  0.00  0.00    +0.000 C 
ATOM      2  C   UNL     1     104.305 123.964  82.779  0.00  0.00    +0.000 A 
ATOM      3  C   UNL     1     103.819 124.856  81.805  0.00  0.00    +0.000 A 
ATOM      4  C   UNL     1     104.185 124.671  80.464  0.00  0.00    +0.000 A 
ATOM      5  C   UNL     1     105.016 123.613  80.081  0.00  0.00    +0.000 A 
ATOM      6  C   UNL     1     105.498 122.725  81.039  0.00  0.00    +0.000 A 
ATOM      7  C   UNL     1     105.141 122.907  82.379  0.00  0.00    +0.000 A 
ENDROOT
BRANCH   6   8
ATOM      8  O   UNL     1     106.316 121.654  80.806  0.00  0.00    +0.000 OA
ATOM      9  C   UNL     1     107.682 121.937  80.529  0.00  0.00    +0.000 C 
ENDBRANCH   6   8
BRANCH   3  10
ATOM     10  C   UNL     1     102.969 125.998  82.170  0.00  0.00    +0.000 C 
ATOM     11  C   UNL     1     101.632 125.903  82.253  0.00  0.00    +0.000 C 
BRANCH  11  12
ATOM     12  C   UNL     1     100.760 127.019  82.635  0.00  0.00    +0.000 A 
ATOM     13  C   UNL     1      99.373 126.986  82.434  0.00  0.00    +0.000 A 
ATOM     14  C   UNL     1      98.570 128.055  82.839  0.00  0.00    +0.000 A 
ATOM     15  C   UNL     1      99.144 129.164  83.457  0.00  0.00    +0.000 A 
ATOM     16  C   UNL     1     100.519 129.203  83.677  0.00  0.00    +0.000 A 
ATOM     17  C   UNL     1     101.321 128.132  83.273  0.00  0.00    +0.000 A 
ENDBRANCH  11  12
ENDBRANCH   3  10
TORSDOF 3
ENDMDL
