REMARK  Name = *****
REMARK  4 active torsions:
REMARK  status: ('A' for Active; 'I' for Inactive)
REMARK    1  A    between atoms: C_1  and  O_2
REMARK    2  A    between atoms: O_2  and  C_3
REMARK    3  A    between atoms: C_6  and  C_11
REMARK    4  A    between atoms: C_12  and  C_13
REMARK                            x       y       z     vdW  Elec       q    Type
REMARK                         _______ _______ _______ _____ _____    ______ ____
ROOT
ATOM      1  C   UNL     1       3.059  -1.283  -0.382  0.00  0.00    +0.000 A 
ATOM      2  C   UNL     1       4.385  -1.295   0.058  0.00  0.00    +0.000 A 
ATOM      3  C   UNL     1       5.149  -2.465   0.044  0.00  0.00    +0.000 A 
ATOM      4  C   UNL     1       4.609  -3.676  -0.399  0.00  0.00    +0.000 A 
ATOM      5  C   UNL     1       3.284  -3.652  -0.855  0.00  0.00    +0.000 A 
ATOM      6  C   UNL     1       2.520  -2.482  -0.843  0.00  0.00    +0.000 A 
ATOM      7  F   UNL     1       1.258  -2.552  -1.291  0.00  0.00    +0.000 F 
ATOM      8  F   UNL     1       2.717  -4.779  -1.316  0.00  0.00    +0.000 F 
ATOM      9  F   UNL     1       6.424  -2.393   0.455  0.00  0.00    +0.000 F 
ATOM     10  F   UNL     1       4.951  -0.160   0.499  0.00  0.00    +0.000 F 
ENDROOT
BRANCH   1  12
ATOM     11  C   UNL     1       1.082   0.003  -0.756  0.00  0.00    +0.000 C 
ATOM     12  O   UNL     1       2.432  -0.069  -0.314  0.00  0.00    +0.000 OA
ENDBRANCH   1  12
BRANCH   4  13
ATOM     13  C   UNL     1       5.361  -4.943  -0.466  0.00  0.00    +0.000 C 
ATOM     14  C   UNL     1       6.390  -5.278   0.330  0.00  0.00    +0.000 C 
BRANCH  14  15
ATOM     15  C   UNL     1       7.102  -6.563   0.251  0.00  0.00    +0.000 A 
ATOM     16  C   UNL     1       7.377  -7.195  -0.970  0.00  0.00    +0.000 A 
ATOM     17  C   UNL     1       8.083  -8.400  -1.003  0.00  0.00    +0.000 A 
ATOM     18  C   UNL     1       8.532  -8.980   0.181  0.00  0.00    +0.000 A 
ATOM     19  C   UNL     1       8.280  -8.353   1.399  0.00  0.00    +0.000 A 
ATOM     20  C   UNL     1       7.574  -7.148   1.433  0.00  0.00    +0.000 A 
ENDBRANCH  14  15
ENDBRANCH   4  13
TORSDOF 3
