REMARK  Name = *****
REMARK  3 active torsions:
REMARK  status: ('A' for Active; 'I' for Inactive)
REMARK    1  A    between atoms: C_1  and  C_2
REMARK    2  A    between atoms: C_5  and  C_7
REMARK    3  A    between atoms: C_8  and  C_9
REMARK                            x       y       z     vdW  Elec       q    Type
REMARK                         _______ _______ _______ _____ _____    ______ ____
ROOT
ATOM      1  C   UNL     1       5.806  -1.687   0.056  0.00  0.00    +0.000 C 
ATOM      2  C   UNL     1       6.778  -2.392   0.040  0.00  0.00    +0.000 C 
ENDROOT
BRANCH   1   7
ATOM      3  C   UNL     1       0.896   0.274   0.101  0.00  0.00    +0.000 C 
ATOM      4  C   UNL     1       2.376   0.105   0.095  0.00  0.00    +0.000 A 
ATOM      5  C   UNL     1       3.354   1.078   0.112  0.00  0.00    +0.000 A 
ATOM      6  C   UNL     1       4.667   0.522   0.099  0.00  0.00    +0.000 A 
ATOM      7  C   UNL     1       4.649  -0.855   0.074  0.00  0.00    +0.000 A 
ATOM      8  S   UNL     1       3.055  -1.467   0.066  0.00  0.00    +0.000 S 
ENDBRANCH   1   7
BRANCH   2   9
ATOM      9  C   UNL     1       7.931  -3.239   0.021  0.00  0.00    +0.000 A 
ATOM     10  C   UNL     1       9.208  -2.683  -0.085  0.00  0.00    +0.000 A 
ATOM     11  C   UNL     1      10.331  -3.512  -0.104  0.00  0.00    +0.000 A 
ATOM     12  C   UNL     1      10.179  -4.896  -0.018  0.00  0.00    +0.000 A 
ATOM     13  C   UNL     1       8.905  -5.453   0.088  0.00  0.00    +0.000 A 
ATOM     14  C   UNL     1       7.780  -4.625   0.107  0.00  0.00    +0.000 A 
ENDBRANCH   2   9
TORSDOF 2
