REMARK  Name = *****
REMARK  3 active torsions:
REMARK  status: ('A' for Active; 'I' for Inactive)
REMARK    1  A    between atoms: C_8  and  S_9
REMARK    2  A    between atoms: S_9  and  S_10
REMARK    3  A    between atoms: S_10  and  C_11
REMARK                            x       y       z     vdW  Elec       q    Type
REMARK                         _______ _______ _______ _____ _____    ______ ____
ROOT
ATOM      1  S   UNL     1      -4.461  -3.013  -1.274  0.00  0.00    +0.000 S 
ENDROOT
BRANCH   1   9
ATOM      2  C   UNL     1      -1.258  -1.512   1.288  0.00  0.00    +0.000 C 
ATOM      3  C   UNL     1      -2.696  -0.976   1.275  0.00  0.00    +0.000 C 
ATOM      4  C   UNL     1      -3.235  -2.416   1.228  0.00  0.00    +0.000 C 
ATOM      5  C   UNL     1      -1.793  -2.951   1.247  0.00  0.00    +0.000 C 
ATOM      6  C   UNL     1      -1.774  -2.918  -0.291  0.00  0.00    +0.000 C 
ATOM      7  C   UNL     1      -1.232  -1.478  -0.246  0.00  0.00    +0.000 C 
ATOM      8  C   UNL     1      -2.676  -0.944  -0.263  0.00  0.00    +0.000 C 
ATOM      9  C   UNL     1      -3.190  -2.369  -0.291  0.00  0.00    +0.000 C 
ENDBRANCH   1   9
BRANCH   1  10
ATOM     10  S   UNL     1      -4.009  -2.343  -3.159  0.00  0.00    +0.000 S 
BRANCH  10  11
ATOM     11  C   UNL     1      -5.195  -1.109  -3.457  0.00  0.00    +0.000 C 
ATOM     12  C   UNL     1      -5.555   0.038  -2.528  0.00  0.00    +0.000 C 
ATOM     13  C   UNL     1      -7.056  -0.210  -2.771  0.00  0.00    +0.000 C 
ATOM     14  C   UNL     1      -6.654  -1.429  -3.737  0.00  0.00    +0.000 C 
ATOM     15  C   UNL     1      -6.618  -0.458  -5.002  0.00  0.00    +0.000 C 
ATOM     16  C   UNL     1      -7.033   0.816  -3.988  0.00  0.00    +0.000 C 
ATOM     17  C   UNL     1      -5.483   1.039  -3.695  0.00  0.00    +0.000 C 
ATOM     18  C   UNL     1      -5.085  -0.182  -4.660  0.00  0.00    +0.000 C 
ENDBRANCH  10  11
ENDBRANCH   1  10
TORSDOF 3
