REMARK  Name = *****
REMARK  2 active torsions:
REMARK  status: ('A' for Active; 'I' for Inactive)
REMARK    1  A    between atoms: C_4  and  C_7
REMARK    2  A    between atoms: C_8  and  C_9
REMARK                            x       y       z     vdW  Elec       q    Type
REMARK                         _______ _______ _______ _____ _____    ______ ____
ROOT
ATOM      1  C   UNL     1      -2.801   0.516  -0.215  0.00  0.00    +0.000 C 
ATOM      2  C   UNL     1      -3.380   1.728  -0.260  0.00  0.00    +0.000 C 
ATOM      3  F   UNL     1      -3.578  -0.593  -0.247  0.00  0.00    +0.000 F 
ENDROOT
BRANCH   2   4
ATOM      4  C   UNL     1      -4.828   1.968  -0.360  0.00  0.00    +0.000 A 
ATOM      5  C   UNL     1      -5.768   1.205   0.346  0.00  0.00    +0.000 A 
ATOM      6  C   UNL     1      -7.133   1.491   0.253  0.00  0.00    +0.000 A 
ATOM      7  C   UNL     1      -7.566   2.551  -0.539  0.00  0.00    +0.000 A 
ATOM      8  C   UNL     1      -6.646   3.330  -1.234  0.00  0.00    +0.000 A 
ATOM      9  C   UNL     1      -5.280   3.042  -1.140  0.00  0.00    +0.000 A 
ATOM     10 CL   UNL     1      -9.246   2.905  -0.653  0.00  0.00    +0.000 Cl
ENDBRANCH   2   4
BRANCH   1  14
ATOM     11  C   UNL     1       1.402  -0.275   0.126  0.00  0.00    +0.000 A 
ATOM     12  C   UNL     1       0.463  -1.195   0.584  0.00  0.00    +0.000 A 
ATOM     13  C   UNL     1      -0.902  -0.919   0.465  0.00  0.00    +0.000 A 
ATOM     14  C   UNL     1      -1.348   0.284  -0.103  0.00  0.00    +0.000 A 
ATOM     15  C   UNL     1      -0.388   1.194  -0.573  0.00  0.00    +0.000 A 
ATOM     16  C   UNL     1       0.977   0.917  -0.455  0.00  0.00    +0.000 A 
ENDBRANCH   1  14
TORSDOF 2
