REMARK  Name = *****
REMARK  3 active torsions:
REMARK  status: ('A' for Active; 'I' for Inactive)
REMARK    1  A    between atoms: C_4  and  C_7
REMARK    2  A    between atoms: C_8  and  C_9
REMARK    3  A    between atoms: C_14  and  C_15
REMARK                            x       y       z     vdW  Elec       q    Type
REMARK                         _______ _______ _______ _____ _____    ______ ____
ROOT
ATOM      1  C   UNL     1      -0.773  -1.222   1.852  0.00  0.00    +0.000 C 
ATOM      2  C   UNL     1      -0.823  -1.260   3.052  0.00  0.00    +0.000 C 
ENDROOT
BRANCH   1   6
ATOM      3  C   UNL     1       0.763   1.308  -0.412  0.00  0.00    +0.000 C 
ATOM      4  C   UNL     1       1.503   0.096   0.145  0.00  0.00    +0.000 C 
ATOM      5  C   UNL     1       0.739  -1.202  -0.118  0.00  0.00    +0.000 C 
ATOM      6  C   UNL     1      -0.713  -1.154   0.377  0.00  0.00    +0.000 C 
ATOM      7  C   UNL     1      -1.438   0.094  -0.146  0.00  0.00    +0.000 C 
ATOM      8  C   UNL     1      -0.665   1.388   0.115  0.00  0.00    +0.000 C 
ENDBRANCH   1   6
BRANCH   2   9
ATOM      9  C   UNL     1      -0.880  -1.286   4.484  0.00  0.00    +0.000 A 
ATOM     10  C   UNL     1      -0.591  -2.486   5.144  0.00  0.00    +0.000 A 
ATOM     11  C   UNL     1      -0.633  -2.554   6.538  0.00  0.00    +0.000 A 
ATOM     12  C   UNL     1      -0.963  -1.422   7.281  0.00  0.00    +0.000 A 
ATOM     13  C   UNL     1      -1.252  -0.221   6.630  0.00  0.00    +0.000 A 
ATOM     14  C   UNL     1      -1.213  -0.146   5.230  0.00  0.00    +0.000 A 
BRANCH  14  15
ATOM     15  C   UNL     1      -1.516   1.106   4.597  0.00  0.00    +0.000 C 
ATOM     16  N   UNL     1      -1.767   2.132   4.114  0.00  0.00    +0.000 NA
ENDBRANCH  14  15
ENDBRANCH   2   9
TORSDOF 3
