MODEL 1
REMARK VINA RESULT:      -5.1      0.000      0.000
REMARK  Name = *****
REMARK  3 active torsions:
REMARK  status: ('A' for Active; 'I' for Inactive)
REMARK    1  A    between atoms: C_4  and  C_7
REMARK    2  A    between atoms: C_7  and  C_8
REMARK    3  A    between atoms: C_7  and  P_18
REMARK                            x       y       z     vdW  Elec       q    Type
REMARK                         _______ _______ _______ _____ _____    ______ ____
ROOT
ATOM      1  C   UNL     1      86.817  71.007  84.771  0.00  0.00    +0.000 C 
ENDROOT
BRANCH   1   2
ATOM      2  C   UNL     1      86.123  71.424  86.069  0.00  0.00    +0.000 A 
ATOM      3  C   UNL     1      84.859  72.067  86.023  0.00  0.00    +0.000 A 
ATOM      4  C   UNL     1      84.201  72.472  87.177  0.00  0.00    +0.000 A 
ATOM      5  C   UNL     1      84.788  72.252  88.416  0.00  0.00    +0.000 A 
ATOM      6  C   UNL     1      86.035  71.624  88.521  0.00  0.00    +0.000 A 
ATOM      7  C   UNL     1      86.591  71.429  89.796  0.00  0.00    +0.000 A 
ATOM      8  C   UNL     1      87.827  70.811  89.956  0.00  0.00    +0.000 A 
ATOM      9  C   UNL     1      88.521  70.375  88.839  0.00  0.00    +0.000 A 
ATOM     10  C   UNL     1      87.979  70.563  87.563  0.00  0.00    +0.000 A 
ATOM     11  C   UNL     1      86.726  71.194  87.354  0.00  0.00    +0.000 A 
ENDBRANCH   1   2
BRANCH   1  15
ATOM     12  C   UNL     1      89.197  74.053  82.749  0.00  0.00    +0.000 A 
ATOM     13  C   UNL     1      87.834  73.946  82.497  0.00  0.00    +0.000 A 
ATOM     14  C   UNL     1      87.075  72.958  83.132  0.00  0.00    +0.000 A 
ATOM     15  C   UNL     1      87.660  72.023  84.008  0.00  0.00    +0.000 A 
ATOM     16  C   UNL     1      89.036  72.192  84.282  0.00  0.00    +0.000 A 
ATOM     17  C   UNL     1      89.797  73.182  83.651  0.00  0.00    +0.000 A 
ENDBRANCH   1  15
BRANCH   1  18
ATOM     18  P   UNL     1      85.416  70.492  83.680  0.00  0.00    +0.000 P 
ATOM     19  H   UNL     1      84.379  71.391  83.811  0.00  0.00    +0.000 HD
ATOM     20  H   UNL     1      84.985  69.234  84.049  0.00  0.00    +0.000 HD
ENDBRANCH   1  18
TORSDOF 3
ENDMDL
