REMARK  Name = *****
REMARK  5 active torsions:
REMARK  status: ('A' for Active; 'I' for Inactive)
REMARK    1  A    between atoms: C_1  and  C_2
REMARK    2  A    between atoms: C_3  and  N_17
REMARK    3  A    between atoms: C_4  and  C_8
REMARK    4  A    between atoms: C_8  and  C_9
REMARK    5  A    between atoms: C_9  and  C_11
REMARK                            x       y       z     vdW  Elec       q    Type
REMARK                         _______ _______ _______ _____ _____    ______ ____
ROOT
ATOM      1  C   UNL     1       1.605   0.633   2.251  0.00  0.00    +0.000 C 
ATOM      2  C   UNL     1       2.606   0.332   1.173  0.00  0.00    +0.000 A 
ATOM      3  C   UNL     1       3.367  -0.849   1.184  0.00  0.00    +0.000 A 
ATOM      4  C   UNL     1       4.318  -1.129   0.185  0.00  0.00    +0.000 A 
ATOM      5  C   UNL     1       4.482  -0.201  -0.853  0.00  0.00    +0.000 A 
ATOM      6  C   UNL     1       3.734   0.976  -0.878  0.00  0.00    +0.000 A 
ATOM      7  C   UNL     1       2.806   1.244   0.130  0.00  0.00    +0.000 A 
ENDROOT
BRANCH   3   8
ATOM      8  N   UNL     1       3.178  -1.762   2.220  0.00  0.00    +0.000 NA
ATOM      9  C   UNL     1       3.032  -2.532   3.093  0.00  0.00    +0.000 C 
ENDBRANCH   3   8
BRANCH   4  10
ATOM     10  C   UNL     1       5.124  -2.411   0.179  0.00  0.00    +0.000 C 
BRANCH  10  11
ATOM     11  C   UNL     1       4.410  -3.547  -0.537  0.00  0.00    +0.000 C 
ATOM     12  O   UNL     1       3.809  -3.352  -1.596  0.00  0.00    +0.000 OA
BRANCH  11  13
ATOM     13  C   UNL     1       4.468  -4.943   0.004  0.00  0.00    +0.000 A 
ATOM     14  C   UNL     1       5.193  -5.304   1.146  0.00  0.00    +0.000 A 
ATOM     15  C   UNL     1       5.190  -6.630   1.594  0.00  0.00    +0.000 A 
ATOM     16  C   UNL     1       4.475  -7.606   0.904  0.00  0.00    +0.000 A 
ATOM     17  C   UNL     1       3.758  -7.261  -0.239  0.00  0.00    +0.000 A 
ATOM     18  C   UNL     1       3.754  -5.938  -0.685  0.00  0.00    +0.000 A 
ENDBRANCH  11  13
ENDBRANCH  10  11
ENDBRANCH   4  10
TORSDOF 4
