MODEL 1
REMARK VINA RESULT:      -4.7      0.000      0.000
REMARK  Name = *****
REMARK  2 active torsions:
REMARK  status: ('A' for Active; 'I' for Inactive)
REMARK    1  A    between atoms: C_5  and  C_8
REMARK    2  A    between atoms: C_9  and  C_10
REMARK                            x       y       z     vdW  Elec       q    Type
REMARK                         _______ _______ _______ _____ _____    ______ ____
ROOT
ATOM      1  C   UNL     1     102.258 126.267  81.921  0.00  0.00    +0.000 C 
ATOM      2  C   UNL     1     103.113 125.584  81.421  0.00  0.00    +0.000 C 
ENDROOT
BRANCH   1   7
ATOM      3  C   UNL     1      99.567 129.360  84.233  0.00  0.00    +0.000 C 
ATOM      4  C   UNL     1      98.807 128.892  82.996  0.00  0.00    +0.000 C 
ATOM      5  C   UNL     1      98.716 127.376  82.848  0.00  0.00    +0.000 C 
ATOM      6  C   UNL     1      99.967 126.686  82.381  0.00  0.00    +0.000 C 
ATOM      7  C   UNL     1     101.247 127.088  82.512  0.00  0.00    +0.000 C 
ATOM      8  C   UNL     1     101.707 128.303  83.289  0.00  0.00    +0.000 C 
ATOM      9  C   UNL     1     100.871 128.628  84.528  0.00  0.00    +0.000 C 
ENDBRANCH   1   7
BRANCH   2  10
ATOM     10  C   UNL     1     104.131 124.773  80.829  0.00  0.00    +0.000 A 
ATOM     11  C   UNL     1     104.372 123.486  81.316  0.00  0.00    +0.000 A 
ATOM     12  C   UNL     1     105.367 122.695  80.739  0.00  0.00    +0.000 A 
ATOM     13  C   UNL     1     106.123 123.191  79.677  0.00  0.00    +0.000 A 
ATOM     14  C   UNL     1     105.884 124.476  79.189  0.00  0.00    +0.000 A 
ATOM     15  C   UNL     1     104.889 125.268  79.765  0.00  0.00    +0.000 A 
ENDBRANCH   2  10
TORSDOF 2
ENDMDL
