MODEL 1
REMARK VINA RESULT:      -4.6      0.000      0.000
REMARK  Name = *****
REMARK  5 active torsions:
REMARK  status: ('A' for Active; 'I' for Inactive)
REMARK    1  A    between atoms: C_1  and  C_2
REMARK    2  A    between atoms: C_3  and  O_9
REMARK    3  A    between atoms: C_4  and  C_8
REMARK    4  A    between atoms: O_9  and  C_10
REMARK    5  A    between atoms: C_10  and  C_12
REMARK                            x       y       z     vdW  Elec       q    Type
REMARK                         _______ _______ _______ _____ _____    ______ ____
ROOT
ATOM      1  O   UNL     1     101.795 127.022  82.377  0.00  0.00    +0.000 OA
ENDROOT
BRANCH   1   4
ATOM      2  C   UNL     1     103.351 129.028  83.724  0.00  0.00    +0.000 C 
ATOM      3  C   UNL     1     101.852 128.997  83.771  0.00  0.00    +0.000 A 
ATOM      4  C   UNL     1     101.116 127.986  83.134  0.00  0.00    +0.000 A 
ATOM      5  C   UNL     1      99.712 127.959  83.159  0.00  0.00    +0.000 A 
ATOM      6  C   UNL     1      99.043 128.940  83.900  0.00  0.00    +0.000 A 
ATOM      7  C   UNL     1      99.759 129.934  84.569  0.00  0.00    +0.000 A 
ATOM      8  C   UNL     1     101.153 129.963  84.505  0.00  0.00    +0.000 A 
ATOM      9  C   UNL     1      98.935 126.885  82.456  0.00  0.00    +0.000 C 
ENDBRANCH   1   4
BRANCH   1  10
ATOM     10  C   UNL     1     102.172 125.911  83.106  0.00  0.00    +0.000 C 
ATOM     11  O   UNL     1     101.795 125.591  84.224  0.00  0.00    +0.000 OA
BRANCH  10  12
ATOM     12  C   UNL     1     103.156 125.111  82.326  0.00  0.00    +0.000 A 
ATOM     13  C   UNL     1     103.901 124.068  82.892  0.00  0.00    +0.000 A 
ATOM     14  C   UNL     1     104.809 123.362  82.102  0.00  0.00    +0.000 A 
ATOM     15  C   UNL     1     104.983 123.680  80.756  0.00  0.00    +0.000 A 
ATOM     16  C   UNL     1     104.244 124.718  80.189  0.00  0.00    +0.000 A 
ATOM     17  C   UNL     1     103.334 125.431  80.971  0.00  0.00    +0.000 A 
ATOM     18 CL   UNL     1     105.726 122.082  82.798  0.00  0.00    +0.000 Cl
ENDBRANCH  10  12
ENDBRANCH   1  10
TORSDOF 3
ENDMDL
