REMARK  Name = *****
REMARK  3 active torsions:
REMARK  status: ('A' for Active; 'I' for Inactive)
REMARK    1  A    between atoms: C_1  and  C_2
REMARK    2  A    between atoms: C_3  and  C_7
REMARK    3  A    between atoms: C_8  and  C_9
REMARK                            x       y       z     vdW  Elec       q    Type
REMARK                         _______ _______ _______ _____ _____    ______ ____
ROOT
ATOM      1  C   UNL     1       2.630   2.670  -0.076  0.00  0.00    +0.000 C 
ATOM      2  C   UNL     1       2.208   3.794  -0.115  0.00  0.00    +0.000 C 
ENDROOT
BRANCH   1   5
ATOM      3  C   UNL     1       0.867   0.140   0.045  0.00  0.00    +0.000 C 
ATOM      4  C   UNL     1       2.361   0.185   0.038  0.00  0.00    +0.000 A 
ATOM      5  C   UNL     1       3.133   1.335  -0.020  0.00  0.00    +0.000 A 
ATOM      6  S   UNL     1       4.809   0.996  -0.015  0.00  0.00    +0.000 S 
ATOM      7  C   UNL     1       4.535  -0.686   0.059  0.00  0.00    +0.000 A 
ATOM      8  C   UNL     1       3.192  -0.986   0.080  0.00  0.00    +0.000 A 
ENDBRANCH   1   5
BRANCH   2   9
ATOM      9  C   UNL     1       1.711   5.135  -0.153  0.00  0.00    +0.000 A 
ATOM     10  C   UNL     1       0.396   5.383  -0.554  0.00  0.00    +0.000 A 
ATOM     11  C   UNL     1      -0.088   6.693  -0.588  0.00  0.00    +0.000 A 
ATOM     12  C   UNL     1       0.741   7.753  -0.222  0.00  0.00    +0.000 A 
ATOM     13  C   UNL     1       2.055   7.507   0.178  0.00  0.00    +0.000 A 
ATOM     14  C   UNL     1       2.540   6.198   0.213  0.00  0.00    +0.000 A 
ENDBRANCH   2   9
TORSDOF 2
