REMARK  Name = *****
REMARK  4 active torsions:
REMARK  status: ('A' for Active; 'I' for Inactive)
REMARK    1  A    between atoms: C_4  and  O_7
REMARK    2  A    between atoms: O_7  and  P_8
REMARK    3  A    between atoms: P_8  and  O_9
REMARK    4  A    between atoms: O_9  and  C_10
REMARK                            x       y       z     vdW  Elec       q    Type
REMARK                         _______ _______ _______ _____ _____    ______ ____
ROOT
ATOM      1  P   UNL     1      -3.915  -1.052  -0.217  0.00  0.00    +0.000 P 
ATOM      2 CL   UNL     1      -5.621   0.123   0.129  0.00  0.00    +0.000 Cl
ENDROOT
BRANCH   1   3
ATOM      3  O   UNL     1      -2.811   0.120  -0.354  0.00  0.00    +0.000 OA
BRANCH   3   7
ATOM      4  C   UNL     1      -1.320   2.022  -3.747  0.00  0.00    +0.000 A 
ATOM      5  C   UNL     1      -2.489   1.272  -3.867  0.00  0.00    +0.000 A 
ATOM      6  C   UNL     1      -3.024   0.617  -2.754  0.00  0.00    +0.000 A 
ATOM      7  C   UNL     1      -2.383   0.708  -1.515  0.00  0.00    +0.000 A 
ATOM      8  C   UNL     1      -1.216   1.469  -1.400  0.00  0.00    +0.000 A 
ATOM      9  C   UNL     1      -0.683   2.122  -2.512  0.00  0.00    +0.000 A 
ENDBRANCH   3   7
ENDBRANCH   1   3
BRANCH   1  10
ATOM     10  O   UNL     1      -3.598  -1.489   1.305  0.00  0.00    +0.000 OA
BRANCH  10  11
ATOM     11  C   UNL     1      -2.627  -2.363   1.722  0.00  0.00    +0.000 A 
ATOM     12  C   UNL     1      -2.418  -2.403   3.104  0.00  0.00    +0.000 A 
ATOM     13  C   UNL     1      -1.461  -3.258   3.652  0.00  0.00    +0.000 A 
ATOM     14  C   UNL     1      -0.709  -4.083   2.819  0.00  0.00    +0.000 A 
ATOM     15  C   UNL     1      -0.915  -4.052   1.440  0.00  0.00    +0.000 A 
ATOM     16  C   UNL     1      -1.873  -3.195   0.890  0.00  0.00    +0.000 A 
ENDBRANCH  10  11
ENDBRANCH   1  10
TORSDOF 4
