MODEL 1
REMARK VINA RESULT:      -4.7      0.000      0.000
REMARK  Name = *****
REMARK  1 active torsions:
REMARK  status: ('A' for Active; 'I' for Inactive)
REMARK    1  A    between atoms: C_4  and  C_7
REMARK                            x       y       z     vdW  Elec       q    Type
REMARK                         _______ _______ _______ _____ _____    ______ ____
ROOT
ATOM      1  C   UNL     1     101.814 126.747  82.627  0.00  0.00    +0.000 A 
ATOM      2  C   UNL     1     102.247 127.877  83.343  0.00  0.00    +0.000 A 
ATOM      3  C   UNL     1     101.310 128.831  83.788  0.00  0.00    +0.000 A 
ATOM      4  C   UNL     1      99.944 128.689  83.536  0.00  0.00    +0.000 A 
ATOM      5  C   UNL     1      99.516 127.551  82.817  0.00  0.00    +0.000 A 
ATOM      6  C   UNL     1     100.447 126.601  82.373  0.00  0.00    +0.000 A 
ATOM      7  C   UNL     1      99.196 129.784  84.085  0.00  0.00    +0.000 A 
ATOM      8  C   UNL     1      99.990 130.706  84.726  0.00  0.00    +0.000 A 
ATOM      9  S   UNL     1     101.638 130.273  84.676  0.00  0.00    +0.000 S 
ENDROOT
BRANCH   1  13
ATOM     10  C   UNL     1     104.634 123.816  81.255  0.00  0.00    +0.000 A 
ATOM     11  C   UNL     1     104.073 124.718  80.355  0.00  0.00    +0.000 A 
ATOM     12  C   UNL     1     103.155 125.673  80.802  0.00  0.00    +0.000 A 
ATOM     13  C   UNL     1     102.782 125.741  82.155  0.00  0.00    +0.000 A 
ATOM     14  C   UNL     1     103.360 124.821  83.045  0.00  0.00    +0.000 A 
ATOM     15  C   UNL     1     104.278 123.866  82.600  0.00  0.00    +0.000 A 
ENDBRANCH   1  13
TORSDOF 1
ENDMDL
