REMARK  Name = *****
REMARK  4 active torsions:
REMARK  status: ('A' for Active; 'I' for Inactive)
REMARK    1  A    between atoms: C_1  and  C_2
REMARK    2  A    between atoms: C_5  and  C_8
REMARK    3  A    between atoms: C_8  and  C_9
REMARK    4  A    between atoms: C_9  and  C_10
REMARK                            x       y       z     vdW  Elec       q    Type
REMARK                         _______ _______ _______ _____ _____    ______ ____
ROOT
ATOM      1  C   UNL     1      -3.300  -0.147  -0.215  0.00  0.00    +0.000 C 
ATOM      2 CL   UNL     1      -3.998   1.308  -0.999  0.00  0.00    +0.000 Cl
ENDROOT
BRANCH   1   7
ATOM      3  C   UNL     1       2.473   0.231   0.620  0.00  0.00    +0.000 C 
ATOM      4  C   UNL     1       0.989   0.135   0.430  0.00  0.00    +0.000 A 
ATOM      5  C   UNL     1       0.416  -1.021  -0.110  0.00  0.00    +0.000 A 
ATOM      6  C   UNL     1      -0.964  -1.098  -0.318  0.00  0.00    +0.000 A 
ATOM      7  C   UNL     1      -1.803  -0.016  -0.007  0.00  0.00    +0.000 A 
ATOM      8  C   UNL     1      -1.217   1.143   0.526  0.00  0.00    +0.000 A 
ATOM      9  C   UNL     1       0.162   1.220   0.735  0.00  0.00    +0.000 A 
ENDBRANCH   1   7
BRANCH   1  10
ATOM     10  C   UNL     1      -4.090  -0.571   1.041  0.00  0.00    +0.000 C 
BRANCH  10  11
ATOM     11  C   UNL     1      -4.052   0.363   2.230  0.00  0.00    +0.000 A 
ATOM     12  C   UNL     1      -4.970   1.415   2.345  0.00  0.00    +0.000 A 
ATOM     13  C   UNL     1      -4.926   2.278   3.442  0.00  0.00    +0.000 A 
ATOM     14  C   UNL     1      -3.967   2.096   4.436  0.00  0.00    +0.000 A 
ATOM     15  C   UNL     1      -3.052   1.051   4.335  0.00  0.00    +0.000 A 
ATOM     16  C   UNL     1      -3.095   0.187   3.240  0.00  0.00    +0.000 A 
ENDBRANCH  10  11
ENDBRANCH   1  10
TORSDOF 3
