MODEL 1
REMARK VINA RESULT:      -4.3      0.000      0.000
REMARK  Name = *****
REMARK  2 active torsions:
REMARK  status: ('A' for Active; 'I' for Inactive)
REMARK    1  A    between atoms: C_4  and  C_7
REMARK    2  A    between atoms: C_8  and  C_9
REMARK                            x       y       z     vdW  Elec       q    Type
REMARK                         _______ _______ _______ _____ _____    ______ ____
ROOT
ATOM      1  C   UNL     1     102.083 126.266  81.938  0.00  0.00    +0.000 C 
ATOM      2  C   UNL     1     102.955 125.599  81.450  0.00  0.00    +0.000 C 
ENDROOT
BRANCH   1   6
ATOM      3  C   UNL     1      99.035 128.667  83.607  0.00  0.00    +0.000 A 
ATOM      4  C   UNL     1     100.375 129.005  83.801  0.00  0.00    +0.000 A 
ATOM      5  C   UNL     1     101.382 128.209  83.254  0.00  0.00    +0.000 A 
ATOM      6  C   UNL     1     101.051 127.074  82.510  0.00  0.00    +0.000 A 
ATOM      7  C   UNL     1      99.709 126.736  82.319  0.00  0.00    +0.000 A 
ATOM      8  C   UNL     1      98.702 127.532  82.868  0.00  0.00    +0.000 A 
ENDBRANCH   1   6
BRANCH   2   9
ATOM      9  C   UNL     1     103.996 124.818  80.861  0.00  0.00    +0.000 A 
ATOM     10  C   UNL     1     104.334 123.561  81.309  0.00  0.00    +0.000 A 
ATOM     11  S   UNL     1     105.626 122.884  80.409  0.00  0.00    +0.000 S 
ATOM     12  C   UNL     1     105.734 124.275  79.416  0.00  0.00    +0.000 A 
ATOM     13  C   UNL     1     104.804 125.231  79.764  0.00  0.00    +0.000 A 
ENDBRANCH   2   9
TORSDOF 2
ENDMDL
