REMARK  Name = *****
REMARK  4 active torsions:
REMARK  status: ('A' for Active; 'I' for Inactive)
REMARK    1  A    between atoms: C_4  and  C_7
REMARK    2  A    between atoms: C_7  and  S_8
REMARK    3  A    between atoms: S_8  and  C_9
REMARK    4  A    between atoms: C_9  and  C_10
REMARK                            x       y       z     vdW  Elec       q    Type
REMARK                         _______ _______ _______ _____ _____    ______ ____
ROOT
ATOM      1  S   UNL     1       3.341  -2.395   0.636  0.00  0.00    +0.000 S 
ENDROOT
BRANCH   1   2
ATOM      2  C   UNL     1       2.743  -0.899  -0.215  0.00  0.00    +0.000 C 
BRANCH   2   6
ATOM      3  C   UNL     1      -1.449   0.390  -0.287  0.00  0.00    +0.000 C 
ATOM      4  C   UNL     1      -1.143  -0.993   0.275  0.00  0.00    +0.000 C 
ATOM      5  C   UNL     1       0.249  -1.475  -0.133  0.00  0.00    +0.000 C 
ATOM      6  C   UNL     1       1.344  -0.468   0.264  0.00  0.00    +0.000 C 
ATOM      7  C   UNL     1       1.016   0.923  -0.310  0.00  0.00    +0.000 C 
ATOM      8  C   UNL     1      -0.375   1.399   0.101  0.00  0.00    +0.000 C 
ENDBRANCH   2   6
ENDBRANCH   1   2
BRANCH   1   9
ATOM      9  C   UNL     1       4.947  -2.558  -0.202  0.00  0.00    +0.000 C 
BRANCH   9  10
ATOM     10  C   UNL     1       5.705  -3.770   0.277  0.00  0.00    +0.000 A 
ATOM     11  C   UNL     1       5.532  -5.012  -0.352  0.00  0.00    +0.000 A 
ATOM     12  C   UNL     1       6.229  -6.135   0.095  0.00  0.00    +0.000 A 
ATOM     13  C   UNL     1       7.100  -6.032   1.178  0.00  0.00    +0.000 A 
ATOM     14  C   UNL     1       7.271  -4.806   1.818  0.00  0.00    +0.000 A 
ATOM     15  C   UNL     1       6.575  -3.681   1.373  0.00  0.00    +0.000 A 
ENDBRANCH   9  10
ENDBRANCH   1   9
TORSDOF 4
