MODEL 1
REMARK VINA RESULT:      -5.1      0.000      0.000
REMARK  Name = *****
REMARK  2 active torsions:
REMARK  status: ('A' for Active; 'I' for Inactive)
REMARK    1  A    between atoms: C_6  and  N_7
REMARK    2  A    between atoms: C_8  and  C_9
REMARK                            x       y       z     vdW  Elec       q    Type
REMARK                         _______ _______ _______ _____ _____    ______ ____
ROOT
ATOM      1  C   UNL     1     103.695 125.131  81.666  0.00  0.00    +0.000 A 
ATOM      2  C   UNL     1     104.220 125.292  80.384  0.00  0.00    +0.000 A 
ATOM      3  C   UNL     1     105.072 124.334  79.845  0.00  0.00    +0.000 A 
ATOM      4  C   UNL     1     105.403 123.206  80.581  0.00  0.00    +0.000 A 
ATOM      5  C   UNL     1     104.884 123.036  81.856  0.00  0.00    +0.000 A 
ATOM      6  C   UNL     1     104.032 123.993  82.402  0.00  0.00    +0.000 A 
ATOM      7  F   UNL     1     103.551 123.786  83.636  0.00  0.00    +0.000 F 
ATOM      8  F   UNL     1     105.204 121.945  82.566  0.00  0.00    +0.000 F 
ATOM      9  F   UNL     1     106.223 122.282  80.061  0.00  0.00    +0.000 F 
ATOM     10  F   UNL     1     105.571 124.503  78.613  0.00  0.00    +0.000 F 
ATOM     11  F   UNL     1     103.913 126.376  79.657  0.00  0.00    +0.000 F 
ENDROOT
BRANCH   1  13
ATOM     12  N   UNL     1     101.516 126.044  82.211  0.00  0.00    +0.000 NA
ATOM     13  C   UNL     1     102.802 126.181  82.182  0.00  0.00    +0.000 C 
BRANCH  12  19
ATOM     14  C   UNL     1      99.401 127.189  82.565  0.00  0.00    +0.000 A 
ATOM     15  C   UNL     1      98.683 128.276  83.069  0.00  0.00    +0.000 A 
ATOM     16  C   UNL     1      99.362 129.298  83.723  0.00  0.00    +0.000 A 
ATOM     17  C   UNL     1     100.743 129.258  83.877  0.00  0.00    +0.000 A 
ATOM     18  C   UNL     1     101.457 128.169  83.372  0.00  0.00    +0.000 A 
ATOM     19  C   UNL     1     100.789 127.124  82.727  0.00  0.00    +0.000 A 
ATOM     20  F   UNL     1      98.675 130.342  84.206  0.00  0.00    +0.000 F 
ENDBRANCH  12  19
ENDBRANCH   1  13
TORSDOF 2
ENDMDL
