REMARK  Name = *****
REMARK  5 active torsions:
REMARK  status: ('A' for Active; 'I' for Inactive)
REMARK    1  A    between atoms: C_1  and  C_2
REMARK    2  A    between atoms: C_5  and  O_8
REMARK    3  A    between atoms: O_8  and  O_9
REMARK    4  A    between atoms: O_9  and  C_10
REMARK    5  A    between atoms: C_13  and  C_16
REMARK                            x       y       z     vdW  Elec       q    Type
REMARK                         _______ _______ _______ _____ _____    ______ ____
ROOT
ATOM      1  O   UNL     1      -3.375  -0.293  -0.402  0.00  0.00    +0.000 OA
ENDROOT
BRANCH   1   6
ATOM      2  C   UNL     1       2.233   0.167   0.399  0.00  0.00    +0.000 C 
ATOM      3  C   UNL     1       0.747   0.080   0.214  0.00  0.00    +0.000 A 
ATOM      4  C   UNL     1      -0.006   1.231  -0.044  0.00  0.00    +0.000 A 
ATOM      5  C   UNL     1      -1.387   1.149  -0.251  0.00  0.00    +0.000 A 
ATOM      6  C   UNL     1      -2.026  -0.090  -0.213  0.00  0.00    +0.000 A 
ATOM      7  C   UNL     1      -1.277  -1.244   0.030  0.00  0.00    +0.000 A 
ATOM      8  C   UNL     1       0.102  -1.162   0.236  0.00  0.00    +0.000 A 
ENDBRANCH   1   6
BRANCH   1   9
ATOM      9  O   UNL     1      -4.027   0.987  -0.645  0.00  0.00    +0.000 OA
BRANCH   9  10
ATOM     10  C   UNL     1      -5.068   1.137   0.244  0.00  0.00    +0.000 A 
ATOM     11  C   UNL     1      -5.223   0.402   1.419  0.00  0.00    +0.000 A 
ATOM     12  C   UNL     1      -6.314   0.647   2.259  0.00  0.00    +0.000 A 
ATOM     13  C   UNL     1      -7.250   1.639   1.941  0.00  0.00    +0.000 A 
ATOM     14  C   UNL     1      -7.089   2.370   0.758  0.00  0.00    +0.000 A 
ATOM     15  C   UNL     1      -5.999   2.125  -0.080  0.00  0.00    +0.000 A 
ATOM     16  C   UNL     1      -8.439   1.877   2.823  0.00  0.00    +0.000 C 
ENDBRANCH   9  10
ENDBRANCH   1   9
TORSDOF 3
