MODEL 1
REMARK VINA RESULT:      -3.6      0.000      0.000
REMARK  Name = *****
REMARK  4 active torsions:
REMARK  status: ('A' for Active; 'I' for Inactive)
REMARK    1  A    between atoms: C_6  and  C_7
REMARK    2  A    between atoms: C_7  and  S_8
REMARK    3  A    between atoms: S_8  and  C_9
REMARK    4  A    between atoms: C_9  and  C_10
REMARK                            x       y       z     vdW  Elec       q    Type
REMARK                         _______ _______ _______ _____ _____    ______ ____
ROOT
ATOM      1  S   UNL     1      96.607 117.661  80.095  0.00  0.00    +0.000 S 
ENDROOT
BRANCH   1   2
ATOM      2  C   UNL     1      97.462 117.747  81.708  0.00  0.00    +0.000 C 
BRANCH   2   8
ATOM      3  C   UNL     1      97.927 120.172  81.123  0.00  0.00    +0.000 C 
ATOM      4  C   UNL     1      97.042 121.001  82.008  0.00  0.00    +0.000 C 
ATOM      5  C   UNL     1      96.921 120.904  83.337  0.00  0.00    +0.000 C 
ATOM      6  S   UNL     1      97.780 119.773  84.315  0.00  0.00    +0.000 S 
ATOM      7  C   UNL     1      99.053 119.195  83.152  0.00  0.00    +0.000 C 
ATOM      8  C   UNL     1      98.499 118.888  81.754  0.00  0.00    +0.000 C 
ENDBRANCH   2   8
ENDBRANCH   1   2
BRANCH   1   9
ATOM      9  C   UNL     1      97.923 116.848  79.127  0.00  0.00    +0.000 C 
BRANCH   9  10
ATOM     10  C   UNL     1      97.397 115.661  78.297  0.00  0.00    +0.000 C 
ATOM     11  C   UNL     1      96.234 114.938  79.005  0.00  0.00    +0.000 C 
ATOM     12  C   UNL     1      95.462 113.974  78.152  0.00  0.00    +0.000 C 
ATOM     13  C   UNL     1      95.531 113.843  76.822  0.00  0.00    +0.000 C 
ATOM     14  S   UNL     1      96.545 114.797  75.807  0.00  0.00    +0.000 S 
ATOM     15  C   UNL     1      96.956 116.170  76.921  0.00  0.00    +0.000 C 
ENDBRANCH   9  10
ENDBRANCH   1   9
TORSDOF 4
ENDMDL
