MODEL 1
REMARK VINA RESULT:      -4.4      0.000      0.000
REMARK  Name = *****
REMARK  6 active torsions:
REMARK  status: ('A' for Active; 'I' for Inactive)
REMARK    1  A    between atoms: C_1  and  C_2
REMARK    2  A    between atoms: C_4  and  C_9
REMARK    3  A    between atoms: C_5  and  C_8
REMARK    4  A    between atoms: C_9  and  O_10
REMARK    5  A    between atoms: O_10  and  C_11
REMARK    6  A    between atoms: C_11  and  C_13
REMARK                            x       y       z     vdW  Elec       q    Type
REMARK                         _______ _______ _______ _____ _____    ______ ____
ROOT
ATOM      1  C   UNL     1     100.961 126.507  83.176  0.00  0.00    +0.000 C 
ENDROOT
BRANCH   1   5
ATOM      2  C   UNL     1     104.623 128.419  80.306  0.00  0.00    +0.000 C 
ATOM      3  C   UNL     1     103.924 128.344  81.630  0.00  0.00    +0.000 A 
ATOM      4  C   UNL     1     102.810 127.517  81.812  0.00  0.00    +0.000 A 
ATOM      5  C   UNL     1     102.153 127.432  83.054  0.00  0.00    +0.000 A 
ATOM      6  C   UNL     1     102.626 128.203  84.135  0.00  0.00    +0.000 A 
ATOM      7  C   UNL     1     103.734 129.043  83.941  0.00  0.00    +0.000 A 
ATOM      8  C   UNL     1     104.381 129.106  82.705  0.00  0.00    +0.000 A 
ATOM      9  C   UNL     1     101.946 128.218  85.477  0.00  0.00    +0.000 C 
ENDBRANCH   1   5
BRANCH   1  10
ATOM     10  O   UNL     1      99.952 126.853  82.220  0.00  0.00    +0.000 OA
BRANCH  10  11
ATOM     11  C   UNL     1      98.730 127.130  82.733  0.00  0.00    +0.000 C 
ATOM     12  O   UNL     1      97.713 126.473  82.576  0.00  0.00    +0.000 OA
BRANCH  11  13
ATOM     13  C   UNL     1      98.785 128.371  83.557  0.00  0.00    +0.000 A 
ATOM     14  C   UNL     1      99.302 129.578  83.066  0.00  0.00    +0.000 A 
ATOM     15  C   UNL     1      99.344 130.709  83.886  0.00  0.00    +0.000 A 
ATOM     16  C   UNL     1      98.871 130.640  85.196  0.00  0.00    +0.000 A 
ATOM     17  C   UNL     1      98.354 129.444  85.691  0.00  0.00    +0.000 A 
ATOM     18  C   UNL     1      98.312 128.311  84.875  0.00  0.00    +0.000 A 
ENDBRANCH  11  13
ENDBRANCH  10  11
ENDBRANCH   1  10
TORSDOF 4
ENDMDL
