MODEL 1
REMARK VINA RESULT:      -4.6      0.000      0.000
REMARK  Name = *****
REMARK  5 active torsions:
REMARK  status: ('A' for Active; 'I' for Inactive)
REMARK    1  A    between atoms: C_1  and  C_2
REMARK    2  A    between atoms: C_5  and  C_8
REMARK    3  A    between atoms: C_8  and  N_9
REMARK    4  A    between atoms: N_9  and  C_10
REMARK    5  A    between atoms: C_17  and  C_19
REMARK                            x       y       z     vdW  Elec       q    Type
REMARK                         _______ _______ _______ _____ _____    ______ ____
ROOT
ATOM      1  N   UNL     1      89.247  69.308  85.955  0.00  0.00    +0.000 N 
ATOM      2  C   UNL     1      89.929  69.894  84.888  0.00  0.00    +0.000 C 
ATOM      3  O   UNL     1      90.506  70.981  84.978  0.00  0.00    +0.000 OA
ATOM      4  C   UNL     1      89.869  69.212  83.539  0.00  0.00    +0.000 C 
ENDROOT
BRANCH   1   5
ATOM      5  C   UNL     1      88.927  67.917  86.041  0.00  0.00    +0.000 A 
ATOM      6  C   UNL     1      87.633  67.454  85.758  0.00  0.00    +0.000 A 
ATOM      7  C   UNL     1      87.327  66.090  85.815  0.00  0.00    +0.000 A 
ATOM      8  C   UNL     1      88.317  65.171  86.147  0.00  0.00    +0.000 A 
ATOM      9  C   UNL     1      89.610  65.606  86.414  0.00  0.00    +0.000 A 
ATOM     10  C   UNL     1      89.914  66.971  86.353  0.00  0.00    +0.000 A 
ATOM     11 CL   UNL     1      87.943  63.495  86.218  0.00  0.00    +0.000 Cl
ENDBRANCH   1   5
BRANCH   1  12
ATOM     12  C   UNL     1      89.036  70.133  87.156  0.00  0.00    +0.000 C 
BRANCH  12  17
ATOM     13  C   UNL     1      83.787  72.661  87.559  0.00  0.00    +0.000 C 
ATOM     14  C   UNL     1      85.121  71.983  87.453  0.00  0.00    +0.000 A 
ATOM     15  C   UNL     1      85.840  71.644  88.603  0.00  0.00    +0.000 A 
ATOM     16  C   UNL     1      87.098  71.044  88.501  0.00  0.00    +0.000 A 
ATOM     17  C   UNL     1      87.662  70.768  87.246  0.00  0.00    +0.000 A 
ATOM     18  C   UNL     1      86.952  71.143  86.098  0.00  0.00    +0.000 A 
ATOM     19  C   UNL     1      85.695  71.743  86.200  0.00  0.00    +0.000 A 
ENDBRANCH  12  17
ENDBRANCH   1  12
TORSDOF 3
ENDMDL
