MODEL 1
REMARK VINA RESULT:      -4.6      0.000      0.000
REMARK  Name = *****
REMARK  3 active torsions:
REMARK  status: ('A' for Active; 'I' for Inactive)
REMARK    1  A    between atoms: C_3  and  C_8
REMARK    2  A    between atoms: C_8  and  N_9
REMARK    3  A    between atoms: N_9  and  C_10
REMARK                            x       y       z     vdW  Elec       q    Type
REMARK                         _______ _______ _______ _____ _____    ______ ____
ROOT
ATOM      1  N   UNL     1     103.357 126.679  81.529  0.00  0.00    +0.000 N 
ATOM      2  O   UNL     1     103.543 127.354  80.465  0.00  0.00    +0.000 OA
ENDROOT
BRANCH   1   3
ATOM      3  C   UNL     1     103.815 125.296  81.574  0.00  0.00    +0.000 A 
ATOM      4  C   UNL     1     104.263 124.650  80.414  0.00  0.00    +0.000 A 
ATOM      5  C   UNL     1     104.707 123.329  80.492  0.00  0.00    +0.000 A 
ATOM      6  C   UNL     1     104.715 122.668  81.721  0.00  0.00    +0.000 A 
ATOM      7  C   UNL     1     104.288 123.318  82.880  0.00  0.00    +0.000 A 
ATOM      8  C   UNL     1     103.840 124.638  82.810  0.00  0.00    +0.000 A 
ATOM      9 CL   UNL     1     105.266 121.041  81.811  0.00  0.00    +0.000 Cl
ENDBRANCH   1   3
BRANCH   1  10
ATOM     10  C   UNL     1     102.824 127.177  82.622  0.00  0.00    +0.000 C 
BRANCH  10  13
ATOM     11  C   UNL     1      99.103 126.876  82.399  0.00  0.00    +0.000 A 
ATOM     12  C   UNL     1     100.472 126.622  82.292  0.00  0.00    +0.000 A 
ATOM     13  C   UNL     1     101.406 127.529  82.811  0.00  0.00    +0.000 A 
ATOM     14  C   UNL     1     100.961 128.706  83.418  0.00  0.00    +0.000 A 
ATOM     15  C   UNL     1      99.591 128.953  83.521  0.00  0.00    +0.000 A 
ATOM     16  C   UNL     1      98.662 128.044  83.018  0.00  0.00    +0.000 A 
ATOM     17 CL   UNL     1      99.038 130.402  84.268  0.00  0.00    +0.000 Cl
ENDBRANCH  10  13
ENDBRANCH   1  10
TORSDOF 3
ENDMDL
