MODEL 1
REMARK VINA RESULT:      -4.2      0.000      0.000
REMARK  Name = *****
REMARK  4 active torsions:
REMARK  status: ('A' for Active; 'I' for Inactive)
REMARK    1  A    between atoms: C_1  and  C_2
REMARK    2  A    between atoms: C_5  and  C_8
REMARK    3  A    between atoms: C_8  and  C_9
REMARK    4  A    between atoms: C_9  and  C_10
REMARK                            x       y       z     vdW  Elec       q    Type
REMARK                         _______ _______ _______ _____ _____    ______ ____
ROOT
ATOM      1  C   UNL     1      89.186  70.251  86.719  0.00  0.00    +0.000 C 
ATOM      2 CL   UNL     1      90.059  70.891  85.297  0.00  0.00    +0.000 Cl
ENDROOT
BRANCH   1   7
ATOM      3  C   UNL     1      83.848  72.587  87.176  0.00  0.00    +0.000 C 
ATOM      4  C   UNL     1      85.202  71.952  87.064  0.00  0.00    +0.000 A 
ATOM      5  C   UNL     1      85.824  71.815  85.821  0.00  0.00    +0.000 A 
ATOM      6  C   UNL     1      87.100  71.252  85.726  0.00  0.00    +0.000 A 
ATOM      7  C   UNL     1      87.788  70.818  86.871  0.00  0.00    +0.000 A 
ATOM      8  C   UNL     1      87.164  70.981  88.117  0.00  0.00    +0.000 A 
ATOM      9  C   UNL     1      85.887  71.543  88.212  0.00  0.00    +0.000 A 
ENDBRANCH   1   7
BRANCH   1  10
ATOM     10  C   UNL     1      89.267  68.714  86.824  0.00  0.00    +0.000 C 
BRANCH  10  11
ATOM     11  C   UNL     1      88.615  67.884  85.703  0.00  0.00    +0.000 C 
ATOM     12  S   UNL     1      89.720  67.181  84.438  0.00  0.00    +0.000 S 
ATOM     13  C   UNL     1      90.672  66.011  85.443  0.00  0.00    +0.000 C 
ATOM     14  C   UNL     1      89.802  64.934  86.075  0.00  0.00    +0.000 C 
ATOM     15  C   UNL     1      88.817  65.460  87.110  0.00  0.00    +0.000 C 
ATOM     16  S   UNL     1      87.555  66.559  86.406  0.00  0.00    +0.000 S 
ENDBRANCH  10  11
ENDBRANCH   1  10
TORSDOF 3
ENDMDL
