MODEL 1
REMARK VINA RESULT:      -4.8      0.000      0.000
REMARK  Name = *****
REMARK  1 active torsions:
REMARK  status: ('A' for Active; 'I' for Inactive)
REMARK    1  A    between atoms: C_9  and  C_11
REMARK                            x       y       z     vdW  Elec       q    Type
REMARK                         _______ _______ _______ _____ _____    ______ ____
ROOT
ATOM      1  C   UNL     1      90.209  66.978  86.082  0.00  0.00    +0.000 C 
ATOM      2  C   UNL     1      90.141  67.024  84.591  0.00  0.00    +0.000 C 
ATOM      3  C   UNL     1      89.647  68.179  84.137  0.00  0.00    +0.000 C 
ATOM      4  C   UNL     1      89.314  69.129  85.242  0.00  0.00    +0.000 C 
ATOM      5  C   UNL     1      89.652  68.337  86.531  0.00  0.00    +0.000 C 
ATOM      6  C   UNL     1      88.284  68.268  87.253  0.00  0.00    +0.000 C 
ATOM      7  C   UNL     1      87.282  68.172  86.103  0.00  0.00    +0.000 C 
ATOM      8  C   UNL     1      87.806  69.439  85.412  0.00  0.00    +0.000 C 
ATOM      9  C   UNL     1      87.672  70.509  86.536  0.00  0.00    +0.000 C 
ATOM     10  C   UNL     1      87.950  69.667  87.811  0.00  0.00    +0.000 C 
ENDROOT
BRANCH   9  11
ATOM     11  C   UNL     1      86.371  71.281  86.638  0.00  0.00    +0.000 A 
ATOM     12  C   UNL     1      85.750  71.598  87.853  0.00  0.00    +0.000 A 
ATOM     13  C   UNL     1      84.548  72.311  87.879  0.00  0.00    +0.000 A 
ATOM     14  C   UNL     1      83.946  72.718  86.690  0.00  0.00    +0.000 A 
ATOM     15  C   UNL     1      84.548  72.411  85.473  0.00  0.00    +0.000 A 
ATOM     16  C   UNL     1      85.748  71.699  85.448  0.00  0.00    +0.000 A 
ENDBRANCH   9  11
TORSDOF 1
ENDMDL
