MODEL 1
REMARK VINA RESULT:      -4.6      0.000      0.000
REMARK  Name = *****
REMARK  3 active torsions:
REMARK  status: ('A' for Active; 'I' for Inactive)
REMARK    1  A    between atoms: C_4  and  C_7
REMARK    2  A    between atoms: C_7  and  C_9
REMARK    3  A    between atoms: C_9  and  C_10
REMARK                            x       y       z     vdW  Elec       q    Type
REMARK                         _______ _______ _______ _____ _____    ______ ____
ROOT
ATOM      1  C   UNL     1      88.733  69.965  87.227  0.00  0.00    +0.000 C 
ENDROOT
BRANCH   1   2
ATOM      2  C   UNL     1      88.884  68.471  87.046  0.00  0.00    +0.000 A 
ATOM      3  C   UNL     1      87.903  67.547  87.452  0.00  0.00    +0.000 A 
ATOM      4  C   UNL     1      88.076  66.173  87.238  0.00  0.00    +0.000 A 
ATOM      5  C   UNL     1      89.222  65.701  86.601  0.00  0.00    +0.000 A 
ATOM      6  C   UNL     1      90.183  66.604  86.175  0.00  0.00    +0.000 A 
ATOM      7  C   UNL     1      90.023  67.972  86.382  0.00  0.00    +0.000 A 
ATOM      8  F   UNL     1      91.278  66.155  85.549  0.00  0.00    +0.000 F 
ATOM      9 CL   UNL     1      86.437  68.041  88.224  0.00  0.00    +0.000 Cl
ENDBRANCH   1   2
BRANCH   1  10
ATOM     10  C   UNL     1      87.916  70.639  86.138  0.00  0.00    +0.000 C 
ATOM     11  O   UNL     1      88.332  70.680  84.979  0.00  0.00    +0.000 OA
BRANCH  10  15
ATOM     12  C   UNL     1      84.127  72.499  86.963  0.00  0.00    +0.000 A 
ATOM     13  C   UNL     1      84.564  72.322  85.653  0.00  0.00    +0.000 A 
ATOM     14  C   UNL     1      85.797  71.716  85.407  0.00  0.00    +0.000 A 
ATOM     15  C   UNL     1      86.604  71.279  86.468  0.00  0.00    +0.000 A 
ATOM     16  C   UNL     1      86.155  71.462  87.782  0.00  0.00    +0.000 A 
ATOM     17  C   UNL     1      84.919  72.070  88.025  0.00  0.00    +0.000 A 
ENDBRANCH  10  15
ENDBRANCH   1  10
TORSDOF 3
ENDMDL
