REMARK  Name = *****
REMARK  3 active torsions:
REMARK  status: ('A' for Active; 'I' for Inactive)
REMARK    1  A    between atoms: C_4  and  C_7
REMARK    2  A    between atoms: C_8  and  O_9
REMARK    3  A    between atoms: O_9  and  C_10
REMARK                            x       y       z     vdW  Elec       q    Type
REMARK                         _______ _______ _______ _____ _____    ______ ____
ROOT
ATOM      1  C   UNL     1      -2.847   0.461  -0.035  0.00  0.00    +0.000 C 
ATOM      2  C   UNL     1      -3.786  -0.491  -0.067  0.00  0.00    +0.000 C 
ENDROOT
BRANCH   1   6
ATOM      3  C   UNL     1       1.380  -0.190  -0.084  0.00  0.00    +0.000 A 
ATOM      4  C   UNL     1       0.548  -1.043  -0.805  0.00  0.00    +0.000 A 
ATOM      5  C   UNL     1      -0.836  -0.846  -0.794  0.00  0.00    +0.000 A 
ATOM      6  C   UNL     1      -1.402   0.200  -0.053  0.00  0.00    +0.000 A 
ATOM      7  C   UNL     1      -0.551   1.061   0.653  0.00  0.00    +0.000 A 
ATOM      8  C   UNL     1       0.832   0.863   0.643  0.00  0.00    +0.000 A 
ENDBRANCH   1   6
BRANCH   2   9
ATOM      9  O   UNL     1      -5.128  -0.180  -0.043  0.00  0.00    +0.000 OA
BRANCH   9  10
ATOM     10  C   UNL     1      -6.007  -1.222   0.128  0.00  0.00    +0.000 A 
ATOM     11  C   UNL     1      -5.942  -2.067   1.241  0.00  0.00    +0.000 A 
ATOM     12  C   UNL     1      -6.884  -3.084   1.389  0.00  0.00    +0.000 A 
ATOM     13  C   UNL     1      -7.886  -3.235   0.436  0.00  0.00    +0.000 A 
ATOM     14  C   UNL     1      -7.969  -2.384  -0.662  0.00  0.00    +0.000 A 
ATOM     15  C   UNL     1      -7.028  -1.365  -0.813  0.00  0.00    +0.000 A 
ATOM     16  F   UNL     1      -8.792  -4.212   0.581  0.00  0.00    +0.000 F 
ENDBRANCH   9  10
ENDBRANCH   2   9
TORSDOF 3
