MODEL 1
REMARK VINA RESULT:      -4.5      0.000      0.000
REMARK  Name = *****
REMARK  4 active torsions:
REMARK  status: ('A' for Active; 'I' for Inactive)
REMARK    1  A    between atoms: C_4  and  C_7
REMARK    2  A    between atoms: C_7  and  S_8
REMARK    3  A    between atoms: S_8  and  C_9
REMARK    4  A    between atoms: C_10  and  O_16
REMARK                            x       y       z     vdW  Elec       q    Type
REMARK                         _______ _______ _______ _____ _____    ______ ____
ROOT
ATOM      1  C   UNL     1     101.050 127.060  82.809  0.00  0.00    +0.000 A 
ATOM      2  C   UNL     1      99.702 126.944  82.437  0.00  0.00    +0.000 A 
ATOM      3  C   UNL     1      98.789 127.960  82.705  0.00  0.00    +0.000 A 
ATOM      4  C   UNL     1      99.221 129.109  83.366  0.00  0.00    +0.000 A 
ATOM      5  C   UNL     1     100.555 129.221  83.748  0.00  0.00    +0.000 A 
ATOM      6  C   UNL     1     101.472 128.209  83.478  0.00  0.00    +0.000 A 
ATOM      7  F   UNL     1     100.963 130.325  84.387  0.00  0.00    +0.000 F 
ENDROOT
BRANCH   2   8
ATOM      8  O   UNL     1      99.231 125.827  81.802  0.00  0.00    +0.000 OA
ATOM      9  H   UNL     1      99.830 125.175  81.495  0.00  0.00    +0.000 HD
ENDBRANCH   2   8
BRANCH   1  10
ATOM     10  S   UNL     1     102.219 125.762  82.443  0.00  0.00    +0.000 S 
BRANCH  10  11
ATOM     11  C   UNL     1     103.092 126.565  81.049  0.00  0.00    +0.000 C 
BRANCH  11  15
ATOM     12  C   UNL     1     106.426 123.912  80.011  0.00  0.00    +0.000 C 
ATOM     13  C   UNL     1     105.060 123.277  80.246  0.00  0.00    +0.000 C 
ATOM     14  C   UNL     1     104.115 124.221  80.987  0.00  0.00    +0.000 C 
ATOM     15  C   UNL     1     103.974 125.576  80.268  0.00  0.00    +0.000 C 
ATOM     16  C   UNL     1     105.363 126.200  80.039  0.00  0.00    +0.000 C 
ATOM     17  C   UNL     1     106.301 125.252  79.295  0.00  0.00    +0.000 C 
ENDBRANCH  11  15
ENDBRANCH  10  11
ENDBRANCH   1  10
TORSDOF 4
ENDMDL
