MODEL 1
REMARK VINA RESULT:      -3.9      0.000      0.000
REMARK  Name = *****
REMARK  1 active torsions:
REMARK  status: ('A' for Active; 'I' for Inactive)
REMARK    1  A    between atoms: C_9  and  C_10
REMARK                            x       y       z     vdW  Elec       q    Type
REMARK                         _______ _______ _______ _____ _____    ______ ____
ROOT
ATOM      1  C   UNL     1     105.295 121.438  81.263  0.00  0.00    +0.000 A 
ATOM      2  C   UNL     1     105.072 121.410  82.642  0.00  0.00    +0.000 A 
ATOM      3  C   UNL     1     104.515 122.516  83.287  0.00  0.00    +0.000 A 
ATOM      4  C   UNL     1     104.185 123.647  82.543  0.00  0.00    +0.000 A 
ATOM      5  C   UNL     1     104.410 123.676  81.166  0.00  0.00    +0.000 A 
ATOM      6  C   UNL     1     104.963 122.573  80.520  0.00  0.00    +0.000 A 
ATOM      7  S   UNL     1     103.962 125.172  80.319  0.00  0.00    +0.000 S 
ATOM      8  C   UNL     1     103.423 126.012  81.766  0.00  0.00    +0.000 C 
ATOM      9  C   UNL     1     103.041 127.298  81.660  0.00  0.00    +0.000 C 
ATOM     10  S   UNL     1     103.479 125.108  83.265  0.00  0.00    +0.000 S 
ENDROOT
BRANCH   9  11
ATOM     11  C   UNL     1     102.591 128.114  82.738  0.00  0.00    +0.000 A 
ATOM     12  C   UNL     1     101.321 128.284  83.265  0.00  0.00    +0.000 A 
ATOM     13  C   UNL     1     101.286 129.210  84.348  0.00  0.00    +0.000 A 
ATOM     14  C   UNL     1     102.527 129.740  84.610  0.00  0.00    +0.000 A 
ATOM     15  S   UNL     1     103.719 129.137  83.545  0.00  0.00    +0.000 S 
ENDBRANCH   9  11
TORSDOF 1
ENDMDL
