MODEL 1
REMARK VINA RESULT:      -4.8      0.000      0.000
REMARK  Name = *****
REMARK  3 active torsions:
REMARK  status: ('A' for Active; 'I' for Inactive)
REMARK    1  A    between atoms: C_1  and  C_2
REMARK    2  A    between atoms: C_9  and  C_17
REMARK    3  A    between atoms: P_10  and  C_11
REMARK                            x       y       z     vdW  Elec       q    Type
REMARK                         _______ _______ _______ _____ _____    ______ ____
ROOT
ATOM      1  C   UNL     1     103.598 127.866  85.229  0.00  0.00    +0.000 C 
ATOM      2  C   UNL     1     102.087 127.699  85.199  0.00  0.00    +0.000 C 
ATOM      3  C   UNL     1     101.279 128.865  84.707  0.00  0.00    +0.000 A 
ATOM      4  C   UNL     1     101.587 130.197  85.012  0.00  0.00    +0.000 A 
ATOM      5  C   UNL     1     100.770 131.228  84.552  0.00  0.00    +0.000 A 
ATOM      6  C   UNL     1      99.633 130.938  83.801  0.00  0.00    +0.000 A 
ATOM      7  C   UNL     1      99.308 129.613  83.508  0.00  0.00    +0.000 A 
ATOM      8  C   UNL     1     100.132 128.572  83.951  0.00  0.00    +0.000 A 
ATOM      9  C   UNL     1      99.829 127.121  83.708  0.00  0.00    +0.000 C 
ATOM     10  P   UNL     1     101.471 126.387  84.072  0.00  0.00    +0.000 P 
ATOM     11  C   UNL     1      99.242 126.752  82.355  0.00  0.00    +0.000 C 
ENDROOT
BRANCH  10  12
ATOM     12  C   UNL     1     102.444 126.525  82.542  0.00  0.00    +0.000 A 
ATOM     13  C   UNL     1     102.835 127.726  81.935  0.00  0.00    +0.000 A 
ATOM     14  C   UNL     1     103.586 127.728  80.754  0.00  0.00    +0.000 A 
ATOM     15  C   UNL     1     103.959 126.527  80.158  0.00  0.00    +0.000 A 
ATOM     16  C   UNL     1     103.582 125.322  80.744  0.00  0.00    +0.000 A 
ATOM     17  C   UNL     1     102.832 125.324  81.924  0.00  0.00    +0.000 A 
ENDBRANCH  10  12
TORSDOF 1
ENDMDL
