REMARK  Name = *****
REMARK  5 active torsions:
REMARK  status: ('A' for Active; 'I' for Inactive)
REMARK    1  A    between atoms: C_1  and  C_2
REMARK    2  A    between atoms: N_7  and  O_8
REMARK    3  A    between atoms: O_8  and  C_9
REMARK    4  A    between atoms: C_9  and  C_10
REMARK    5  A    between atoms: C_9  and  C_11
REMARK                            x       y       z     vdW  Elec       q    Type
REMARK                         _______ _______ _______ _____ _____    ______ ____
ROOT
ATOM      1  O   UNL     1       2.757  -1.961  -0.779  0.00  0.00    +0.000 OA
ENDROOT
BRANCH   1   8
ATOM      2  C   UNL     1       3.067  -1.962   2.057  0.00  0.00    +0.000 C 
ATOM      3  C   UNL     1       2.799  -0.728   1.267  0.00  0.00    +0.000 A 
ATOM      4  C   UNL     1       2.839   0.520   1.757  0.00  0.00    +0.000 A 
ATOM      5  S   UNL     1       2.560   1.714   0.526  0.00  0.00    +0.000 S 
ATOM      6  C   UNL     1       2.472   0.459  -0.733  0.00  0.00    +0.000 A 
ATOM      7  S   UNL     1       2.379   0.789  -2.361  0.00  0.00    +0.000 S 
ATOM      8  N   UNL     1       2.503  -0.761  -0.082  0.00  0.00    +0.000 N 
ENDBRANCH   1   8
BRANCH   1   9
ATOM      9  C   UNL     1       1.520  -2.586  -1.176  0.00  0.00    +0.000 C 
ATOM     10  C   UNL     1       1.671  -3.070  -2.619  0.00  0.00    +0.000 C 
BRANCH   9  11
ATOM     11  C   UNL     1       1.208  -3.756  -0.261  0.00  0.00    +0.000 A 
ATOM     12  C   UNL     1      -0.056  -3.864   0.339  0.00  0.00    +0.000 A 
ATOM     13  C   UNL     1      -0.356  -4.942   1.174  0.00  0.00    +0.000 A 
ATOM     14  C   UNL     1       0.602  -5.925   1.419  0.00  0.00    +0.000 A 
ATOM     15  C   UNL     1       1.860  -5.832   0.829  0.00  0.00    +0.000 A 
ATOM     16  C   UNL     1       2.161  -4.756  -0.007  0.00  0.00    +0.000 A 
ENDBRANCH   9  11
ENDBRANCH   1   9
TORSDOF 3
