REMARK  Name = *****
REMARK  3 active torsions:
REMARK  status: ('A' for Active; 'I' for Inactive)
REMARK    1  A    between atoms: C_4  and  O_7
REMARK    2  A    between atoms: O_7  and  C_8
REMARK    3  A    between atoms: C_8  and  C_10
REMARK                            x       y       z     vdW  Elec       q    Type
REMARK                         _______ _______ _______ _____ _____    ______ ____
ROOT
ATOM      1  C   UNL     1      -3.626  -0.726  -0.136  0.00  0.00    +0.000 C 
ATOM      2  O   UNL     1      -3.324  -1.820   0.314  0.00  0.00    +0.000 OA
ENDROOT
BRANCH   1   3
ATOM      3  C   UNL     1      -5.021  -0.363  -0.512  0.00  0.00    +0.000 A 
ATOM      4  C   UNL     1      -5.363   0.897  -1.017  0.00  0.00    +0.000 A 
ATOM      5  C   UNL     1      -6.688   1.165  -1.346  0.00  0.00    +0.000 A 
ATOM      6  C   UNL     1      -7.682   0.206  -1.184  0.00  0.00    +0.000 A 
ATOM      7  C   UNL     1      -7.349  -1.050  -0.682  0.00  0.00    +0.000 A 
ATOM      8  C   UNL     1      -6.023  -1.334  -0.347  0.00  0.00    +0.000 A 
ATOM      9  F   UNL     1      -7.013   2.371  -1.828  0.00  0.00    +0.000 F 
ENDBRANCH   1   3
BRANCH   1  10
ATOM     10  O   UNL     1      -2.786   0.346  -0.374  0.00  0.00    +0.000 OA
BRANCH  10  14
ATOM     11  C   UNL     1       1.282  -0.093   0.455  0.00  0.00    +0.000 A 
ATOM     12  C   UNL     1       0.678  -0.949  -0.469  0.00  0.00    +0.000 A 
ATOM     13  C   UNL     1      -0.682  -0.827  -0.749  0.00  0.00    +0.000 A 
ATOM     14  C   UNL     1      -1.431   0.144  -0.084  0.00  0.00    +0.000 A 
ATOM     15  C   UNL     1      -0.833   1.016   0.824  0.00  0.00    +0.000 A 
ATOM     16  C   UNL     1       0.528   0.890   1.099  0.00  0.00    +0.000 A 
ENDBRANCH  10  14
ENDBRANCH   1  10
TORSDOF 3
