MODEL 1
REMARK VINA RESULT:      -4.5      0.000      0.000
REMARK  Name = *****
REMARK  5 active torsions:
REMARK  status: ('A' for Active; 'I' for Inactive)
REMARK    1  A    between atoms: C_1  and  C_2
REMARK    2  A    between atoms: C_4  and  O_9
REMARK    3  A    between atoms: C_5  and  C_8
REMARK    4  A    between atoms: O_9  and  C_10
REMARK    5  A    between atoms: C_10  and  C_11
REMARK                            x       y       z     vdW  Elec       q    Type
REMARK                         _______ _______ _______ _____ _____    ______ ____
ROOT
ATOM      1  C   UNL     1      90.866  66.142  85.592  0.00  0.00    +0.000 C 
ATOM      2  C   UNL     1      89.718  66.675  86.397  0.00  0.00    +0.000 A 
ATOM      3  C   UNL     1      89.502  68.058  86.496  0.00  0.00    +0.000 A 
ATOM      4  C   UNL     1      88.414  68.563  87.218  0.00  0.00    +0.000 A 
ATOM      5  C   UNL     1      87.519  67.674  87.838  0.00  0.00    +0.000 A 
ATOM      6  C   UNL     1      87.728  66.293  87.724  0.00  0.00    +0.000 A 
ATOM      7  C   UNL     1      88.817  65.798  87.005  0.00  0.00    +0.000 A 
ATOM      8  C   UNL     1      86.337  68.189  88.614  0.00  0.00    +0.000 C 
ENDROOT
BRANCH   4   9
ATOM      9  O   UNL     1      88.125  69.894  87.373  0.00  0.00    +0.000 OA
BRANCH   9  10
ATOM     10  C   UNL     1      87.892  70.663  86.194  0.00  0.00    +0.000 C 
BRANCH  10  11
ATOM     11  C   UNL     1      86.558  71.365  86.307  0.00  0.00    +0.000 A 
ATOM     12  C   UNL     1      85.852  71.757  85.160  0.00  0.00    +0.000 A 
ATOM     13  C   UNL     1      84.604  72.372  85.267  0.00  0.00    +0.000 A 
ATOM     14  C   UNL     1      84.041  72.593  86.522  0.00  0.00    +0.000 A 
ATOM     15  C   UNL     1      84.725  72.198  87.670  0.00  0.00    +0.000 A 
ATOM     16  C   UNL     1      85.974  71.584  87.564  0.00  0.00    +0.000 A 
ENDBRANCH  10  11
ENDBRANCH   9  10
ENDBRANCH   4   9
TORSDOF 3
ENDMDL
