MODEL 1
REMARK VINA RESULT:      -4.0      0.000      0.000
REMARK  Name = *****
REMARK  5 active torsions:
REMARK  status: ('A' for Active; 'I' for Inactive)
REMARK    1  A    between atoms: C_1  and  C_2
REMARK    2  A    between atoms: C_5  and  C_8
REMARK    3  A    between atoms: C_8  and  C_9
REMARK    4  A    between atoms: C_9  and  S_11
REMARK    5  A    between atoms: S_11  and  C_12
REMARK                            x       y       z     vdW  Elec       q    Type
REMARK                         _______ _______ _______ _____ _____    ______ ____
ROOT
ATOM      1  C   UNL     1      89.817  69.983  83.191  0.00  0.00    +0.000 C 
ATOM      2  O   UNL     1      91.001  69.940  82.872  0.00  0.00    +0.000 OA
ENDROOT
BRANCH   1   3
ATOM      3  C   UNL     1      89.160  71.191  83.825  0.00  0.00    +0.000 C 
BRANCH   3   8
ATOM      4  C   UNL     1      87.612  70.386  89.385  0.00  0.00    +0.000 C 
ATOM      5  C   UNL     1      88.005  70.557  87.948  0.00  0.00    +0.000 A 
ATOM      6  C   UNL     1      87.050  70.905  86.988  0.00  0.00    +0.000 A 
ATOM      7  C   UNL     1      87.421  71.100  85.657  0.00  0.00    +0.000 A 
ATOM      8  C   UNL     1      88.757  70.959  85.261  0.00  0.00    +0.000 A 
ATOM      9  C   UNL     1      89.716  70.624  86.226  0.00  0.00    +0.000 A 
ATOM     10  C   UNL     1      89.343  70.432  87.559  0.00  0.00    +0.000 A 
ENDBRANCH   3   8
ENDBRANCH   1   3
BRANCH   1  11
ATOM     11  S   UNL     1      88.757  68.605  82.889  0.00  0.00    +0.000 S 
BRANCH  11  12
ATOM     12  C   UNL     1      88.891  67.735  84.438  0.00  0.00    +0.000 A 
ATOM     13  C   UNL     1      87.738  67.530  85.204  0.00  0.00    +0.000 A 
ATOM     14  C   UNL     1      87.813  66.859  86.428  0.00  0.00    +0.000 A 
ATOM     15  C   UNL     1      89.039  66.384  86.888  0.00  0.00    +0.000 A 
ATOM     16  C   UNL     1      90.190  66.573  86.123  0.00  0.00    +0.000 A 
ATOM     17  C   UNL     1      90.115  67.240  84.899  0.00  0.00    +0.000 A 
ENDBRANCH  11  12
ENDBRANCH   1  11
TORSDOF 4
ENDMDL
