MODEL 1
REMARK VINA RESULT:      -4.3      0.000      0.000
REMARK  Name = *****
REMARK  7 active torsions:
REMARK  status: ('A' for Active; 'I' for Inactive)
REMARK    1  A    between atoms: C_1  and  C_2
REMARK    2  A    between atoms: C_4  and  C_8
REMARK    3  A    between atoms: C_5  and  C_7
REMARK    4  A    between atoms: C_8  and  C_9
REMARK    5  A    between atoms: C_9  and  C_11
REMARK    6  A    between atoms: C_12  and  C_17
REMARK    7  A    between atoms: C_14  and  C_16
REMARK                            x       y       z     vdW  Elec       q    Type
REMARK                         _______ _______ _______ _____ _____    ______ ____
ROOT
ATOM      1  C   UNL     1     103.889 126.960  80.845  0.00  0.00    +0.000 C 
ATOM      2  O   UNL     1     103.472 127.632  79.903  0.00  0.00    +0.000 OA
ENDROOT
BRANCH   1   3
ATOM      3  C   UNL     1     104.592 125.679  80.612  0.00  0.00    +0.000 A 
ATOM      4  C   UNL     1     105.887 125.589  80.110  0.00  0.00    +0.000 A 
ATOM      5  S   UNL     1     106.409 123.966  79.940  0.00  0.00    +0.000 S 
ATOM      6  C   UNL     1     104.938 123.348  80.536  0.00  0.00    +0.000 A 
ATOM      7  C   UNL     1     104.063 124.362  80.861  0.00  0.00    +0.000 A 
ATOM      8  C   UNL     1     104.721 121.878  80.648  0.00  0.00    +0.000 C 
ATOM      9  C   UNL     1     106.824 126.690  79.722  0.00  0.00    +0.000 C 
ENDBRANCH   1   3
BRANCH   1  10
ATOM     10  C   UNL     1     103.722 127.408  82.296  0.00  0.00    +0.000 C 
BRANCH  10  14
ATOM     11  C   UNL     1      98.638 126.610  82.526  0.00  0.00    +0.000 C 
ATOM     12  C   UNL     1      99.982 127.213  82.757  0.00  0.00    +0.000 A 
ATOM     13  C   UNL     1     101.200 126.811  82.257  0.00  0.00    +0.000 A 
ATOM     14  C   UNL     1     102.291 127.632  82.707  0.00  0.00    +0.000 A 
ATOM     15  C   UNL     1     101.837 128.637  83.548  0.00  0.00    +0.000 A 
ATOM     16  S   UNL     1     100.139 128.582  83.762  0.00  0.00    +0.000 S 
ATOM     17  C   UNL     1     102.609 129.699  84.262  0.00  0.00    +0.000 C 
ENDBRANCH  10  14
ENDBRANCH   1  10
TORSDOF 3
ENDMDL
