REMARK  Name = *****
REMARK  3 active torsions:
REMARK  status: ('A' for Active; 'I' for Inactive)
REMARK    1  A    between atoms: C_3  and  C_7
REMARK    2  A    between atoms: C_7  and  C_8
REMARK    3  A    between atoms: C_8  and  C_9
REMARK                            x       y       z     vdW  Elec       q    Type
REMARK                         _______ _______ _______ _____ _____    ______ ____
ROOT
ATOM      1  C   UNL     1       1.397  -2.489  -0.095  0.00  0.00    +0.000 C 
ATOM      2 CL   UNL     1       0.800  -3.575  -1.470  0.00  0.00    +0.000 Cl
ATOM      3 CL   UNL     1       3.187  -2.232  -0.485  0.00  0.00    +0.000 Cl
ENDROOT
BRANCH   1   6
ATOM      4  C   UNL     1      -0.810   0.666   0.374  0.00  0.00    +0.000 A 
ATOM      5  C   UNL     1      -0.199  -0.562   0.637  0.00  0.00    +0.000 A 
ATOM      6  C   UNL     1       0.681  -1.142  -0.290  0.00  0.00    +0.000 A 
ATOM      7  C   UNL     1       0.868  -0.409  -1.470  0.00  0.00    +0.000 A 
ATOM      8  N   UNL     1       0.294   0.786  -1.749  0.00  0.00    +0.000 NA
ATOM      9  C   UNL     1      -0.535   1.297  -0.822  0.00  0.00    +0.000 A 
ENDBRANCH   1   6
BRANCH   1  10
ATOM     10  C   UNL     1       1.262  -3.253   1.301  0.00  0.00    +0.000 C 
ATOM     11 CL   UNL     1      -0.494  -3.784   1.542  0.00  0.00    +0.000 Cl
ATOM     12 CL   UNL     1       2.199  -4.848   1.243  0.00  0.00    +0.000 Cl
BRANCH  10  13
ATOM     13  C   UNL     1       1.717  -2.552   2.593  0.00  0.00    +0.000 A 
ATOM     14  C   UNL     1       1.508  -3.163   3.837  0.00  0.00    +0.000 A 
ATOM     15  N   UNL     1       1.861  -2.639   5.035  0.00  0.00    +0.000 NA
ATOM     16  C   UNL     1       2.479  -1.445   5.023  0.00  0.00    +0.000 A 
ATOM     17  C   UNL     1       2.754  -0.751   3.862  0.00  0.00    +0.000 A 
ATOM     18  C   UNL     1       2.371  -1.311   2.641  0.00  0.00    +0.000 A 
ENDBRANCH  10  13
ENDBRANCH   1  10
TORSDOF 3
