MODEL 1
REMARK VINA RESULT:      -4.3      0.000      0.000
REMARK  Name = *****
REMARK  3 active torsions:
REMARK  status: ('A' for Active; 'I' for Inactive)
REMARK    1  A    between atoms: C_7  and  C_8
REMARK    2  A    between atoms: C_8  and  O_10
REMARK    3  A    between atoms: O_10  and  C_11
REMARK                            x       y       z     vdW  Elec       q    Type
REMARK                         _______ _______ _______ _____ _____    ______ ____
ROOT
ATOM      1  C   UNL     1      95.822 117.532  80.991  0.00  0.00    +0.000 C 
ATOM      2  O   UNL     1      94.836 117.163  81.615  0.00  0.00    +0.000 OA
ENDROOT
BRANCH   1   9
ATOM      3  C   UNL     1      97.477 120.791  81.492  0.00  0.00    +0.000 C 
ATOM      4  C   UNL     1      96.462 120.141  82.442  0.00  0.00    +0.000 C 
ATOM      5  C   UNL     1      97.139 118.809  82.819  0.00  0.00    +0.000 C 
ATOM      6  C   UNL     1      98.608 119.234  82.891  0.00  0.00    +0.000 C 
ATOM      7  C   UNL     1      98.620 119.764  81.459  0.00  0.00    +0.000 C 
ATOM      8  C   UNL     1      98.156 118.535  80.655  0.00  0.00    +0.000 C 
ATOM      9  C   UNL     1      97.169 117.839  81.614  0.00  0.00    +0.000 C 
ENDBRANCH   1   9
BRANCH   1  10
ATOM     10  O   UNL     1      95.840 117.810  79.657  0.00  0.00    +0.000 OA
BRANCH  10  11
ATOM     11  C   UNL     1      95.442 116.733  78.798  0.00  0.00    +0.000 C 
ATOM     12  C   UNL     1      95.777 117.056  77.328  0.00  0.00    +0.000 C 
ATOM     13  C   UNL     1      96.803 115.968  76.961  0.00  0.00    +0.000 C 
ATOM     14  C   UNL     1      96.086 114.609  76.881  0.00  0.00    +0.000 C 
ATOM     15  C   UNL     1      95.779 114.292  78.352  0.00  0.00    +0.000 C 
ATOM     16  C   UNL     1      96.344 115.515  79.092  0.00  0.00    +0.000 C 
ATOM     17  C   UNL     1      97.592 115.829  78.262  0.00  0.00    +0.000 C 
ENDBRANCH  10  11
ENDBRANCH   1  10
TORSDOF 3
ENDMDL
