MODEL 1
REMARK VINA RESULT:      -4.2      0.000      0.000
REMARK  Name = *****
REMARK  5 active torsions:
REMARK  status: ('A' for Active; 'I' for Inactive)
REMARK    1  A    between atoms: C_1  and  S_2
REMARK    2  A    between atoms: S_2  and  C_3
REMARK    3  A    between atoms: C_3  and  C_13
REMARK    4  A    between atoms: C_4  and  C_5
REMARK    5  A    between atoms: C_4  and  C_7
REMARK                            x       y       z     vdW  Elec       q    Type
REMARK                         _______ _______ _______ _____ _____    ______ ____
ROOT
ATOM      1  C   UNL     1     102.065 128.015  83.169  0.00  0.00    +0.000 C 
ATOM      2  C   UNL     1     100.723 128.084  83.340  0.00  0.00    +0.000 C 
ENDROOT
BRANCH   2   3
ATOM      3  C   UNL     1     100.083 129.067  84.241  0.00  0.00    +0.000 A 
ATOM      4  C   UNL     1      99.727 130.340  83.770  0.00  0.00    +0.000 A 
ATOM      5  C   UNL     1      99.117 131.261  84.624  0.00  0.00    +0.000 A 
ATOM      6  C   UNL     1      98.856 130.918  85.950  0.00  0.00    +0.000 A 
ATOM      7  C   UNL     1      99.202 129.654  86.425  0.00  0.00    +0.000 A 
ATOM      8  C   UNL     1      99.813 128.730  85.575  0.00  0.00    +0.000 A 
ENDBRANCH   2   3
BRANCH   1   9
ATOM      9  C   UNL     1     102.697 127.043  82.252  0.00  0.00    +0.000 A 
ATOM     10  C   UNL     1     102.887 125.712  82.652  0.00  0.00    +0.000 A 
ATOM     11  C   UNL     1     103.500 124.797  81.795  0.00  0.00    +0.000 A 
ATOM     12  C   UNL     1     103.931 125.202  80.533  0.00  0.00    +0.000 A 
ATOM     13  C   UNL     1     103.750 126.523  80.126  0.00  0.00    +0.000 A 
ATOM     14  C   UNL     1     103.137 127.442  80.981  0.00  0.00    +0.000 A 
ENDBRANCH   1   9
BRANCH   1  16
ATOM     15  C   UNL     1     103.562 128.132  85.446  0.00  0.00    +0.000 C 
ATOM     16  S   UNL     1     103.212 129.082  83.949  0.00  0.00    +0.000 S 
ENDBRANCH   1  16
BRANCH   2  17
ATOM     17  C   UNL     1      99.839 127.190  82.654  0.00  0.00    +0.000 C 
ATOM     18  N   UNL     1      99.111 126.483  82.091  0.00  0.00    +0.000 NA
ENDBRANCH   2  17
TORSDOF 4
ENDMDL
