MODEL 1
REMARK VINA RESULT:      -4.8      0.000      0.000
REMARK  Name = *****
REMARK  0 active torsions:
REMARK  status: ('A' for Active; 'I' for Inactive)
REMARK                            x       y       z     vdW  Elec       q    Type
REMARK                         _______ _______ _______ _____ _____    ______ ____
ROOT
ATOM      1  C   UNL     1      90.412  65.487  84.288  0.00  0.00    +0.000 C 
ATOM      2  C   UNL     1      90.833  65.984  85.667  0.00  0.00    +0.000 C 
ATOM      3  C   UNL     1      89.815  66.938  86.274  0.00  0.00    +0.000 C 
ATOM      4  C   UNL     1      88.673  66.295  87.060  0.00  0.00    +0.000 C 
ATOM      5  C   UNL     1      88.089  64.963  86.547  0.00  0.00    +0.000 C 
ATOM      6  C   UNL     1      88.000  64.893  85.010  0.00  0.00    +0.000 C 
ATOM      7  C   UNL     1      89.278  64.472  84.282  0.00  0.00    +0.000 C 
ATOM      8  O   UNL     1      86.721  64.830  87.003  0.00  0.00    +0.000 OA
ATOM      9  O   UNL     1      86.724  64.805  88.468  0.00  0.00    +0.000 OA
ATOM     10  C   UNL     1      87.471  63.653  88.901  0.00  0.00    +0.000 C 
ATOM     11  C   UNL     1      87.562  63.734  90.439  0.00  0.00    +0.000 C 
ATOM     12  C   UNL     1      86.224  63.870  91.164  0.00  0.00    +0.000 C 
ATOM     13  C   UNL     1      85.515  62.557  91.475  0.00  0.00    +0.000 C 
ATOM     14  C   UNL     1      85.537  61.478  90.399  0.00  0.00    +0.000 C 
ATOM     15  C   UNL     1      85.476  61.987  88.963  0.00  0.00    +0.000 C 
ATOM     16  C   UNL     1      86.859  62.331  88.408  0.00  0.00    +0.000 C 
ATOM     17  O   UNL     1      88.838  63.771  88.448  0.00  0.00    +0.000 OA
ATOM     18  O   UNL     1      88.840  63.813  86.982  0.00  0.00    +0.000 OA
ENDROOT
TORSDOF 0
ENDMDL
