MODEL 1
REMARK VINA RESULT:      -4.0      0.000      0.000
REMARK  Name = *****
REMARK  3 active torsions:
REMARK  status: ('A' for Active; 'I' for Inactive)
REMARK    1  A    between atoms: C_4  and  C_6
REMARK    2  A    between atoms: C_6  and  O_8
REMARK    3  A    between atoms: O_8  and  C_9
REMARK                            x       y       z     vdW  Elec       q    Type
REMARK                         _______ _______ _______ _____ _____    ______ ____
ROOT
ATOM      1  O   UNL     1     101.887 126.843  83.318  0.00  0.00    +0.000 OA
ENDROOT
BRANCH   1   2
ATOM      2  C   UNL     1     102.692 126.386  82.270  0.00  0.00    +0.000 A 
ATOM      3  C   UNL     1     103.083 127.255  81.252  0.00  0.00    +0.000 A 
ATOM      4  C   UNL     1     103.930 126.786  80.246  0.00  0.00    +0.000 A 
ATOM      5  C   UNL     1     104.386 125.466  80.282  0.00  0.00    +0.000 A 
ATOM      6  C   UNL     1     104.006 124.610  81.318  0.00  0.00    +0.000 A 
ATOM      7  C   UNL     1     103.158 125.074  82.325  0.00  0.00    +0.000 A 
ATOM      8 CL   UNL     1     105.433 124.892  79.043  0.00  0.00    +0.000 Cl
ENDBRANCH   1   2
BRANCH   1   9
ATOM      9  C   UNL     1     100.611 127.258  82.932  0.00  0.00    +0.000 C 
ATOM     10  O   UNL     1      99.825 126.587  82.272  0.00  0.00    +0.000 OA
BRANCH   9  14
ATOM     11  C   UNL     1      99.435 130.680  83.950  0.00  0.00    +0.000 A 
ATOM     12  C   UNL     1     100.650 130.773  84.589  0.00  0.00    +0.000 A 
ATOM     13  S   UNL     1     101.589 129.359  84.391  0.00  0.00    +0.000 S 
ATOM     14  C   UNL     1     100.377 128.600  83.441  0.00  0.00    +0.000 A 
ATOM     15  C   UNL     1      99.277 129.427  83.287  0.00  0.00    +0.000 A 
ENDBRANCH   9  14
ENDBRANCH   1   9
TORSDOF 3
ENDMDL
