MODEL 1
REMARK VINA RESULT:      -4.6      0.000      0.000
REMARK  Name = *****
REMARK  3 active torsions:
REMARK  status: ('A' for Active; 'I' for Inactive)
REMARK    1  A    between atoms: C_6  and  C_8
REMARK    2  A    between atoms: C_8  and  C_9
REMARK    3  A    between atoms: C_9  and  C_10
REMARK                            x       y       z     vdW  Elec       q    Type
REMARK                         _______ _______ _______ _____ _____    ______ ____
ROOT
ATOM      1  C   UNL     1     103.075 126.393  81.329  0.00  0.00    +0.000 C 
ENDROOT
BRANCH   1   7
ATOM      2  C   UNL     1     106.431 124.549  77.856  0.00  0.00    +0.000 C 
ATOM      3  C   UNL     1     105.998 124.541  79.125  0.00  0.00    +0.000 C 
ATOM      4  C   UNL     1     106.121 123.339  80.021  0.00  0.00    +0.000 C 
ATOM      5  C   UNL     1     104.777 122.921  80.611  0.00  0.00    +0.000 C 
ATOM      6  C   UNL     1     104.099 124.046  81.398  0.00  0.00    +0.000 C 
ATOM      7  C   UNL     1     103.777 125.277  80.535  0.00  0.00    +0.000 C 
ATOM      8  S   UNL     1     105.302 125.983  79.800  0.00  0.00    +0.000 S 
ENDBRANCH   1   7
BRANCH   1   9
ATOM      9  C   UNL     1     102.075 125.854  82.360  0.00  0.00    +0.000 C 
BRANCH   9  10
ATOM     10  C   UNL     1     101.007 126.870  82.682  0.00  0.00    +0.000 A 
ATOM     11  C   UNL     1      99.670 126.630  82.339  0.00  0.00    +0.000 A 
ATOM     12  C   UNL     1      98.685 127.579  82.622  0.00  0.00    +0.000 A 
ATOM     13  C   UNL     1      99.029 128.777  83.247  0.00  0.00    +0.000 A 
ATOM     14  C   UNL     1     100.358 129.028  83.585  0.00  0.00    +0.000 A 
ATOM     15  C   UNL     1     101.343 128.082  83.302  0.00  0.00    +0.000 A 
ENDBRANCH   9  10
ENDBRANCH   1   9
TORSDOF 3
ENDMDL
