MODEL 1
REMARK VINA RESULT:      -5.2      0.000      0.000
REMARK  Name = *****
REMARK  2 active torsions:
REMARK  status: ('A' for Active; 'I' for Inactive)
REMARK    1  A    between atoms: C_4  and  C_7
REMARK    2  A    between atoms: C_7  and  C_8
REMARK                            x       y       z     vdW  Elec       q    Type
REMARK                         _______ _______ _______ _____ _____    ______ ____
ROOT
ATOM      1  C   UNL     1     100.670 127.054  82.992  0.00  0.00    +0.000 C 
ATOM      2  C   UNL     1      99.313 126.918  82.487  0.00  0.00    +0.000 C 
ATOM      3  C   UNL     1      98.628 128.053  82.703  0.00  0.00    +0.000 C 
ATOM      4  C   UNL     1      99.526 128.998  83.366  0.00  0.00    +0.000 C 
ATOM      5  C   UNL     1      99.275 130.293  83.784  0.00  0.00    +0.000 C 
ATOM      6  C   UNL     1     100.313 130.999  84.400  0.00  0.00    +0.000 C 
ATOM      7  C   UNL     1     101.574 130.406  84.586  0.00  0.00    +0.000 C 
ATOM      8  C   UNL     1     101.820 129.097  84.160  0.00  0.00    +0.000 C 
ATOM      9  C   UNL     1     100.787 128.406  83.551  0.00  0.00    +0.000 C 
ENDROOT
BRANCH   1  10
ATOM     10  C   UNL     1     101.655 126.145  82.959  0.00  0.00    +0.000 C 
BRANCH  10  14
ATOM     11  C   UNL     1     104.685 125.912  79.965  0.00  0.00    +0.000 A 
ATOM     12  C   UNL     1     104.383 124.798  80.748  0.00  0.00    +0.000 A 
ATOM     13  C   UNL     1     103.393 124.880  81.729  0.00  0.00    +0.000 A 
ATOM     14  C   UNL     1     102.702 126.079  81.935  0.00  0.00    +0.000 A 
ATOM     15  C   UNL     1     103.004 127.191  81.141  0.00  0.00    +0.000 A 
ATOM     16  C   UNL     1     103.995 127.108  80.161  0.00  0.00    +0.000 A 
ENDBRANCH  10  14
ENDBRANCH   1  10
TORSDOF 2
ENDMDL
