REMARK  Name = *****
REMARK  4 active torsions:
REMARK  status: ('A' for Active; 'I' for Inactive)
REMARK    1  A    between atoms: C_4  and  O_7
REMARK    2  A    between atoms: O_7  and  C_8
REMARK    3  A    between atoms: C_8  and  S_10
REMARK    4  A    between atoms: S_10  and  C_11
REMARK                            x       y       z     vdW  Elec       q    Type
REMARK                         _______ _______ _______ _____ _____    ______ ____
ROOT
ATOM      1  C   UNL     1      -3.900  -0.235  -0.051  0.00  0.00    +0.000 C 
ATOM      2  O   UNL     1      -3.757  -0.853   0.997  0.00  0.00    +0.000 OA
ENDROOT
BRANCH   1   3
ATOM      3  O   UNL     1      -2.883   0.361  -0.789  0.00  0.00    +0.000 OA
BRANCH   3   7
ATOM      4  C   UNL     1       0.972  -0.143   0.711  0.00  0.00    +0.000 A 
ATOM      5  C   UNL     1       0.349  -1.197   0.039  0.00  0.00    +0.000 A 
ATOM      6  C   UNL     1      -0.945  -1.043  -0.456  0.00  0.00    +0.000 A 
ATOM      7  C   UNL     1      -1.608   0.168  -0.256  0.00  0.00    +0.000 A 
ATOM      8  C   UNL     1      -0.990   1.234   0.394  0.00  0.00    +0.000 A 
ATOM      9  C   UNL     1       0.304   1.072   0.886  0.00  0.00    +0.000 A 
ENDBRANCH   3   7
ENDBRANCH   1   3
BRANCH   1  10
ATOM     10  S   UNL     1      -5.511  -0.046  -0.751  0.00  0.00    +0.000 S 
BRANCH  10  11
ATOM     11  C   UNL     1      -5.545  -1.496  -1.785  0.00  0.00    +0.000 A 
ATOM     12  C   UNL     1      -5.507  -2.780  -1.228  0.00  0.00    +0.000 A 
ATOM     13  C   UNL     1      -5.541  -3.908  -2.053  0.00  0.00    +0.000 A 
ATOM     14  C   UNL     1      -5.620  -3.753  -3.435  0.00  0.00    +0.000 A 
ATOM     15  C   UNL     1      -5.668  -2.479  -4.000  0.00  0.00    +0.000 A 
ATOM     16  C   UNL     1      -5.634  -1.352  -3.174  0.00  0.00    +0.000 A 
ATOM     17 CL   UNL     1      -5.661  -5.140  -4.451  0.00  0.00    +0.000 Cl
ENDBRANCH  10  11
ENDBRANCH   1  10
TORSDOF 4
