MODEL 1
REMARK VINA RESULT:      -4.5      0.000      0.000
REMARK  Name = *****
REMARK  4 active torsions:
REMARK  status: ('A' for Active; 'I' for Inactive)
REMARK    1  A    between atoms: C_1  and  C_2
REMARK    2  A    between atoms: C_4  and  C_16
REMARK    3  A    between atoms: C_5  and  N_9
REMARK    4  A    between atoms: C_6  and  C_8
REMARK                            x       y       z     vdW  Elec       q    Type
REMARK                         _______ _______ _______ _____ _____    ______ ____
ROOT
ATOM      1  C   UNL     1     105.100 122.658  80.453  0.00  0.00    +0.000 C 
ATOM      2  C   UNL     1     104.442 123.868  81.048  0.00  0.00    +0.000 A 
ATOM      3  C   UNL     1     104.222 125.017  80.286  0.00  0.00    +0.000 A 
ATOM      4  C   UNL     1     103.664 126.175  80.860  0.00  0.00    +0.000 A 
ATOM      5  C   UNL     1     103.274 126.163  82.217  0.00  0.00    +0.000 A 
ATOM      6  C   UNL     1     103.486 125.001  82.985  0.00  0.00    +0.000 A 
ATOM      7  C   UNL     1     104.079 123.870  82.397  0.00  0.00    +0.000 A 
ATOM      8  C   UNL     1     103.177 124.963  84.458  0.00  0.00    +0.000 C 
ATOM      9  C   UNL     1     103.482 127.386  79.987  0.00  0.00    +0.000 C 
ENDROOT
BRANCH   5  10
ATOM     10  N   UNL     1     102.761 127.309  82.856  0.00  0.00    +0.000 NA
ATOM     11  C   UNL     1     101.480 127.485  82.838  0.00  0.00    +0.000 C 
ATOM     12  N   UNL     1     100.922 128.608  83.458  0.00  0.00    +0.000 N 
ATOM     13  C   UNL     1     101.575 129.538  84.243  0.00  0.00    +0.000 A 
ATOM     14  C   UNL     1     100.669 130.486  84.661  0.00  0.00    +0.000 A 
ATOM     15  C   UNL     1      99.416 130.141  84.107  0.00  0.00    +0.000 A 
ATOM     16  C   UNL     1      99.593 128.980  83.384  0.00  0.00    +0.000 A 
ENDBRANCH   5  10
TORSDOF 1
ENDMDL
