MODEL 1
REMARK VINA RESULT:      -4.6      0.000      0.000
REMARK  Name = *****
REMARK  3 active torsions:
REMARK  status: ('A' for Active; 'I' for Inactive)
REMARK    1  A    between atoms: C_4  and  C_7
REMARK    2  A    between atoms: C_8  and  S_10
REMARK    3  A    between atoms: S_10  and  C_11
REMARK                            x       y       z     vdW  Elec       q    Type
REMARK                         _______ _______ _______ _____ _____    ______ ____
ROOT
ATOM      1  C   UNL     1      99.004 127.886  82.942  0.00  0.00    +0.000 C 
ATOM      2  C   UNL     1      99.998 127.010  82.735  0.00  0.00    +0.000 C 
ATOM      3  F   UNL     1      99.765 126.037  81.823  0.00  0.00    +0.000 F 
ENDROOT
BRANCH   1   7
ATOM      4  C   UNL     1      98.949 131.258  85.556  0.00  0.00    +0.000 A 
ATOM      5  C   UNL     1      99.465 131.374  84.266  0.00  0.00    +0.000 A 
ATOM      6  C   UNL     1      99.485 130.266  83.418  0.00  0.00    +0.000 A 
ATOM      7  C   UNL     1      98.995 129.031  83.858  0.00  0.00    +0.000 A 
ATOM      8  C   UNL     1      98.469 128.924  85.151  0.00  0.00    +0.000 A 
ATOM      9  C   UNL     1      98.450 130.034  85.998  0.00  0.00    +0.000 A 
ENDBRANCH   1   7
BRANCH   2  10
ATOM     10  S   UNL     1     101.541 127.069  83.522  0.00  0.00    +0.000 S 
BRANCH  10  11
ATOM     11  C   UNL     1     102.584 126.473  82.208  0.00  0.00    +0.000 A 
ATOM     12  C   UNL     1     103.038 125.150  82.205  0.00  0.00    +0.000 A 
ATOM     13  C   UNL     1     103.871 124.692  81.181  0.00  0.00    +0.000 A 
ATOM     14  C   UNL     1     104.260 125.557  80.160  0.00  0.00    +0.000 A 
ATOM     15  C   UNL     1     103.818 126.880  80.161  0.00  0.00    +0.000 A 
ATOM     16  C   UNL     1     102.985 127.339  81.184  0.00  0.00    +0.000 A 
ENDBRANCH  10  11
ENDBRANCH   2  10
TORSDOF 3
ENDMDL
