MODEL 1
REMARK VINA RESULT:      -5.3      0.000      0.000
REMARK  Name = *****
REMARK  4 active torsions:
REMARK  status: ('A' for Active; 'I' for Inactive)
REMARK    1  A    between atoms: C_4  and  C_7
REMARK    2  A    between atoms: C_7  and  C_8
REMARK    3  A    between atoms: C_8  and  C_10
REMARK    4  A    between atoms: C_12  and  C_16
REMARK                            x       y       z     vdW  Elec       q    Type
REMARK                         _______ _______ _______ _____ _____    ______ ____
ROOT
ATOM      1  C   UNL     1     103.994 125.260  80.831  0.00  0.00    +0.000 A 
ATOM      2  C   UNL     1     104.031 123.946  81.315  0.00  0.00    +0.000 A 
ATOM      3  C   UNL     1     104.923 123.002  80.772  0.00  0.00    +0.000 A 
ATOM      4  C   UNL     1     105.768 123.389  79.721  0.00  0.00    +0.000 A 
ATOM      5  C   UNL     1     105.738 124.694  79.234  0.00  0.00    +0.000 A 
ATOM      6  C   UNL     1     104.857 125.624  79.788  0.00  0.00    +0.000 A 
ENDROOT
BRANCH   3   7
ATOM      7  C   UNL     1     104.956 121.582  81.284  0.00  0.00    +0.000 C 
ATOM      8  F   UNL     1     106.142 120.953  81.053  0.00  0.00    +0.000 F 
ATOM      9  F   UNL     1     104.755 121.517  82.629  0.00  0.00    +0.000 F 
ATOM     10  F   UNL     1     103.999 120.794  80.722  0.00  0.00    +0.000 F 
ENDBRANCH   3   7
BRANCH   1  11
ATOM     11  C   UNL     1     103.070 126.305  81.376  0.00  0.00    +0.000 C 
ATOM     12  O   UNL     1     103.042 127.416  80.844  0.00  0.00    +0.000 OA
BRANCH  11  13
ATOM     13  C   UNL     1     102.179 125.989  82.564  0.00  0.00    +0.000 C 
BRANCH  13  17
ATOM     14  C   UNL     1      98.985 128.812  83.238  0.00  0.00    +0.000 A 
ATOM     15  C   UNL     1      98.722 127.609  82.586  0.00  0.00    +0.000 A 
ATOM     16  C   UNL     1      99.753 126.694  82.364  0.00  0.00    +0.000 A 
ATOM     17  C   UNL     1     101.061 126.980  82.780  0.00  0.00    +0.000 A 
ATOM     18  C   UNL     1     101.307 128.183  83.455  0.00  0.00    +0.000 A 
ATOM     19  C   UNL     1     100.276 129.098  83.676  0.00  0.00    +0.000 A 
ENDBRANCH  13  17
ENDBRANCH  11  13
ENDBRANCH   1  11
TORSDOF 4
ENDMDL
