MODEL 1
REMARK VINA RESULT:      -5.3      0.000      0.000
REMARK  Name = *****
REMARK  2 active torsions:
REMARK  status: ('A' for Active; 'I' for Inactive)
REMARK    1  A    between atoms: C_1  and  C_2
REMARK    2  A    between atoms: C_9  and  C_11
REMARK                            x       y       z     vdW  Elec       q    Type
REMARK                         _______ _______ _______ _____ _____    ______ ____
ROOT
ATOM      1  C   UNL     1      99.394 130.779  84.355  0.00  0.00    +0.000 C 
ATOM      2  C   UNL     1      99.820 129.484  83.725  0.00  0.00    +0.000 A 
ATOM      3  C   UNL     1     101.168 129.082  83.792  0.00  0.00    +0.000 A 
ATOM      4  C   UNL     1     101.530 127.854  83.222  0.00  0.00    +0.000 A 
ATOM      5  C   UNL     1     100.552 127.077  82.627  0.00  0.00    +0.000 A 
ATOM      6  C   UNL     1      99.209 127.420  82.546  0.00  0.00    +0.000 A 
ATOM      7  C   UNL     1      98.861 128.650  83.119  0.00  0.00    +0.000 A 
ATOM      8  O   UNL     1     101.148 125.946  82.155  0.00  0.00    +0.000 OA
ATOM      9  C   UNL     1     102.468 126.097  82.492  0.00  0.00    +0.000 A 
ATOM     10  N   UNL     1     102.744 127.221  83.135  0.00  0.00    +0.000 NA
ENDROOT
BRANCH   9  11
ATOM     11  C   UNL     1     103.384 125.024  82.116  0.00  0.00    +0.000 A 
ATOM     12  C   UNL     1     103.800 124.801  80.795  0.00  0.00    +0.000 A 
ATOM     13  C   UNL     1     104.676 123.766  80.473  0.00  0.00    +0.000 A 
ATOM     14  C   UNL     1     105.148 122.939  81.480  0.00  0.00    +0.000 A 
ATOM     15  C   UNL     1     104.758 123.127  82.800  0.00  0.00    +0.000 A 
ATOM     16  C   UNL     1     103.880 124.167  83.117  0.00  0.00    +0.000 A 
ATOM     17  F   UNL     1     105.989 121.942  81.177  0.00  0.00    +0.000 F 
ATOM     18  F   UNL     1     103.370 125.580  79.793  0.00  0.00    +0.000 F 
ENDBRANCH   9  11
TORSDOF 1
ENDMDL
