MODEL 1
REMARK VINA RESULT:      -4.5      0.000      0.000
REMARK  Name = *****
REMARK  3 active torsions:
REMARK  status: ('A' for Active; 'I' for Inactive)
REMARK    1  A    between atoms: C_5  and  C_8
REMARK    2  A    between atoms: C_8  and  C_9
REMARK    3  A    between atoms: C_9  and  C_10
REMARK                            x       y       z     vdW  Elec       q    Type
REMARK                         _______ _______ _______ _____ _____    ______ ____
ROOT
ATOM      1  C   UNL     1      89.995  64.853  85.686  0.00  0.00    +0.000 C 
ATOM      2  C   UNL     1      88.473  65.010  85.760  0.00  0.00    +0.000 C 
ATOM      3  C   UNL     1      87.907  65.657  87.031  0.00  0.00    +0.000 C 
ATOM      4  C   UNL     1      88.064  67.177  87.143  0.00  0.00    +0.000 C 
ATOM      5  C   UNL     1      89.262  67.798  86.420  0.00  0.00    +0.000 C 
ATOM      6  O   UNL     1      90.449  67.052  86.675  0.00  0.00    +0.000 OA
ATOM      7  C   UNL     1      90.784  66.152  85.626  0.00  0.00    +0.000 C 
ATOM      8 CL   UNL     1      88.521  64.845  88.510  0.00  0.00    +0.000 Cl
ENDROOT
BRANCH   5   9
ATOM      9  C   UNL     1      89.485  69.237  86.908  0.00  0.00    +0.000 C 
BRANCH   9  10
ATOM     10  C   UNL     1      88.863  70.265  85.956  0.00  0.00    +0.000 C 
BRANCH  10  11
ATOM     11  C   UNL     1      87.585  70.839  86.518  0.00  0.00    +0.000 A 
ATOM     12  C   UNL     1      86.612  71.371  85.661  0.00  0.00    +0.000 A 
ATOM     13  C   UNL     1      85.438  71.919  86.178  0.00  0.00    +0.000 A 
ATOM     14  C   UNL     1      85.227  71.945  87.555  0.00  0.00    +0.000 A 
ATOM     15  C   UNL     1      86.190  71.424  88.416  0.00  0.00    +0.000 A 
ATOM     16  C   UNL     1      87.366  70.876  87.902  0.00  0.00    +0.000 A 
ENDBRANCH  10  11
ENDBRANCH   9  10
ENDBRANCH   5   9
TORSDOF 3
ENDMDL
