MODEL 1
REMARK VINA RESULT:      -4.8      0.000      0.000
REMARK  Name = *****
REMARK  4 active torsions:
REMARK  status: ('A' for Active; 'I' for Inactive)
REMARK    1  A    between atoms: C_1  and  C_2
REMARK    2  A    between atoms: C_5  and  C_8
REMARK    3  A    between atoms: C_8  and  C_9
REMARK    4  A    between atoms: C_9  and  C_11
REMARK                            x       y       z     vdW  Elec       q    Type
REMARK                         _______ _______ _______ _____ _____    ______ ____
ROOT
ATOM      1  C   UNL     1      87.620  69.796  87.853  0.00  0.00    +0.000 C 
ATOM      2  O   UNL     1      86.877  68.853  87.598  0.00  0.00    +0.000 OA
ENDROOT
BRANCH   1   3
ATOM      3  C   UNL     1      89.072  69.709  87.569  0.00  0.00    +0.000 C 
ATOM      4  C   UNL     1      89.808  70.542  86.534  0.00  0.00    +0.000 C 
ATOM      5  C   UNL     1      89.630  69.064  86.320  0.00  0.00    +0.000 C 
ATOM      6  C   UNL     1      88.966  68.970  84.948  0.00  0.00    +0.000 C 
ATOM      7  C   UNL     1      90.061  69.307  83.907  0.00  0.00    +0.000 C 
ATOM      8  C   UNL     1      90.269  70.828  84.121  0.00  0.00    +0.000 C 
ATOM      9  C   UNL     1      89.256  71.156  85.248  0.00  0.00    +0.000 C 
ATOM     10  C   UNL     1      88.105  70.235  84.836  0.00  0.00    +0.000 C 
ENDBRANCH   1   3
BRANCH   1  11
ATOM     11  C   UNL     1      87.161  71.045  88.573  0.00  0.00    +0.000 C 
BRANCH  11  16
ATOM     12  C   UNL     1      82.346  73.380  86.266  0.00  0.00    +0.000 C 
ATOM     13  C   UNL     1      83.568  72.742  86.856  0.00  0.00    +0.000 A 
ATOM     14  C   UNL     1      84.621  72.328  86.031  0.00  0.00    +0.000 A 
ATOM     15  C   UNL     1      85.779  71.772  86.582  0.00  0.00    +0.000 A 
ATOM     16  C   UNL     1      85.909  71.630  87.969  0.00  0.00    +0.000 A 
ATOM     17  C   UNL     1      84.853  72.046  88.792  0.00  0.00    +0.000 A 
ATOM     18  C   UNL     1      83.699  72.606  88.242  0.00  0.00    +0.000 A 
ENDBRANCH  11  16
ENDBRANCH   1  11
TORSDOF 3
ENDMDL
