MODEL 1
REMARK VINA RESULT:      -4.5      0.000      0.000
REMARK  Name = *****
REMARK  5 active torsions:
REMARK  status: ('A' for Active; 'I' for Inactive)
REMARK    1  A    between atoms: C_1  and  C_2
REMARK    2  A    between atoms: C_4  and  C_17
REMARK    3  A    between atoms: C_5  and  C_8
REMARK    4  A    between atoms: C_8  and  O_10
REMARK    5  A    between atoms: O_10  and  C_11
REMARK                            x       y       z     vdW  Elec       q    Type
REMARK                         _______ _______ _______ _____ _____    ______ ____
ROOT
ATOM      1  C   UNL     1      88.566  70.481  85.704  0.00  0.00    +0.000 C 
ATOM      2  O   UNL     1      89.667  71.006  85.736  0.00  0.00    +0.000 OA
ENDROOT
BRANCH   1   7
ATOM      3  C   UNL     1      83.752  72.549  88.204  0.00  0.00    +0.000 C 
ATOM      4  C   UNL     1      85.016  72.048  87.568  0.00  0.00    +0.000 A 
ATOM      5  C   UNL     1      86.021  71.464  88.351  0.00  0.00    +0.000 A 
ATOM      6  C   UNL     1      87.202  70.963  87.772  0.00  0.00    +0.000 A 
ATOM      7  C   UNL     1      87.354  71.032  86.373  0.00  0.00    +0.000 A 
ATOM      8  C   UNL     1      86.336  71.598  85.588  0.00  0.00    +0.000 A 
ATOM      9  C   UNL     1      85.176  72.100  86.181  0.00  0.00    +0.000 A 
ATOM     10  C   UNL     1      88.245  70.353  88.668  0.00  0.00    +0.000 C 
ENDBRANCH   1   7
BRANCH   1  11
ATOM     11  O   UNL     1      88.201  69.327  85.033  0.00  0.00    +0.000 OA
BRANCH  11  12
ATOM     12  C   UNL     1      88.500  68.159  85.737  0.00  0.00    +0.000 A 
ATOM     13  C   UNL     1      87.462  67.472  86.363  0.00  0.00    +0.000 A 
ATOM     14  C   UNL     1      87.738  66.275  87.022  0.00  0.00    +0.000 A 
ATOM     15  C   UNL     1      89.042  65.771  87.038  0.00  0.00    +0.000 A 
ATOM     16  C   UNL     1      90.071  66.460  86.390  0.00  0.00    +0.000 A 
ATOM     17  C   UNL     1      89.800  67.657  85.728  0.00  0.00    +0.000 A 
ENDBRANCH  11  12
ENDBRANCH   1  11
TORSDOF 3
ENDMDL
