MODEL 1
REMARK VINA RESULT:      -4.2      0.000      0.000
REMARK  Name = *****
REMARK  2 active torsions:
REMARK  status: ('A' for Active; 'I' for Inactive)
REMARK    1  A    between atoms: C_4  and  C_7
REMARK    2  A    between atoms: C_8  and  C_9
REMARK                            x       y       z     vdW  Elec       q    Type
REMARK                         _______ _______ _______ _____ _____    ______ ____
ROOT
ATOM      1  C   UNL     1      87.569  63.815  86.933  0.00  0.00    +0.000 C 
ATOM      2  C   UNL     1      87.385  63.104  88.056  0.00  0.00    +0.000 C 
ATOM      3  F   UNL     1      86.866  61.860  87.948  0.00  0.00    +0.000 F 
ENDROOT
BRANCH   1   7
ATOM      4  C   UNL     1      89.187  67.753  86.783  0.00  0.00    +0.000 A 
ATOM      5  C   UNL     1      89.961  66.666  86.378  0.00  0.00    +0.000 A 
ATOM      6  C   UNL     1      89.431  65.375  86.424  0.00  0.00    +0.000 A 
ATOM      7  C   UNL     1      88.123  65.168  86.876  0.00  0.00    +0.000 A 
ATOM      8  C   UNL     1      87.351  66.262  87.281  0.00  0.00    +0.000 A 
ATOM      9  C   UNL     1      87.884  67.551  87.234  0.00  0.00    +0.000 A 
ENDBRANCH   1   7
BRANCH   2  10
ATOM     10  C   UNL     1      87.701  63.560  89.411  0.00  0.00    +0.000 A 
ATOM     11  C   UNL     1      89.026  63.567  89.863  0.00  0.00    +0.000 A 
ATOM     12  C   UNL     1      89.325  63.999  91.157  0.00  0.00    +0.000 A 
ATOM     13  C   UNL     1      88.303  64.427  92.003  0.00  0.00    +0.000 A 
ATOM     14  C   UNL     1      86.981  64.427  91.557  0.00  0.00    +0.000 A 
ATOM     15  C   UNL     1      86.680  63.997  90.264  0.00  0.00    +0.000 A 
ENDBRANCH   2  10
TORSDOF 2
ENDMDL
