MODEL 1
REMARK VINA RESULT:      -4.5      0.000      0.000
REMARK  Name = *****
REMARK  3 active torsions:
REMARK  status: ('A' for Active; 'I' for Inactive)
REMARK    1  A    between atoms: C_1  and  C_2
REMARK    2  A    between atoms: C_4  and  S_8
REMARK    3  A    between atoms: S_8  and  C_9
REMARK                            x       y       z     vdW  Elec       q    Type
REMARK                         _______ _______ _______ _____ _____    ______ ____
ROOT
ATOM      1  S   UNL     1     102.966 126.717  83.383  0.00  0.00    +0.000 S 
ENDROOT
BRANCH   1   5
ATOM      2  C   UNL     1      99.406 130.609  83.916  0.00  0.00    +0.000 C 
ATOM      3  C   UNL     1      99.719 129.206  83.487  0.00  0.00    +0.000 A 
ATOM      4  C   UNL     1     101.017 128.694  83.631  0.00  0.00    +0.000 A 
ATOM      5  C   UNL     1     101.325 127.396  83.208  0.00  0.00    +0.000 A 
ATOM      6  C   UNL     1     100.333 126.620  82.603  0.00  0.00    +0.000 A 
ATOM      7  C   UNL     1      99.043 127.126  82.440  0.00  0.00    +0.000 A 
ATOM      8  C   UNL     1      98.738 128.414  82.879  0.00  0.00    +0.000 A 
ENDBRANCH   1   5
BRANCH   1   9
ATOM      9  C   UNL     1     103.095 125.754  81.834  0.00  0.00    +0.000 C 
ATOM     10  C   UNL     1     103.509 126.587  80.580  0.00  0.00    +0.000 C 
ATOM     11  C   UNL     1     104.700 125.780  80.013  0.00  0.00    +0.000 C 
ATOM     12  C   UNL     1     104.305 124.345  80.372  0.00  0.00    +0.000 C 
ATOM     13  C   UNL     1     104.189 124.650  81.873  0.00  0.00    +0.000 C 
ATOM     14  C   UNL     1     105.559 125.263  82.079  0.00  0.00    +0.000 C 
ATOM     15  C   UNL     1     105.861 125.946  80.964  0.00  0.00    +0.000 C 
ENDBRANCH   1   9
TORSDOF 2
ENDMDL
