REMARK  Name = *****
REMARK  3 active torsions:
REMARK  status: ('A' for Active; 'I' for Inactive)
REMARK    1  A    between atoms: C_3  and  C_8
REMARK    2  A    between atoms: C_8  and  N_10
REMARK    3  A    between atoms: N_10  and  C_11
REMARK                            x       y       z     vdW  Elec       q    Type
REMARK                         _______ _______ _______ _____ _____    ______ ____
ROOT
ATOM      1  C   UNL     1      -2.251   2.233   0.672  0.00  0.00    +0.000 C 
ATOM      2  S   UNL     1      -3.775   1.842   1.249  0.00  0.00    +0.000 S 
ENDROOT
BRANCH   1   5
ATOM      3  C   UNL     1       0.824   0.034   0.696  0.00  0.00    +0.000 A 
ATOM      4  C   UNL     1      -0.090   1.036   1.025  0.00  0.00    +0.000 A 
ATOM      5  C   UNL     1      -1.300   1.137   0.321  0.00  0.00    +0.000 A 
ATOM      6  C   UNL     1      -1.593   0.245  -0.714  0.00  0.00    +0.000 A 
ATOM      7  C   UNL     1      -0.671  -0.746  -1.028  0.00  0.00    +0.000 A 
ATOM      8  C   UNL     1       0.531  -0.859  -0.335  0.00  0.00    +0.000 A 
ATOM      9  F   UNL     1      -0.940  -1.604  -2.020  0.00  0.00    +0.000 F 
ENDBRANCH   1   5
BRANCH   1  10
ATOM     10  N   UNL     1      -1.701   3.483   0.411  0.00  0.00    +0.000 N 
ATOM     11  H   UNL     1      -0.833   3.444  -0.052  0.00  0.00    +0.000 HD
BRANCH  10  12
ATOM     12  C   UNL     1      -2.143   4.800   0.679  0.00  0.00    +0.000 A 
ATOM     13  C   UNL     1      -3.199   5.146   1.521  0.00  0.00    +0.000 A 
ATOM     14  C   UNL     1      -3.540   6.490   1.729  0.00  0.00    +0.000 A 
ATOM     15  C   UNL     1      -2.819   7.498   1.100  0.00  0.00    +0.000 A 
ATOM     16  C   UNL     1      -1.752   7.176   0.270  0.00  0.00    +0.000 A 
ATOM     17  C   UNL     1      -1.415   5.833   0.066  0.00  0.00    +0.000 A 
ATOM     18 CL   UNL     1      -3.237   9.146   1.360  0.00  0.00    +0.000 Cl
ENDBRANCH  10  12
ENDBRANCH   1  10
TORSDOF 3
