MODEL 1
REMARK VINA RESULT:      -4.9      0.000      0.000
REMARK  Name = *****
REMARK  3 active torsions:
REMARK  status: ('A' for Active; 'I' for Inactive)
REMARK    1  A    between atoms: C_1  and  C_2
REMARK    2  A    between atoms: C_2  and  C_18
REMARK    3  A    between atoms: C_10  and  C_12
REMARK                            x       y       z     vdW  Elec       q    Type
REMARK                         _______ _______ _______ _____ _____    ______ ____
ROOT
ATOM      1  C   UNL     1     103.656 128.133  84.883  0.00  0.00    +0.000 C 
ATOM      2  C   UNL     1     103.195 127.802  83.455  0.00  0.00    +0.000 C 
ATOM      3  C   UNL     1     101.693 127.873  83.307  0.00  0.00    +0.000 A 
ATOM      4  C   UNL     1     100.926 128.950  83.785  0.00  0.00    +0.000 A 
ATOM      5  C   UNL     1      99.546 128.983  83.585  0.00  0.00    +0.000 A 
ATOM      6  C   UNL     1      98.920 127.949  82.897  0.00  0.00    +0.000 A 
ATOM      7  C   UNL     1      99.679 126.888  82.405  0.00  0.00    +0.000 A 
ATOM      8  C   UNL     1     101.061 126.846  82.605  0.00  0.00    +0.000 A 
ATOM      9  N   UNL     1     101.776 125.769  82.084  0.00  0.00    +0.000 NA
ATOM     10  C   UNL     1     103.013 125.622  82.422  0.00  0.00    +0.000 C 
ATOM     11  O   UNL     1     103.712 126.466  83.209  0.00  0.00    +0.000 OA
ENDROOT
BRANCH  10  12
ATOM     12  C   UNL     1     103.845 124.471  81.987  0.00  0.00    +0.000 A 
ATOM     13  C   UNL     1     104.271 124.411  80.652  0.00  0.00    +0.000 A 
ATOM     14  C   UNL     1     105.058 123.346  80.209  0.00  0.00    +0.000 A 
ATOM     15  C   UNL     1     105.425 122.334  81.094  0.00  0.00    +0.000 A 
ATOM     16  C   UNL     1     105.005 122.384  82.422  0.00  0.00    +0.000 A 
ATOM     17  C   UNL     1     104.217 123.448  82.870  0.00  0.00    +0.000 A 
ENDBRANCH  10  12
BRANCH   2  18
ATOM     18  C   UNL     1     103.876 128.742  82.446  0.00  0.00    +0.000 C 
ATOM     19  F   UNL     1     103.625 128.342  81.169  0.00  0.00    +0.000 F 
ENDBRANCH   2  18
TORSDOF 2
ENDMDL
