MODEL 1
REMARK VINA RESULT:      -5.0      0.000      0.000
REMARK  Name = *****
REMARK  5 active torsions:
REMARK  status: ('A' for Active; 'I' for Inactive)
REMARK    1  A    between atoms: C_1  and  C_2
REMARK    2  A    between atoms: C_4  and  C_17
REMARK    3  A    between atoms: C_6  and  O_8
REMARK    4  A    between atoms: O_8  and  C_9
REMARK    5  A    between atoms: C_10  and  C_11
REMARK                            x       y       z     vdW  Elec       q    Type
REMARK                         _______ _______ _______ _____ _____    ______ ____
ROOT
ATOM      1  O   UNL     1      90.261  68.032  86.595  0.00  0.00    +0.000 OA
ENDROOT
BRANCH   1   7
ATOM      2  C   UNL     1      91.979  64.027  84.274  0.00  0.00    +0.000 C 
ATOM      3  C   UNL     1      91.017  64.693  85.212  0.00  0.00    +0.000 A 
ATOM      4  C   UNL     1      89.954  63.971  85.771  0.00  0.00    +0.000 A 
ATOM      5  C   UNL     1      89.024  64.592  86.618  0.00  0.00    +0.000 A 
ATOM      6  C   UNL     1      89.151  65.961  86.881  0.00  0.00    +0.000 A 
ATOM      7  C   UNL     1      90.210  66.683  86.333  0.00  0.00    +0.000 A 
ATOM      8  C   UNL     1      91.129  66.063  85.484  0.00  0.00    +0.000 A 
ATOM      9  C   UNL     1      87.867  63.818  87.174  0.00  0.00    +0.000 C 
ENDBRANCH   1   7
BRANCH   1  10
ATOM     10  C   UNL     1      89.068  68.721  86.564  0.00  0.00    +0.000 C 
ATOM     11  C   UNL     1      88.869  69.809  87.315  0.00  0.00    +0.000 C 
BRANCH  11  12
ATOM     12  C   UNL     1      87.623  70.588  87.337  0.00  0.00    +0.000 A 
ATOM     13  C   UNL     1      87.042  70.966  86.119  0.00  0.00    +0.000 A 
ATOM     14  C   UNL     1      85.846  71.687  86.092  0.00  0.00    +0.000 A 
ATOM     15  C   UNL     1      85.212  72.030  87.284  0.00  0.00    +0.000 A 
ATOM     16  C   UNL     1      85.769  71.646  88.502  0.00  0.00    +0.000 A 
ATOM     17  C   UNL     1      86.966  70.925  88.528  0.00  0.00    +0.000 A 
ENDBRANCH  11  12
ENDBRANCH   1  10
TORSDOF 3
ENDMDL
