MODEL 1
REMARK VINA RESULT:      -4.9      0.000      0.000
REMARK  Name = *****
REMARK  5 active torsions:
REMARK  status: ('A' for Active; 'I' for Inactive)
REMARK    1  A    between atoms: C_1  and  C_2
REMARK    2  A    between atoms: C_2  and  O_4
REMARK    3  A    between atoms: O_4  and  C_5
REMARK    4  A    between atoms: C_9  and  C_11
REMARK    5  A    between atoms: C_12  and  C_13
REMARK                            x       y       z     vdW  Elec       q    Type
REMARK                         _______ _______ _______ _____ _____    ______ ____
ROOT
ATOM      1  C   UNL     1      98.846 127.386  82.808  0.00  0.00    +0.000 A 
ATOM      2  C   UNL     1      99.029 128.667  83.325  0.00  0.00    +0.000 A 
ATOM      3  C   UNL     1     100.322 129.122  83.568  0.00  0.00    +0.000 A 
ATOM      4  C   UNL     1     101.417 128.288  83.316  0.00  0.00    +0.000 A 
ATOM      5  C   UNL     1     101.231 126.985  82.834  0.00  0.00    +0.000 A 
ATOM      6  C   UNL     1      99.930 126.540  82.573  0.00  0.00    +0.000 A 
ENDROOT
BRANCH   5   7
ATOM      7  C   UNL     1     102.361 126.090  82.539  0.00  0.00    +0.000 C 
ATOM      8  C   UNL     1     102.759 125.781  81.294  0.00  0.00    +0.000 C 
BRANCH   8   9
ATOM      9  C   UNL     1     103.897 124.901  80.994  0.00  0.00    +0.000 A 
ATOM     10  C   UNL     1     104.667 125.043  79.830  0.00  0.00    +0.000 A 
ATOM     11  C   UNL     1     105.762 124.206  79.595  0.00  0.00    +0.000 A 
ATOM     12  C   UNL     1     106.100 123.229  80.528  0.00  0.00    +0.000 A 
ATOM     13  C   UNL     1     105.356 123.085  81.697  0.00  0.00    +0.000 A 
ATOM     14  C   UNL     1     104.261 123.922  81.930  0.00  0.00    +0.000 A 
ATOM     15 CL   UNL     1     107.448 122.201  80.240  0.00  0.00    +0.000 Cl
ENDBRANCH   8   9
ENDBRANCH   5   7
BRANCH   1  16
ATOM     16  O   UNL     1      97.563 126.867  82.595  0.00  0.00    +0.000 OA
BRANCH  16  18
ATOM     17  C   UNL     1      95.493 126.826  83.707  0.00  0.00    +0.000 C 
ATOM     18  C   UNL     1      96.921 126.365  83.722  0.00  0.00    +0.000 C 
ATOM     19  O   UNL     1      97.412 125.676  84.605  0.00  0.00    +0.000 OA
ENDBRANCH  16  18
ENDBRANCH   1  16
TORSDOF 4
ENDMDL
