MODEL 1
REMARK VINA RESULT:      -4.6      0.000      0.000
REMARK  Name = *****
REMARK  4 active torsions:
REMARK  status: ('A' for Active; 'I' for Inactive)
REMARK    1  A    between atoms: C_1  and  C_2
REMARK    2  A    between atoms: C_4  and  C_10
REMARK    3  A    between atoms: C_7  and  O_8
REMARK    4  A    between atoms: C_11  and  C_12
REMARK                            x       y       z     vdW  Elec       q    Type
REMARK                         _______ _______ _______ _____ _____    ______ ____
ROOT
ATOM      1  C   UNL     1     104.987 121.975  82.188  0.00  0.00    +0.000 C 
ATOM      2  C   UNL     1     104.773 123.259  81.443  0.00  0.00    +0.000 A 
ATOM      3  C   UNL     1     103.881 124.230  81.930  0.00  0.00    +0.000 A 
ATOM      4  C   UNL     1     103.669 125.439  81.242  0.00  0.00    +0.000 A 
ATOM      5  C   UNL     1     104.337 125.660  80.034  0.00  0.00    +0.000 A 
ATOM      6  C   UNL     1     105.217 124.700  79.549  0.00  0.00    +0.000 A 
ATOM      7  C   UNL     1     105.436 123.511  80.242  0.00  0.00    +0.000 A 
ATOM      8  F   UNL     1     105.863 124.914  78.393  0.00  0.00    +0.000 F 
ENDROOT
BRANCH   7   9
ATOM      9  O   UNL     1     106.304 122.579  79.741  0.00  0.00    +0.000 OA
ATOM     10  H   UNL     1     106.258 122.333  78.838  0.00  0.00    +0.000 HD
ENDBRANCH   7   9
BRANCH   4  11
ATOM     11  C   UNL     1     102.719 126.454  81.723  0.00  0.00    +0.000 C 
ATOM     12  C   UNL     1     101.538 126.152  82.286  0.00  0.00    +0.000 C 
BRANCH  12  13
ATOM     13  C   UNL     1     100.630 127.151  82.752  0.00  0.00    +0.000 A 
ATOM     14  C   UNL     1     100.849 128.369  83.377  0.00  0.00    +0.000 A 
ATOM     15  C   UNL     1      99.648 129.074  83.682  0.00  0.00    +0.000 A 
ATOM     16  C   UNL     1      98.532 128.380  83.282  0.00  0.00    +0.000 A 
ATOM     17  S   UNL     1      98.933 126.893  82.549  0.00  0.00    +0.000 S 
ENDBRANCH  12  13
ENDBRANCH   4  11
TORSDOF 3
ENDMDL
