REMARK  Name = *****
REMARK  6 active torsions:
REMARK  status: ('A' for Active; 'I' for Inactive)
REMARK    1  A    between atoms: C_1  and  C_2
REMARK    2  A    between atoms: C_7  and  C_8
REMARK    3  A    between atoms: C_8  and  C_9
REMARK    4  A    between atoms: C_9  and  C_10
REMARK    5  A    between atoms: C_15  and  C_16
REMARK    6  A    between atoms: C_16  and  C_18
REMARK                            x       y       z     vdW  Elec       q    Type
REMARK                         _______ _______ _______ _____ _____    ______ ____
ROOT
ATOM      1  C   UNL     1       2.206  -2.452  -0.725  0.00  0.00    +0.000 C 
ENDROOT
BRANCH   1   2
ATOM      2  C   UNL     1       3.049  -3.692  -0.539  0.00  0.00    +0.000 A 
ATOM      3  C   UNL     1       2.716  -4.859  -1.245  0.00  0.00    +0.000 A 
ATOM      4  C   UNL     1       3.432  -6.043  -1.051  0.00  0.00    +0.000 A 
ATOM      5  C   UNL     1       4.485  -6.086  -0.140  0.00  0.00    +0.000 A 
ATOM      6  C   UNL     1       4.831  -4.941   0.575  0.00  0.00    +0.000 A 
ATOM      7  C   UNL     1       4.122  -3.752   0.368  0.00  0.00    +0.000 A 
BRANCH   7   8
ATOM      8  C   UNL     1       4.550  -2.573   1.145  0.00  0.00    +0.000 C 
ATOM      9  O   UNL     1       4.236  -2.478   2.326  0.00  0.00    +0.000 OA
ATOM     10  C   UNL     1       5.402  -1.555   0.437  0.00  0.00    +0.000 C 
ENDBRANCH   7   8
ENDBRANCH   1   2
BRANCH   1  11
ATOM     11  C   UNL     1       1.034  -2.411   0.262  0.00  0.00    +0.000 C 
BRANCH  11  18
ATOM     12  C   UNL     1       1.524   0.012   1.993  0.00  0.00    +0.000 C 
ATOM     13  C   UNL     1       0.472   0.002   0.916  0.00  0.00    +0.000 A 
ATOM     14  C   UNL     1      -0.301   1.157   0.713  0.00  0.00    +0.000 A 
ATOM     15  C   UNL     1      -1.291   1.193  -0.269  0.00  0.00    +0.000 A 
ATOM     16  C   UNL     1      -1.524   0.075  -1.061  0.00  0.00    +0.000 A 
ATOM     17  C   UNL     1      -0.768  -1.081  -0.870  0.00  0.00    +0.000 A 
ATOM     18  C   UNL     1       0.231  -1.136   0.118  0.00  0.00    +0.000 A 
ENDBRANCH  11  18
ENDBRANCH   1  11
TORSDOF 4
