REMARK  Name = *****
REMARK  4 active torsions:
REMARK  status: ('A' for Active; 'I' for Inactive)
REMARK    1  A    between atoms: C_1  and  C_2
REMARK    2  A    between atoms: C_5  and  C_8
REMARK    3  A    between atoms: C_9  and  S_10
REMARK    4  A    between atoms: S_10  and  C_11
REMARK                            x       y       z     vdW  Elec       q    Type
REMARK                         _______ _______ _______ _____ _____    ______ ____
ROOT
ATOM      1  C   UNL     1      -3.288  -0.373   0.275  0.00  0.00    +0.000 C 
ATOM      2  C   UNL     1      -4.146   0.524   0.785  0.00  0.00    +0.000 C 
ENDROOT
BRANCH   1   7
ATOM      3  C   UNL     1       2.404   0.412  -0.442  0.00  0.00    +0.000 C 
ATOM      4  C   UNL     1       0.924   0.245  -0.265  0.00  0.00    +0.000 A 
ATOM      5  C   UNL     1       0.282   0.764   0.864  0.00  0.00    +0.000 A 
ATOM      6  C   UNL     1      -1.092   0.579   1.047  0.00  0.00    +0.000 A 
ATOM      7  C   UNL     1      -1.849  -0.128   0.105  0.00  0.00    +0.000 A 
ATOM      8  C   UNL     1      -1.197  -0.673  -1.007  0.00  0.00    +0.000 A 
ATOM      9  C   UNL     1       0.177  -0.489  -1.191  0.00  0.00    +0.000 A 
ENDBRANCH   1   7
BRANCH   2  10
ATOM     10  S   UNL     1      -5.833   0.155   0.943  0.00  0.00    +0.000 S 
BRANCH  10  11
ATOM     11  C   UNL     1      -6.364   1.622   1.805  0.00  0.00    +0.000 A 
ATOM     12  C   UNL     1      -6.883   2.709   1.090  0.00  0.00    +0.000 A 
ATOM     13  C   UNL     1      -7.304   3.855   1.767  0.00  0.00    +0.000 A 
ATOM     14  C   UNL     1      -7.209   3.908   3.153  0.00  0.00    +0.000 A 
ATOM     15  C   UNL     1      -6.703   2.835   3.877  0.00  0.00    +0.000 A 
ATOM     16  C   UNL     1      -6.281   1.687   3.202  0.00  0.00    +0.000 A 
ATOM     17  F   UNL     1      -7.613   5.008   3.800  0.00  0.00    +0.000 F 
ENDBRANCH  10  11
ENDBRANCH   2  10
TORSDOF 3
