REMARK  Name = *****
REMARK  3 active torsions:
REMARK  status: ('A' for Active; 'I' for Inactive)
REMARK    1  A    between atoms: C_5  and  C_7
REMARK    2  A    between atoms: N_9  and  C_10
REMARK    3  A    between atoms: N_9  and  O_17
REMARK                            x       y       z     vdW  Elec       q    Type
REMARK                         _______ _______ _______ _____ _____    ______ ____
ROOT
ATOM      1  C   UNL     1      -0.402  -2.391   0.117  0.00  0.00    +0.000 C 
ATOM      2  O   UNL     1       0.283  -1.425  -0.212  0.00  0.00    +0.000 OA
ATOM      3  N   UNL     1      -1.788  -2.438   0.222  0.00  0.00    +0.000 N 
ENDROOT
BRANCH   1   8
ATOM      4  C   UNL     1       1.930  -4.686   1.954  0.00  0.00    +0.000 A 
ATOM      5  C   UNL     1       1.846  -5.856   1.199  0.00  0.00    +0.000 A 
ATOM      6  C   UNL     1       1.023  -5.905   0.071  0.00  0.00    +0.000 A 
ATOM      7  C   UNL     1       0.274  -4.785  -0.303  0.00  0.00    +0.000 A 
ATOM      8  C   UNL     1       0.343  -3.619   0.467  0.00  0.00    +0.000 A 
ATOM      9  C   UNL     1       1.186  -3.565   1.587  0.00  0.00    +0.000 A 
ATOM     10 CL   UNL     1      -0.696  -4.901  -1.728  0.00  0.00    +0.000 Cl
ENDBRANCH   1   8
BRANCH   3  11
ATOM     11  C   UNL     1      -2.710  -1.373   0.017  0.00  0.00    +0.000 A 
ATOM     12  C   UNL     1      -2.328  -0.148  -0.544  0.00  0.00    +0.000 A 
ATOM     13  C   UNL     1      -3.266   0.870  -0.739  0.00  0.00    +0.000 A 
ATOM     14  C   UNL     1      -4.599   0.690  -0.384  0.00  0.00    +0.000 A 
ATOM     15  C   UNL     1      -5.000  -0.521   0.170  0.00  0.00    +0.000 A 
ATOM     16  C   UNL     1      -4.063  -1.541   0.366  0.00  0.00    +0.000 A 
ATOM     17 CL   UNL     1      -2.771   2.368  -1.432  0.00  0.00    +0.000 Cl
ENDBRANCH   3  11
BRANCH   3  18
ATOM     18  O   UNL     1      -2.343  -3.611   0.791  0.00  0.00    +0.000 OA
ATOM     19  H   UNL     1      -1.649  -4.280   0.894  0.00  0.00    +0.000 HD
ENDBRANCH   3  18
TORSDOF 3
