MODEL 1
REMARK VINA RESULT:      -4.7      0.000      0.000
REMARK  Name = *****
REMARK  5 active torsions:
REMARK  status: ('A' for Active; 'I' for Inactive)
REMARK    1  A    between atoms: C_1  and  O_2
REMARK    2  A    between atoms: O_2  and  C_3
REMARK    3  A    between atoms: C_8  and  C_9
REMARK    4  A    between atoms: C_10  and  C_11
REMARK    5  A    between atoms: C_11  and  C_12
REMARK                            x       y       z     vdW  Elec       q    Type
REMARK                         _______ _______ _______ _____ _____    ______ ____
ROOT
ATOM      1  C   UNL     1      85.799  59.044  90.731  0.00  0.00    +0.000 C 
ATOM      2  C   UNL     1      84.915  59.985  91.101  0.00  0.00    +0.000 C 
ENDROOT
BRANCH   1   8
ATOM      3  C   UNL     1      86.953  56.835  91.033  0.00  0.00    +0.000 A 
ATOM      4  C   UNL     1      87.323  55.764  91.856  0.00  0.00    +0.000 A 
ATOM      5  C   UNL     1      86.970  55.752  93.208  0.00  0.00    +0.000 A 
ATOM      6  C   UNL     1      86.241  56.805  93.749  0.00  0.00    +0.000 A 
ATOM      7  C   UNL     1      85.868  57.877  92.939  0.00  0.00    +0.000 A 
ATOM      8  C   UNL     1      86.230  57.917  91.582  0.00  0.00    +0.000 A 
BRANCH   3  10
ATOM      9  C   UNL     1      87.668  55.729  89.037  0.00  0.00    +0.000 C 
ATOM     10  O   UNL     1      87.255  56.919  89.695  0.00  0.00    +0.000 OA
ENDBRANCH   3  10
ENDBRANCH   1   8
BRANCH   2  11
ATOM     11  C   UNL     1      84.503  61.132  90.222  0.00  0.00    +0.000 C 
BRANCH  11  12
ATOM     12  C   UNL     1      85.672  62.015  89.853  0.00  0.00    +0.000 A 
ATOM     13  C   UNL     1      86.243  62.878  90.802  0.00  0.00    +0.000 A 
ATOM     14  C   UNL     1      87.310  63.705  90.450  0.00  0.00    +0.000 A 
ATOM     15  C   UNL     1      87.804  63.672  89.152  0.00  0.00    +0.000 A 
ATOM     16  C   UNL     1      87.250  62.831  88.196  0.00  0.00    +0.000 A 
ATOM     17  C   UNL     1      86.182  62.004  88.544  0.00  0.00    +0.000 A 
ATOM     18  F   UNL     1      88.829  64.468  88.816  0.00  0.00    +0.000 F 
ENDBRANCH  11  12
ENDBRANCH   2  11
TORSDOF 4
ENDMDL
