MODEL 1
REMARK VINA RESULT:      -4.8      0.000      0.000
REMARK  Name = *****
REMARK  3 active torsions:
REMARK  status: ('A' for Active; 'I' for Inactive)
REMARK    1  A    between atoms: C_2  and  C_3
REMARK    2  A    between atoms: C_8  and  C_9
REMARK    3  A    between atoms: C_10  and  C_11
REMARK                            x       y       z     vdW  Elec       q    Type
REMARK                         _______ _______ _______ _____ _____    ______ ____
ROOT
ATOM      1  C   UNL     1     101.398 128.188  83.285  0.00  0.00    +0.000 A 
ATOM      2  C   UNL     1     100.372 129.106  83.547  0.00  0.00    +0.000 A 
ATOM      3  C   UNL     1      99.050 128.800  83.227  0.00  0.00    +0.000 A 
ATOM      4  C   UNL     1      98.744 127.572  82.647  0.00  0.00    +0.000 A 
ATOM      5  C   UNL     1      99.761 126.652  82.383  0.00  0.00    +0.000 A 
ATOM      6  C   UNL     1     101.101 126.949  82.685  0.00  0.00    +0.000 A 
ENDROOT
BRANCH   1   8
ATOM      7  C   UNL     1     103.863 128.879  83.925  0.00  0.00    +0.000 C 
ATOM      8  C   UNL     1     102.740 128.562  83.635  0.00  0.00    +0.000 C 
ENDBRANCH   1   8
BRANCH   6   9
ATOM      9  C   UNL     1     102.148 125.944  82.424  0.00  0.00    +0.000 C 
ATOM     10  C   UNL     1     102.817 125.860  81.262  0.00  0.00    +0.000 C 
BRANCH  10  11
ATOM     11  C   UNL     1     103.876 124.879  80.991  0.00  0.00    +0.000 A 
ATOM     12  C   UNL     1     104.107 123.775  81.824  0.00  0.00    +0.000 A 
ATOM     13  C   UNL     1     105.104 122.846  81.513  0.00  0.00    +0.000 A 
ATOM     14  C   UNL     1     105.873 123.004  80.362  0.00  0.00    +0.000 A 
ATOM     15  C   UNL     1     105.642 124.088  79.518  0.00  0.00    +0.000 A 
ATOM     16  C   UNL     1     104.645 125.017  79.828  0.00  0.00    +0.000 A 
ENDBRANCH  10  11
ENDBRANCH   6   9
TORSDOF 3
ENDMDL
