MODEL 1
REMARK VINA RESULT:      -5.5      0.000      0.000
REMARK  Name = *****
REMARK  2 active torsions:
REMARK  status: ('A' for Active; 'I' for Inactive)
REMARK    1  A    between atoms: C_1  and  C_2
REMARK    2  A    between atoms: C_2  and  C_8
REMARK                            x       y       z     vdW  Elec       q    Type
REMARK                         _______ _______ _______ _____ _____    ______ ____
ROOT
ATOM      1  C   UNL     1     102.517 126.478  81.960  0.00  0.00    +0.000 A 
ATOM      2  C   UNL     1     102.994 125.152  81.957  0.00  0.00    +0.000 A 
ATOM      3  C   UNL     1     104.019 124.730  81.090  0.00  0.00    +0.000 A 
ATOM      4  C   UNL     1     104.487 123.405  81.095  0.00  0.00    +0.000 A 
ATOM      5  C   UNL     1     105.504 123.004  80.228  0.00  0.00    +0.000 A 
ATOM      6  C   UNL     1     106.068 123.920  79.345  0.00  0.00    +0.000 A 
ATOM      7  C   UNL     1     105.615 125.239  79.328  0.00  0.00    +0.000 A 
ATOM      8  C   UNL     1     104.591 125.658  80.194  0.00  0.00    +0.000 A 
ATOM      9  C   UNL     1     104.122 126.978  80.189  0.00  0.00    +0.000 A 
ATOM     10  C   UNL     1     103.102 127.379  81.058  0.00  0.00    +0.000 A 
ENDROOT
BRANCH   1  12
ATOM     11  C   UNL     1     101.448 126.019  84.173  0.00  0.00    +0.000 C 
ATOM     12  C   UNL     1     101.392 126.914  82.919  0.00  0.00    +0.000 C 
ATOM     13  C   UNL     1     101.570 128.412  83.266  0.00  0.00    +0.000 C 
ATOM     14  C   UNL     1     100.358 129.008  83.977  0.00  0.00    +0.000 C 
ATOM     15  C   UNL     1      99.087 128.703  83.202  0.00  0.00    +0.000 C 
ATOM     16  C   UNL     1      98.977 127.214  82.925  0.00  0.00    +0.000 C 
ATOM     17  O   UNL     1     100.131 126.722  82.251  0.00  0.00    +0.000 OA
ENDBRANCH   1  12
TORSDOF 1
ENDMDL
