REMARK  Name = *****
REMARK  7 active torsions:
REMARK  status: ('A' for Active; 'I' for Inactive)
REMARK    1  A    between atoms: C_1  and  C_2
REMARK    2  A    between atoms: C_4  and  C_19
REMARK    3  A    between atoms: C_5  and  C_9
REMARK    4  A    between atoms: C_6  and  C_8
REMARK    5  A    between atoms: C_9  and  O_10
REMARK    6  A    between atoms: O_10  and  C_11
REMARK    7  A    between atoms: C_11  and  C_13
REMARK                            x       y       z     vdW  Elec       q    Type
REMARK                         _______ _______ _______ _____ _____    ______ ____
ROOT
ATOM      1  C   UNL     1      -2.057  -2.016   0.264  0.00  0.00    +0.000 C 
ENDROOT
BRANCH   1   6
ATOM      2  C   UNL     1       2.309   1.859  -0.050  0.00  0.00    +0.000 C 
ATOM      3  C   UNL     1       1.174   0.882   0.029  0.00  0.00    +0.000 A 
ATOM      4  C   UNL     1       0.586   0.381  -1.135  0.00  0.00    +0.000 A 
ATOM      5  C   UNL     1      -0.455  -0.560  -1.078  0.00  0.00    +0.000 A 
ATOM      6  C   UNL     1      -0.932  -1.004   0.179  0.00  0.00    +0.000 A 
ATOM      7  C   UNL     1      -0.305  -0.533   1.358  0.00  0.00    +0.000 A 
ATOM      8  C   UNL     1       0.734   0.409   1.267  0.00  0.00    +0.000 A 
ATOM      9  C   UNL     1      -0.729  -1.000   2.726  0.00  0.00    +0.000 C 
ATOM     10  C   UNL     1      -1.043  -1.058  -2.373  0.00  0.00    +0.000 C 
ENDBRANCH   1   6
BRANCH   1  11
ATOM     11  O   UNL     1      -1.469  -3.319   0.263  0.00  0.00    +0.000 OA
BRANCH  11  12
ATOM     12  C   UNL     1      -2.322  -4.322   0.604  0.00  0.00    +0.000 C 
ATOM     13  O   UNL     1      -3.512  -4.169   0.845  0.00  0.00    +0.000 OA
BRANCH  12  14
ATOM     14  C   UNL     1      -1.600  -5.662   0.580  0.00  0.00    +0.000 C 
ATOM     15  C   UNL     1      -2.523  -6.778   1.094  0.00  0.00    +0.000 C 
ATOM     16  C   UNL     1      -1.817  -8.130   1.139  0.00  0.00    +0.000 C 
ATOM     17  C   UNL     1      -0.532  -8.065   1.957  0.00  0.00    +0.000 C 
ATOM     18  C   UNL     1       0.396  -6.967   1.450  0.00  0.00    +0.000 C 
ATOM     19  C   UNL     1      -0.304  -5.612   1.402  0.00  0.00    +0.000 C 
ENDBRANCH  12  14
ENDBRANCH  11  12
ENDBRANCH   1  11
TORSDOF 4
