MODEL 1
REMARK VINA RESULT:      -4.5      0.000      0.000
REMARK  Name = *****
REMARK  5 active torsions:
REMARK  status: ('A' for Active; 'I' for Inactive)
REMARK    1  A    between atoms: C_1  and  C_2
REMARK    2  A    between atoms: C_2  and  C_13
REMARK    3  A    between atoms: C_4  and  C_5
REMARK    4  A    between atoms: C_10  and  O_11
REMARK    5  A    between atoms: O_11  and  C_12
REMARK                            x       y       z     vdW  Elec       q    Type
REMARK                         _______ _______ _______ _____ _____    ______ ____
ROOT
ATOM      1  C   UNL     1      95.468 117.614  79.246  0.00  0.00    +0.000 C 
ATOM      2  C   UNL     1      96.828 117.071  79.620  0.00  0.00    +0.000 C 
ATOM      3  C   UNL     1      97.747 116.673  78.483  0.00  0.00    +0.000 C 
ATOM      4  C   UNL     1      97.164 115.594  79.361  0.00  0.00    +0.000 C 
ENDROOT
BRANCH   4   5
ATOM      5  C   UNL     1      96.128 114.623  78.826  0.00  0.00    +0.000 A 
ATOM      6  C   UNL     1      95.976 114.399  77.446  0.00  0.00    +0.000 A 
ATOM      7  C   UNL     1      95.020 113.510  76.943  0.00  0.00    +0.000 A 
ATOM      8  C   UNL     1      94.189 112.813  77.816  0.00  0.00    +0.000 A 
ATOM      9  C   UNL     1      94.329 112.993  79.188  0.00  0.00    +0.000 A 
ATOM     10  C   UNL     1      95.305 113.865  79.681  0.00  0.00    +0.000 A 
BRANCH  10  11
ATOM     11  O   UNL     1      95.421 114.026  81.041  0.00  0.00    +0.000 OA
ATOM     12  C   UNL     1      94.290 114.735  81.550  0.00  0.00    +0.000 C 
ENDBRANCH  10  11
ENDBRANCH   4   5
BRANCH   2  13
ATOM     13  C   UNL     1      97.443 117.732  80.851  0.00  0.00    +0.000 A 
ATOM     14  C   UNL     1      97.203 117.231  82.141  0.00  0.00    +0.000 A 
ATOM     15  C   UNL     1      97.752 117.836  83.275  0.00  0.00    +0.000 A 
ATOM     16  C   UNL     1      98.553 118.966  83.141  0.00  0.00    +0.000 A 
ATOM     17  C   UNL     1      98.799 119.491  81.876  0.00  0.00    +0.000 A 
ATOM     18  C   UNL     1      98.246 118.881  80.747  0.00  0.00    +0.000 A 
ENDBRANCH   2  13
TORSDOF 3
ENDMDL
