MODEL 1
REMARK VINA RESULT:      -4.4      0.000      0.000
REMARK  Name = *****
REMARK  3 active torsions:
REMARK  status: ('A' for Active; 'I' for Inactive)
REMARK    1  A    between atoms: C_5  and  C_7
REMARK    2  A    between atoms: C_8  and  C_9
REMARK    3  A    between atoms: C_8  and  C_11
REMARK                            x       y       z     vdW  Elec       q    Type
REMARK                         _______ _______ _______ _____ _____    ______ ____
ROOT
ATOM      1  C   UNL     1     102.008 126.589  82.082  0.00  0.00    +0.000 C 
ATOM      2  C   UNL     1     102.687 125.610  82.719  0.00  0.00    +0.000 C 
ENDROOT
BRANCH   1   7
ATOM      3  C   UNL     1     100.519 129.425  84.071  0.00  0.00    +0.000 A 
ATOM      4  C   UNL     1      99.154 129.165  83.940  0.00  0.00    +0.000 A 
ATOM      5  C   UNL     1      98.723 128.066  83.197  0.00  0.00    +0.000 A 
ATOM      6  C   UNL     1      99.661 127.235  82.592  0.00  0.00    +0.000 A 
ATOM      7  C   UNL     1     101.032 127.481  82.719  0.00  0.00    +0.000 A 
ATOM      8  C   UNL     1     101.457 128.586  83.463  0.00  0.00    +0.000 A 
ATOM      9  F   UNL     1      99.229 126.183  81.880  0.00  0.00    +0.000 F 
ENDBRANCH   1   7
BRANCH   2  10
ATOM     10  C   UNL     1     103.596 124.802  81.953  0.00  0.00    +0.000 A 
ATOM     11  C   UNL     1     103.922 124.871  80.603  0.00  0.00    +0.000 A 
ATOM     12  C   UNL     1     104.880 123.897  80.200  0.00  0.00    +0.000 A 
ATOM     13  C   UNL     1     105.271 123.098  81.248  0.00  0.00    +0.000 A 
ATOM     14  S   UNL     1     104.488 123.523  82.702  0.00  0.00    +0.000 S 
ENDBRANCH   2  10
BRANCH   2  15
ATOM     15  C   UNL     1     102.502 125.370  84.121  0.00  0.00    +0.000 C 
ATOM     16  N   UNL     1     102.352 125.168  85.255  0.00  0.00    +0.000 NA
ENDBRANCH   2  15
TORSDOF 3
ENDMDL
