REMARK  Name = *****
REMARK  3 active torsions:
REMARK  status: ('A' for Active; 'I' for Inactive)
REMARK    1  A    between atoms: C_4  and  C_7
REMARK    2  A    between atoms: C_7  and  C_9
REMARK    3  A    between atoms: C_9  and  C_10
REMARK                            x       y       z     vdW  Elec       q    Type
REMARK                         _______ _______ _______ _____ _____    ______ ____
ROOT
ATOM      1  C   UNL     1      -3.815  -0.633  -0.335  0.00  0.00    +0.000 C 
ENDROOT
BRANCH   1   2
ATOM      2  C   UNL     1      -5.227  -0.105  -0.445  0.00  0.00    +0.000 A 
ATOM      3  C   UNL     1      -6.059  -0.528  -1.493  0.00  0.00    +0.000 A 
ATOM      4  C   UNL     1      -7.368  -0.058  -1.579  0.00  0.00    +0.000 A 
ATOM      5  C   UNL     1      -7.865   0.821  -0.627  0.00  0.00    +0.000 A 
ATOM      6  C   UNL     1      -7.062   1.238   0.428  0.00  0.00    +0.000 A 
ATOM      7  C   UNL     1      -5.748   0.771   0.523  0.00  0.00    +0.000 A 
ATOM      8  F   UNL     1      -9.125   1.270  -0.714  0.00  0.00    +0.000 F 
ATOM      9  F   UNL     1      -8.144  -0.467  -2.592  0.00  0.00    +0.000 F 
ENDBRANCH   1   2
BRANCH   1  10
ATOM     10  C   UNL     1      -2.774   0.440  -0.073  0.00  0.00    +0.000 C 
ATOM     11  O   UNL     1      -2.403   0.687   1.076  0.00  0.00    +0.000 OA
BRANCH  10  15
ATOM     12  C   UNL     1      -1.024   2.724  -3.269  0.00  0.00    +0.000 A 
ATOM     13  C   UNL     1      -0.544   2.835  -1.966  0.00  0.00    +0.000 A 
ATOM     14  C   UNL     1      -1.127   2.086  -0.942  0.00  0.00    +0.000 A 
ATOM     15  C   UNL     1      -2.194   1.216  -1.212  0.00  0.00    +0.000 A 
ATOM     16  C   UNL     1      -2.672   1.113  -2.524  0.00  0.00    +0.000 A 
ATOM     17  C   UNL     1      -2.087   1.866  -3.547  0.00  0.00    +0.000 A 
ENDBRANCH  10  15
ENDBRANCH   1  10
TORSDOF 3
