MODEL 1
REMARK VINA RESULT:      -4.5      0.000      0.000
REMARK  Name = *****
REMARK  4 active torsions:
REMARK  status: ('A' for Active; 'I' for Inactive)
REMARK    1  A    between atoms: C_1  and  C_2
REMARK    2  A    between atoms: C_5  and  C_8
REMARK    3  A    between atoms: N_10  and  C_11
REMARK    4  A    between atoms: N_10  and  O_18
REMARK                            x       y       z     vdW  Elec       q    Type
REMARK                         _______ _______ _______ _____ _____    ______ ____
ROOT
ATOM      1  C   UNL     1     102.360 127.335  82.988  0.00  0.00    +0.000 C 
ATOM      2  O   UNL     1     103.101 128.282  83.244  0.00  0.00    +0.000 OA
ATOM      3  N   UNL     1     100.986 127.283  83.209  0.00  0.00    +0.000 N 
ENDROOT
BRANCH   1   8
ATOM      4  C   UNL     1     104.976 122.860  80.400  0.00  0.00    +0.000 C 
ATOM      5  C   UNL     1     104.268 123.998  81.077  0.00  0.00    +0.000 A 
ATOM      6  C   UNL     1     104.068 123.986  82.463  0.00  0.00    +0.000 A 
ATOM      7  C   UNL     1     103.442 125.062  83.097  0.00  0.00    +0.000 A 
ATOM      8  C   UNL     1     103.004 126.158  82.346  0.00  0.00    +0.000 A 
ATOM      9  C   UNL     1     103.238 126.193  80.967  0.00  0.00    +0.000 A 
ATOM     10  C   UNL     1     103.864 125.116  80.336  0.00  0.00    +0.000 A 
ENDBRANCH   1   8
BRANCH   3  11
ATOM     11  C   UNL     1     100.183 128.211  83.931  0.00  0.00    +0.000 A 
ATOM     12  C   UNL     1      99.935 129.512  83.470  0.00  0.00    +0.000 A 
ATOM     13  C   UNL     1      99.137 130.402  84.203  0.00  0.00    +0.000 A 
ATOM     14  C   UNL     1      98.578 130.002  85.410  0.00  0.00    +0.000 A 
ATOM     15  C   UNL     1      98.812 128.721  85.895  0.00  0.00    +0.000 A 
ATOM     16  C   UNL     1      99.609 127.835  85.159  0.00  0.00    +0.000 A 
ATOM     17 CL   UNL     1      97.600 131.093  86.310  0.00  0.00    +0.000 Cl
ENDBRANCH   3  11
BRANCH   3  18
ATOM     18  O   UNL     1     100.279 126.173  82.684  0.00  0.00    +0.000 OA
ATOM     19  H   UNL     1     100.655 125.929  81.824  0.00  0.00    +0.000 HD
ENDBRANCH   3  18
TORSDOF 3
ENDMDL
