MODEL 1
REMARK VINA RESULT:      -4.4      0.000      0.000
REMARK  Name = *****
REMARK  4 active torsions:
REMARK  status: ('A' for Active; 'I' for Inactive)
REMARK    1  A    between atoms: C_1  and  O_2
REMARK    2  A    between atoms: O_2  and  C_3
REMARK    3  A    between atoms: C_4  and  C_10
REMARK    4  A    between atoms: C_11  and  C_12
REMARK                            x       y       z     vdW  Elec       q    Type
REMARK                         _______ _______ _______ _____ _____    ______ ____
ROOT
ATOM      1  C   UNL     1     104.308 123.324  83.197  0.00  0.00    +0.000 A 
ATOM      2  C   UNL     1     103.990 124.259  82.190  0.00  0.00    +0.000 A 
ATOM      3  C   UNL     1     104.685 124.226  80.971  0.00  0.00    +0.000 A 
ATOM      4  C   UNL     1     105.688 123.278  80.753  0.00  0.00    +0.000 A 
ATOM      5  C   UNL     1     106.002 122.357  81.749  0.00  0.00    +0.000 A 
ATOM      6  C   UNL     1     105.317 122.379  82.966  0.00  0.00    +0.000 A 
ATOM      7 CL   UNL     1     104.349 125.337  79.685  0.00  0.00    +0.000 Cl
ENDROOT
BRANCH   1   9
ATOM      8  C   UNL     1     104.313 123.586  85.575  0.00  0.00    +0.000 C 
ATOM      9  O   UNL     1     103.590 123.414  84.364  0.00  0.00    +0.000 OA
ENDBRANCH   1   9
BRANCH   2  10
ATOM     10  C   UNL     1     102.957 125.234  82.419  0.00  0.00    +0.000 C 
ATOM     11  C   UNL     1     102.095 126.048  82.607  0.00  0.00    +0.000 C 
BRANCH  11  12
ATOM     12  C   UNL     1     101.066 127.017  82.829  0.00  0.00    +0.000 A 
ATOM     13  C   UNL     1      99.754 126.749  82.431  0.00  0.00    +0.000 A 
ATOM     14  C   UNL     1      98.751 127.695  82.649  0.00  0.00    +0.000 A 
ATOM     15  C   UNL     1      99.059 128.910  83.263  0.00  0.00    +0.000 A 
ATOM     16  C   UNL     1     100.368 129.180  83.659  0.00  0.00    +0.000 A 
ATOM     17  C   UNL     1     101.373 128.234  83.443  0.00  0.00    +0.000 A 
ENDBRANCH  11  12
ENDBRANCH   2  10
TORSDOF 3
ENDMDL
