MODEL 1
REMARK VINA RESULT:      -4.1      0.000      0.000
REMARK  Name = *****
REMARK  6 active torsions:
REMARK  status: ('A' for Active; 'I' for Inactive)
REMARK    1  A    between atoms: C_1  and  C_2
REMARK    2  A    between atoms: C_2  and  C_3
REMARK    3  A    between atoms: C_2  and  C_10
REMARK    4  A    between atoms: C_2  and  P_17
REMARK    5  A    between atoms: C_3  and  C_4
REMARK    6  A    between atoms: C_10  and  C_11
REMARK                            x       y       z     vdW  Elec       q    Type
REMARK                         _______ _______ _______ _____ _____    ______ ____
ROOT
ATOM      1  C   UNL     1      86.269  68.854  85.382  0.00  0.00    +0.000 C 
ATOM      2  C   UNL     1      87.625  69.564  85.623  0.00  0.00    +0.000 C 
ENDROOT
BRANCH   2   3
ATOM      3  P   UNL     1      88.703  69.091  84.078  0.00  0.00    +0.000 P 
ATOM      4  H   UNL     1      87.925  68.407  83.166  0.00  0.00    +0.000 HD
ATOM      5  H   UNL     1      89.754  68.292  84.477  0.00  0.00    +0.000 HD
ENDBRANCH   2   3
BRANCH   2   6
ATOM      6  C   UNL     1      87.477  71.117  85.604  0.00  0.00    +0.000 C 
BRANCH   6   7
ATOM      7  C   UNL     1      86.094  71.694  85.821  0.00  0.00    +0.000 A 
ATOM      8  C   UNL     1      85.594  71.866  87.118  0.00  0.00    +0.000 A 
ATOM      9  C   UNL     1      84.326  72.410  87.332  0.00  0.00    +0.000 A 
ATOM     10  C   UNL     1      83.548  72.806  86.248  0.00  0.00    +0.000 A 
ATOM     11  C   UNL     1      84.042  72.670  84.954  0.00  0.00    +0.000 A 
ATOM     12  C   UNL     1      85.311  72.125  84.742  0.00  0.00    +0.000 A 
ENDBRANCH   6   7
ENDBRANCH   2   6
BRANCH   2  13
ATOM     13  C   UNL     1      88.259  68.967  86.918  0.00  0.00    +0.000 C 
BRANCH  13  14
ATOM     14  C   UNL     1      87.905  69.534  88.279  0.00  0.00    +0.000 A 
ATOM     15  C   UNL     1      88.663  70.597  88.801  0.00  0.00    +0.000 A 
ATOM     16  C   UNL     1      88.351  71.168  90.037  0.00  0.00    +0.000 A 
ATOM     17  C   UNL     1      87.265  70.697  90.767  0.00  0.00    +0.000 A 
ATOM     18  C   UNL     1      86.485  69.664  90.252  0.00  0.00    +0.000 A 
ATOM     19  C   UNL     1      86.797  69.094  89.014  0.00  0.00    +0.000 A 
ENDBRANCH  13  14
ENDBRANCH   2  13
TORSDOF 5
ENDMDL
