REMARK  Name = *****
REMARK  7 active torsions:
REMARK  status: ('A' for Active; 'I' for Inactive)
REMARK    1  A    between atoms: C_1  and  C_2
REMARK    2  A    between atoms: C_2  and  O_3
REMARK    3  A    between atoms: O_3  and  C_4
REMARK    4  A    between atoms: C_4  and  C_12
REMARK    5  A    between atoms: N_5  and  C_6
REMARK    6  A    between atoms: C_15  and  O_18
REMARK    7  A    between atoms: O_18  and  C_19
REMARK                            x       y       z     vdW  Elec       q    Type
REMARK                         _______ _______ _______ _____ _____    ______ ____
ROOT
ATOM      1  C   UNL     1       4.396  -0.050  -1.741  0.00  0.00    +0.000 C 
ATOM      2  N   UNL     1       5.232  -0.206  -0.775  0.00  0.00    +0.000 NA
ENDROOT
BRANCH   2   3
ATOM      3  C   UNL     1       4.724  -0.099   0.596  0.00  0.00    +0.000 C 
ATOM      4  C   UNL     1       4.811   1.361   1.055  0.00  0.00    +0.000 C 
ATOM      5  C   UNL     1       4.438   1.510   2.527  0.00  0.00    +0.000 C 
ATOM      6  C   UNL     1       5.286   0.605   3.416  0.00  0.00    +0.000 C 
ATOM      7  C   UNL     1       5.223  -0.851   2.961  0.00  0.00    +0.000 C 
ATOM      8  C   UNL     1       5.593  -0.995   1.487  0.00  0.00    +0.000 C 
ENDBRANCH   2   3
BRANCH   1   9
ATOM      9  C   UNL     1       4.832  -0.161  -3.151  0.00  0.00    +0.000 A 
ATOM     10  C   UNL     1       4.090  -0.909  -4.071  0.00  0.00    +0.000 A 
ATOM     11  C   UNL     1       4.521  -1.013  -5.399  0.00  0.00    +0.000 A 
ATOM     12  C   UNL     1       5.698  -0.381  -5.806  0.00  0.00    +0.000 A 
ATOM     13  C   UNL     1       6.446   0.345  -4.873  0.00  0.00    +0.000 A 
ATOM     14  C   UNL     1       6.022   0.452  -3.547  0.00  0.00    +0.000 A 
BRANCH  12  15
ATOM     15  O   UNL     1       6.226  -0.400  -7.067  0.00  0.00    +0.000 OA
ATOM     16  C   UNL     1       5.511  -1.133  -8.055  0.00  0.00    +0.000 C 
ENDBRANCH  12  15
ENDBRANCH   1   9
BRANCH   1  17
ATOM     17  O   UNL     1       3.080   0.198  -1.534  0.00  0.00    +0.000 OA
BRANCH  17  19
ATOM     18  C   UNL     1       1.378   1.878  -1.467  0.00  0.00    +0.000 C 
ATOM     19  C   UNL     1       2.428   1.205  -2.332  0.00  0.00    +0.000 C 
ENDBRANCH  17  19
ENDBRANCH   1  17
TORSDOF 5
