REMARK  Name = *****
REMARK  4 active torsions:
REMARK  status: ('A' for Active; 'I' for Inactive)
REMARK    1  A    between atoms: C_4  and  C_7
REMARK    2  A    between atoms: C_7  and  C_8
REMARK    3  A    between atoms: C_8  and  S_9
REMARK    4  A    between atoms: S_9  and  C_10
REMARK                            x       y       z     vdW  Elec       q    Type
REMARK                         _______ _______ _______ _____ _____    ______ ____
ROOT
ATOM      1  C   UNL     1      -3.715  -0.765  -0.485  0.00  0.00    +0.000 C 
ENDROOT
BRANCH   1   2
ATOM      2  C   UNL     1      -2.873   0.509  -0.442  0.00  0.00    +0.000 C 
BRANCH   2   6
ATOM      3  C   UNL     1       1.107  -0.360   0.977  0.00  0.00    +0.000 A 
ATOM      4  C   UNL     1       0.843  -0.343  -0.392  0.00  0.00    +0.000 A 
ATOM      5  C   UNL     1      -0.442  -0.055  -0.852  0.00  0.00    +0.000 A 
ATOM      6  C   UNL     1      -1.475   0.222   0.054  0.00  0.00    +0.000 A 
ATOM      7  C   UNL     1      -1.200   0.197   1.428  0.00  0.00    +0.000 A 
ATOM      8  C   UNL     1       0.086  -0.091   1.886  0.00  0.00    +0.000 A 
ENDBRANCH   2   6
ENDBRANCH   1   2
BRANCH   1   9
ATOM      9  S   UNL     1      -5.389  -0.386  -1.107  0.00  0.00    +0.000 S 
BRANCH   9  10
ATOM     10  C   UNL     1      -6.107  -2.022  -0.970  0.00  0.00    +0.000 A 
ATOM     11  C   UNL     1      -6.165  -2.797  -2.137  0.00  0.00    +0.000 A 
ATOM     12  C   UNL     1      -6.713  -4.082  -2.114  0.00  0.00    +0.000 A 
ATOM     13  C   UNL     1      -7.215  -4.605  -0.925  0.00  0.00    +0.000 A 
ATOM     14  C   UNL     1      -7.173  -3.841   0.241  0.00  0.00    +0.000 A 
ATOM     15  C   UNL     1      -6.625  -2.553   0.223  0.00  0.00    +0.000 A 
ATOM     16 CL   UNL     1      -6.623  -1.672   1.712  0.00  0.00    +0.000 Cl
ENDBRANCH   9  10
ENDBRANCH   1   9
TORSDOF 4
