MODEL 1
REMARK VINA RESULT:      -4.3      0.000      0.000
REMARK  Name = *****
REMARK  3 active torsions:
REMARK  status: ('A' for Active; 'I' for Inactive)
REMARK    1  A    between atoms: C_4  and  C_7
REMARK    2  A    between atoms: C_7  and  C_8
REMARK    3  A    between atoms: C_8  and  C_9
REMARK                            x       y       z     vdW  Elec       q    Type
REMARK                         _______ _______ _______ _____ _____    ______ ____
ROOT
ATOM      1  C   UNL     1     102.495 125.545  81.583  0.00  0.00    +0.000 C 
ENDROOT
BRANCH   1   2
ATOM      2  C   UNL     1     103.711 126.174  80.928  0.00  0.00    +0.000 C 
ATOM      3  C   UNL     1     103.542 127.562  80.326  0.00  0.00    +0.000 C 
ATOM      4  C   UNL     1     104.585 128.422  80.301  0.00  0.00    +0.000 C 
ATOM      5  C   UNL     1     105.845 127.868  80.784  0.00  0.00    +0.000 C 
ATOM      6  C   UNL     1     105.449 127.139  82.113  0.00  0.00    +0.000 C 
ATOM      7  C   UNL     1     105.148 125.769  81.533  0.00  0.00    +0.000 C 
ATOM      8  S   UNL     1     104.737 125.154  79.981  0.00  0.00    +0.000 S 
ATOM      9  S   UNL     1     106.770 128.219  82.147  0.00  0.00    +0.000 S 
ENDBRANCH   1   2
BRANCH   1  10
ATOM     10  C   UNL     1     102.238 126.044  83.009  0.00  0.00    +0.000 C 
BRANCH  10  14
ATOM     11  C   UNL     1      98.961 128.846  83.085  0.00  0.00    +0.000 A 
ATOM     12  C   UNL     1      98.794 127.595  82.494  0.00  0.00    +0.000 A 
ATOM     13  C   UNL     1      99.851 126.684  82.475  0.00  0.00    +0.000 A 
ATOM     14  C   UNL     1     101.085 127.017  83.050  0.00  0.00    +0.000 A 
ATOM     15  C   UNL     1     101.244 128.280  83.637  0.00  0.00    +0.000 A 
ATOM     16  C   UNL     1     100.185 129.188  83.655  0.00  0.00    +0.000 A 
ENDBRANCH  10  14
ENDBRANCH   1  10
TORSDOF 3
ENDMDL
