REMARK  Name = *****
REMARK  3 active torsions:
REMARK  status: ('A' for Active; 'I' for Inactive)
REMARK    1  A    between atoms: C_7  and  O_18
REMARK    2  A    between atoms: N_8  and  C_11
REMARK    3  A    between atoms: O_18  and  O_19
REMARK                            x       y       z     vdW  Elec       q    Type
REMARK                         _______ _______ _______ _____ _____    ______ ____
ROOT
ATOM      1  C   UNL     1      -2.266  -0.767   0.215  0.00  0.00    +0.000 C 
ATOM      2  C   UNL     1      -2.366   0.673  -0.292  0.00  0.00    +0.000 C 
ATOM      3  C   UNL     1      -1.186   1.525   0.192  0.00  0.00    +0.000 C 
ATOM      4  C   UNL     1       0.112   0.796   0.072  0.00  0.00    +0.000 C 
ATOM      5  C   UNL     1       0.216  -0.523  -0.122  0.00  0.00    +0.000 C 
ATOM      6  C   UNL     1      -0.960  -1.441  -0.227  0.00  0.00    +0.000 C 
ATOM      7  C   UNL     1       1.620  -1.039  -0.197  0.00  0.00    +0.000 C 
ATOM      8  N   UNL     1       2.487   0.103   0.109  0.00  0.00    +0.000 N 
ATOM      9  S   UNL     1       1.698   1.590   0.120  0.00  0.00    +0.000 S 
ATOM     10  O   UNL     1       1.807   2.235   1.467  0.00  0.00    +0.000 OA
ENDROOT
BRANCH   8  11
ATOM     11  C   UNL     1       3.891  -0.004   0.059  0.00  0.00    +0.000 A 
ATOM     12  C   UNL     1       4.718   0.992   0.618  0.00  0.00    +0.000 A 
ATOM     13  C   UNL     1       6.117   0.903   0.594  0.00  0.00    +0.000 A 
ATOM     14  C   UNL     1       6.739  -0.191   0.007  0.00  0.00    +0.000 A 
ATOM     15  C   UNL     1       5.960  -1.195  -0.552  0.00  0.00    +0.000 A 
ATOM     16  C   UNL     1       4.566  -1.098  -0.522  0.00  0.00    +0.000 A 
ATOM     17  F   UNL     1       3.884  -2.093  -1.109  0.00  0.00    +0.000 F 
ENDBRANCH   8  11
BRANCH   7  18
ATOM     18  O   UNL     1       1.819  -2.113   0.743  0.00  0.00    +0.000 OA
BRANCH  18  19
ATOM     19  O   UNL     1       1.545  -1.598   2.094  0.00  0.00    +0.000 OA
ATOM     20  H   UNL     1       1.673  -2.308   2.743  0.00  0.00    +0.000 HD
ENDBRANCH  18  19
ENDBRANCH   7  18
TORSDOF 3
