MODEL 1
REMARK VINA RESULT:      -4.5      0.000      0.000
REMARK  Name = *****
REMARK  3 active torsions:
REMARK  status: ('A' for Active; 'I' for Inactive)
REMARK    1  A    between atoms: C_4  and  O_7
REMARK    2  A    between atoms: O_7  and  C_8
REMARK    3  A    between atoms: C_8  and  C_10
REMARK                            x       y       z     vdW  Elec       q    Type
REMARK                         _______ _______ _______ _____ _____    ______ ____
ROOT
ATOM      1  C   UNL     1     102.751 125.384  82.784  0.00  0.00    +0.000 C 
ATOM      2  O   UNL     1     102.811 124.910  83.912  0.00  0.00    +0.000 OA
ENDROOT
BRANCH   1   3
ATOM      3  C   UNL     1     103.953 125.641  81.902  0.00  0.00    +0.000 C 
ATOM      4  C   UNL     1     103.742 125.385  80.376  0.00  0.00    +0.000 C 
ATOM      5  C   UNL     1     104.887 124.408  80.029  0.00  0.00    +0.000 C 
ATOM      6  C   UNL     1     105.998 124.894  80.965  0.00  0.00    +0.000 C 
ATOM      7  C   UNL     1     105.147 124.708  82.228  0.00  0.00    +0.000 C 
ATOM      8  C   UNL     1     104.739 123.266  82.012  0.00  0.00    +0.000 C 
ATOM      9  C   UNL     1     104.576 123.090  80.693  0.00  0.00    +0.000 C 
ENDBRANCH   1   3
BRANCH   1  10
ATOM     10  O   UNL     1     101.613 125.848  82.197  0.00  0.00    +0.000 OA
BRANCH  10  14
ATOM     11  C   UNL     1      99.234 129.207  83.221  0.00  0.00    +0.000 C 
ATOM     12  C   UNL     1      98.532 127.859  83.089  0.00  0.00    +0.000 C 
ATOM     13  C   UNL     1      99.400 126.843  82.351  0.00  0.00    +0.000 C 
ATOM     14  C   UNL     1     100.776 126.690  83.009  0.00  0.00    +0.000 C 
ATOM     15  C   UNL     1     101.473 128.049  83.127  0.00  0.00    +0.000 C 
ATOM     16  C   UNL     1     100.610 129.066  83.867  0.00  0.00    +0.000 C 
ENDBRANCH  10  14
ENDBRANCH   1  10
TORSDOF 3
ENDMDL
