REMARK  Name = *****
REMARK  4 active torsions:
REMARK  status: ('A' for Active; 'I' for Inactive)
REMARK    1  A    between atoms: C_1  and  C_2
REMARK    2  A    between atoms: C_2  and  C_4
REMARK    3  A    between atoms: C_9  and  C_10
REMARK    4  A    between atoms: C_11  and  C_12
REMARK                            x       y       z     vdW  Elec       q    Type
REMARK                         _______ _______ _______ _____ _____    ______ ____
ROOT
ATOM      1  C   UNL     1       3.345   0.806  -1.053  0.00  0.00    +0.000 A 
ATOM      2  C   UNL     1       2.908   2.108  -1.344  0.00  0.00    +0.000 A 
ATOM      3  C   UNL     1       3.440   2.796  -2.435  0.00  0.00    +0.000 A 
ATOM      4  C   UNL     1       4.406   2.190  -3.236  0.00  0.00    +0.000 A 
ATOM      5  C   UNL     1       4.843   0.895  -2.947  0.00  0.00    +0.000 A 
ATOM      6  C   UNL     1       4.318   0.193  -1.854  0.00  0.00    +0.000 A 
ENDROOT
BRANCH   1   8
ATOM      7  C   UNL     1       1.262   0.071   0.234  0.00  0.00    +0.000 C 
ATOM      8  C   UNL     1       2.764   0.115   0.124  0.00  0.00    +0.000 C 
ATOM      9  O   UNL     1       3.493  -0.360   0.988  0.00  0.00    +0.000 OA
ENDBRANCH   1   8
BRANCH   6  10
ATOM     10  C   UNL     1       4.776  -1.145  -1.625  0.00  0.00    +0.000 C 
ATOM     11  C   UNL     1       5.167  -2.267  -1.442  0.00  0.00    +0.000 C 
BRANCH  11  12
ATOM     12  C   UNL     1       5.637  -3.599  -1.223  0.00  0.00    +0.000 A 
ATOM     13  C   UNL     1       6.992  -3.828  -0.964  0.00  0.00    +0.000 A 
ATOM     14  C   UNL     1       7.452  -5.130  -0.755  0.00  0.00    +0.000 A 
ATOM     15  C   UNL     1       6.554  -6.190  -0.805  0.00  0.00    +0.000 A 
ATOM     16  C   UNL     1       5.203  -5.974  -1.059  0.00  0.00    +0.000 A 
ATOM     17  C   UNL     1       4.742  -4.673  -1.269  0.00  0.00    +0.000 A 
ATOM     18  F   UNL     1       6.996  -7.439  -0.605  0.00  0.00    +0.000 F 
ENDBRANCH  11  12
ENDBRANCH   6  10
TORSDOF 3
