MODEL 1
REMARK VINA RESULT:      -4.5      0.000      0.000
REMARK  Name = *****
REMARK  4 active torsions:
REMARK  status: ('A' for Active; 'I' for Inactive)
REMARK    1  A    between atoms: C_1  and  C_2
REMARK    2  A    between atoms: C_6  and  C_7
REMARK    3  A    between atoms: C_7  and  C_8
REMARK    4  A    between atoms: C_9  and  C_10
REMARK                            x       y       z     vdW  Elec       q    Type
REMARK                         _______ _______ _______ _____ _____    ______ ____
ROOT
ATOM      1  C   UNL     1     102.964 125.565  81.417  0.00  0.00    +0.000 C 
ATOM      2  C   UNL     1     102.124 126.244  81.944  0.00  0.00    +0.000 C 
ENDROOT
BRANCH   2   3
ATOM      3  C   UNL     1     101.112 127.076  82.516  0.00  0.00    +0.000 A 
ATOM      4  C   UNL     1     101.480 128.224  83.223  0.00  0.00    +0.000 A 
ATOM      5  C   UNL     1     100.500 129.045  83.782  0.00  0.00    +0.000 A 
ATOM      6  C   UNL     1      99.152 128.720  83.633  0.00  0.00    +0.000 A 
ATOM      7  C   UNL     1      98.783 127.575  82.927  0.00  0.00    +0.000 A 
ATOM      8  C   UNL     1      99.763 126.753  82.367  0.00  0.00    +0.000 A 
ENDBRANCH   2   3
BRANCH   1   9
ATOM      9  C   UNL     1     103.977 124.766  80.712  0.00  0.00    +0.000 C 
BRANCH   9  15
ATOM     10  C   UNL     1     104.622 121.004  81.377  0.00  0.00    +0.000 C 
ATOM     11  C   UNL     1     104.834 122.341  80.664  0.00  0.00    +0.000 C 
ATOM     12  C   UNL     1     106.315 122.623  80.415  0.00  0.00    +0.000 C 
ATOM     13  C   UNL     1     106.826 123.214  81.722  0.00  0.00    +0.000 C 
ATOM     14  C   UNL     1     105.613 123.839  82.413  0.00  0.00    +0.000 C 
ATOM     15  C   UNL     1     104.386 123.531  81.537  0.00  0.00    +0.000 C 
ENDBRANCH   9  15
ENDBRANCH   1   9
TORSDOF 3
ENDMDL
