MODEL 1
REMARK VINA RESULT:      -4.6      0.000      0.000
REMARK  Name = *****
REMARK  4 active torsions:
REMARK  status: ('A' for Active; 'I' for Inactive)
REMARK    1  A    between atoms: C_1  and  C_2
REMARK    2  A    between atoms: C_2  and  C_3
REMARK    3  A    between atoms: C_2  and  N_9
REMARK    4  A    between atoms: C_10  and  C_12
REMARK                            x       y       z     vdW  Elec       q    Type
REMARK                         _______ _______ _______ _____ _____    ______ ____
ROOT
ATOM      1  N   UNL     1      88.417  69.048  86.509  0.00  0.00    +0.000 NA
ATOM      2  C   UNL     1      88.359  70.485  86.802  0.00  0.00    +0.000 C 
ATOM      3  O   UNL     1      88.706  69.550  87.833  0.00  0.00    +0.000 OA
ENDROOT
BRANCH   2   4
ATOM      4  C   UNL     1      86.996  71.123  86.864  0.00  0.00    +0.000 A 
ATOM      5  C   UNL     1      86.360  71.371  88.093  0.00  0.00    +0.000 A 
ATOM      6  C   UNL     1      85.106  71.985  88.153  0.00  0.00    +0.000 A 
ATOM      7  C   UNL     1      84.461  72.368  86.981  0.00  0.00    +0.000 A 
ATOM      8  C   UNL     1      85.069  72.137  85.750  0.00  0.00    +0.000 A 
ATOM      9  C   UNL     1      86.322  71.522  85.696  0.00  0.00    +0.000 A 
ENDBRANCH   2   4
BRANCH   1  11
ATOM     10  C   UNL     1      89.646  68.795  84.446  0.00  0.00    +0.000 C 
ATOM     11  C   UNL     1      89.713  68.595  85.969  0.00  0.00    +0.000 C 
BRANCH  11  12
ATOM     12  C   UNL     1      89.982  67.095  86.334  0.00  0.00    +0.000 C 
ATOM     13  C   UNL     1      90.687  66.327  85.196  0.00  0.00    +0.000 C 
ATOM     14  C   UNL     1      90.887  64.848  85.515  0.00  0.00    +0.000 C 
ATOM     15  C   UNL     1      89.577  64.166  85.879  0.00  0.00    +0.000 C 
ATOM     16  C   UNL     1      88.892  64.888  87.030  0.00  0.00    +0.000 C 
ATOM     17  C   UNL     1      88.675  66.367  86.722  0.00  0.00    +0.000 C 
ENDBRANCH  11  12
ENDBRANCH   1  11
TORSDOF 3
ENDMDL
