REMARK  Name = *****
REMARK  4 active torsions:
REMARK  status: ('A' for Active; 'I' for Inactive)
REMARK    1  A    between atoms: C_4  and  C_7
REMARK    2  A    between atoms: C_7  and  O_9
REMARK    3  A    between atoms: O_9  and  C_10
REMARK    4  A    between atoms: C_10  and  C_11
REMARK                            x       y       z     vdW  Elec       q    Type
REMARK                         _______ _______ _______ _____ _____    ______ ____
ROOT
ATOM      1  O   UNL     1      -3.724  -0.481  -0.182  0.00  0.00    +0.000 OA
ENDROOT
BRANCH   1   2
ATOM      2  C   UNL     1      -2.918   0.566  -0.484  0.00  0.00    +0.000 C 
ATOM      3  O   UNL     1      -3.280   1.662  -0.882  0.00  0.00    +0.000 OA
BRANCH   2   7
ATOM      4  C   UNL     1       1.223  -0.368   0.126  0.00  0.00    +0.000 A 
ATOM      5  C   UNL     1       0.262  -1.352   0.357  0.00  0.00    +0.000 A 
ATOM      6  C   UNL     1      -1.092  -1.068   0.164  0.00  0.00    +0.000 A 
ATOM      7  C   UNL     1      -1.491   0.207  -0.261  0.00  0.00    +0.000 A 
ATOM      8  C   UNL     1      -0.518   1.190  -0.492  0.00  0.00    +0.000 A 
ATOM      9  C   UNL     1       0.835   0.902  -0.298  0.00  0.00    +0.000 A 
ENDBRANCH   2   7
ENDBRANCH   1   2
BRANCH   1  10
ATOM     10  C   UNL     1      -5.124  -0.266  -0.390  0.00  0.00    +0.000 C 
BRANCH  10  11
ATOM     11  C   UNL     1      -5.524  -0.839  -1.725  0.00  0.00    +0.000 A 
ATOM     12  C   UNL     1      -5.812  -2.204  -1.858  0.00  0.00    +0.000 A 
ATOM     13  C   UNL     1      -6.155  -2.722  -3.102  0.00  0.00    +0.000 A 
ATOM     14  C   UNL     1      -6.211  -1.909  -4.228  0.00  0.00    +0.000 A 
ATOM     15  C   UNL     1      -5.913  -0.553  -4.110  0.00  0.00    +0.000 A 
ATOM     16  C   UNL     1      -5.568  -0.021  -2.865  0.00  0.00    +0.000 A 
ATOM     17  F   UNL     1      -6.433  -4.028  -3.217  0.00  0.00    +0.000 F 
ENDBRANCH  10  11
ENDBRANCH   1  10
TORSDOF 4
