MODEL 1
REMARK VINA RESULT:      -4.9      0.000      0.000
REMARK  Name = *****
REMARK  6 active torsions:
REMARK  status: ('A' for Active; 'I' for Inactive)
REMARK    1  A    between atoms: C_1  and  C_2
REMARK    2  A    between atoms: C_3  and  C_10
REMARK    3  A    between atoms: C_5  and  O_8
REMARK    4  A    between atoms: O_8  and  C_9
REMARK    5  A    between atoms: C_10  and  C_11
REMARK    6  A    between atoms: C_11  and  C_13
REMARK                            x       y       z     vdW  Elec       q    Type
REMARK                         _______ _______ _______ _____ _____    ______ ____
ROOT
ATOM      1  C   UNL     1     103.009 128.797  83.587  0.00  0.00    +0.000 C 
ATOM      2  C   UNL     1     101.651 128.248  83.250  0.00  0.00    +0.000 A 
ATOM      3  C   UNL     1     101.485 127.063  82.503  0.00  0.00    +0.000 A 
ATOM      4  C   UNL     1     100.184 126.581  82.252  0.00  0.00    +0.000 A 
ATOM      5  C   UNL     1      99.060 127.271  82.709  0.00  0.00    +0.000 A 
ATOM      6  C   UNL     1      99.232 128.468  83.400  0.00  0.00    +0.000 A 
ATOM      7  C   UNL     1     100.513 128.949  83.675  0.00  0.00    +0.000 A 
ENDROOT
BRANCH   5   8
ATOM      8  O   UNL     1      97.760 126.892  82.522  0.00  0.00    +0.000 OA
ATOM      9  C   UNL     1      97.033 126.546  83.695  0.00  0.00    +0.000 C 
ENDBRANCH   5   8
BRANCH   3  10
ATOM     10  C   UNL     1     102.664 126.270  81.974  0.00  0.00    +0.000 C 
BRANCH  10  11
ATOM     11  C   UNL     1     103.098 125.124  82.874  0.00  0.00    +0.000 C 
ATOM     12  O   UNL     1     102.772 125.038  84.057  0.00  0.00    +0.000 OA
BRANCH  11  13
ATOM     13  C   UNL     1     103.938 124.037  82.283  0.00  0.00    +0.000 A 
ATOM     14  C   UNL     1     104.423 122.963  83.043  0.00  0.00    +0.000 A 
ATOM     15  C   UNL     1     105.205 121.974  82.440  0.00  0.00    +0.000 A 
ATOM     16  C   UNL     1     105.510 122.052  81.082  0.00  0.00    +0.000 A 
ATOM     17  C   UNL     1     105.038 123.119  80.322  0.00  0.00    +0.000 A 
ATOM     18  C   UNL     1     104.256 124.109  80.920  0.00  0.00    +0.000 A 
ENDBRANCH  11  13
ENDBRANCH  10  11
ENDBRANCH   3  10
TORSDOF 4
ENDMDL
