MODEL 1
REMARK VINA RESULT:      -4.1      0.000      0.000
REMARK  Name = *****
REMARK  4 active torsions:
REMARK  status: ('A' for Active; 'I' for Inactive)
REMARK    1  A    between atoms: C_2  and  C_3
REMARK    2  A    between atoms: C_5  and  C_7
REMARK    3  A    between atoms: C_7  and  C_8
REMARK    4  A    between atoms: C_8  and  C_9
REMARK                            x       y       z     vdW  Elec       q    Type
REMARK                         _______ _______ _______ _____ _____    ______ ____
ROOT
ATOM      1  C   UNL     1      96.153 115.246  78.080  0.00  0.00    +0.000 C 
ENDROOT
BRANCH   1   4
ATOM      2  C   UNL     1      97.265 117.563  79.761  0.00  0.00    +0.000 C 
ATOM      3  C   UNL     1      96.847 116.212  80.393  0.00  0.00    +0.000 C 
ATOM      4  C   UNL     1      97.280 115.513  79.078  0.00  0.00    +0.000 C 
ATOM      5  C   UNL     1      98.182 116.749  78.815  0.00  0.00    +0.000 C 
BRANCH   2   7
ATOM      6  C   UNL     1      98.500 119.260  81.376  0.00  0.00    +0.000 C 
ATOM      7  C   UNL     1      97.938 118.492  80.644  0.00  0.00    +0.000 C 
ENDBRANCH   2   7
ENDBRANCH   1   4
BRANCH   1   8
ATOM      8  C   UNL     1      96.608 115.577  76.657  0.00  0.00    +0.000 C 
BRANCH   8   9
ATOM      9  C   UNL     1      95.891 116.785  76.109  0.00  0.00    +0.000 A 
ATOM     10  C   UNL     1      96.259 117.328  74.871  0.00  0.00    +0.000 A 
ATOM     11  C   UNL     1      95.607 118.457  74.372  0.00  0.00    +0.000 A 
ATOM     12  C   UNL     1      94.586 119.056  75.108  0.00  0.00    +0.000 A 
ATOM     13  C   UNL     1      94.217 118.528  76.343  0.00  0.00    +0.000 A 
ATOM     14  C   UNL     1      94.868 117.399  76.844  0.00  0.00    +0.000 A 
ENDBRANCH   8   9
ENDBRANCH   1   8
TORSDOF 4
ENDMDL
