REMARK  Name = *****
REMARK  3 active torsions:
REMARK  status: ('A' for Active; 'I' for Inactive)
REMARK    1  A    between atoms: C_4  and  C_7
REMARK    2  A    between atoms: C_7  and  N_8
REMARK    3  A    between atoms: N_8  and  C_9
REMARK                            x       y       z     vdW  Elec       q    Type
REMARK                         _______ _______ _______ _____ _____    ______ ____
ROOT
ATOM      1  C   UNL     1      -2.933   0.437  -0.005  0.00  0.00    +0.000 C 
ATOM      2  O   UNL     1      -3.530  -0.655   0.036  0.00  0.00    +0.000 OA
ENDROOT
BRANCH   1   6
ATOM      3  C   UNL     1       1.287  -0.358  -0.130  0.00  0.00    +0.000 A 
ATOM      4  C   UNL     1       0.565  -0.637   1.033  0.00  0.00    +0.000 A 
ATOM      5  C   UNL     1      -0.809  -0.394   1.074  0.00  0.00    +0.000 A 
ATOM      6  C   UNL     1      -1.466   0.123  -0.053  0.00  0.00    +0.000 A 
ATOM      7  C   UNL     1      -0.737   0.397  -1.216  0.00  0.00    +0.000 A 
ATOM      8  C   UNL     1       0.638   0.158  -1.254  0.00  0.00    +0.000 A 
ENDBRANCH   1   6
BRANCH   1   9
ATOM      9  N   UNL     1      -3.429   1.641  -0.020  0.00  0.00    +0.000 NA
BRANCH   9  10
ATOM     10  C   UNL     1      -2.605   2.781  -0.025  0.00  0.00    +0.000 A 
ATOM     11  C   UNL     1      -1.900   3.122   1.139  0.00  0.00    +0.000 A 
ATOM     12  C   UNL     1      -1.095   4.262   1.193  0.00  0.00    +0.000 A 
ATOM     13  C   UNL     1      -0.999   5.096   0.083  0.00  0.00    +0.000 A 
ATOM     14  C   UNL     1      -1.716   4.794  -1.075  0.00  0.00    +0.000 A 
ATOM     15  C   UNL     1      -2.522   3.647  -1.127  0.00  0.00    +0.000 A 
ATOM     16  I   UNL     1      -3.595   3.304  -2.899  0.00  0.00    +0.000 I 
ENDBRANCH   9  10
ENDBRANCH   1   9
TORSDOF 3
