REMARK  Name = *****
REMARK  3 active torsions:
REMARK  status: ('A' for Active; 'I' for Inactive)
REMARK    1  A    between atoms: C_5  and  N_7
REMARK    2  A    between atoms: N_7  and  C_8
REMARK    3  A    between atoms: C_8  and  C_10
REMARK                            x       y       z     vdW  Elec       q    Type
REMARK                         _______ _______ _______ _____ _____    ______ ____
ROOT
ATOM      1  N   UNL     1      -1.226  -1.842  -0.297  0.00  0.00    +0.000 N 
ATOM      2  H   UNL     1      -0.744  -2.634  -0.627  0.00  0.00    +0.000 HD
ENDROOT
BRANCH   1   7
ATOM      3  C   UNL     1       0.120   1.584   0.502  0.00  0.00    +0.000 A 
ATOM      4  C   UNL     1       1.489   1.336   0.446  0.00  0.00    +0.000 A 
ATOM      5  C   UNL     1       1.942   0.057   0.143  0.00  0.00    +0.000 A 
ATOM      6  C   UNL     1       1.021  -0.967  -0.096  0.00  0.00    +0.000 A 
ATOM      7  C   UNL     1      -0.371  -0.740  -0.028  0.00  0.00    +0.000 A 
ATOM      8  C   UNL     1      -0.802   0.555   0.263  0.00  0.00    +0.000 A 
ATOM      9 CL   UNL     1       1.648  -2.539  -0.480  0.00  0.00    +0.000 Cl
ENDBRANCH   1   7
BRANCH   1  10
ATOM     10  C   UNL     1      -2.596  -2.039  -0.195  0.00  0.00    +0.000 C 
ATOM     11  S   UNL     1      -3.768  -1.035   0.458  0.00  0.00    +0.000 S 
BRANCH  10  12
ATOM     12  C   UNL     1      -2.995  -3.373  -0.739  0.00  0.00    +0.000 A 
ATOM     13  C   UNL     1      -3.568  -4.343   0.094  0.00  0.00    +0.000 A 
ATOM     14  C   UNL     1      -3.911  -5.590  -0.432  0.00  0.00    +0.000 A 
ATOM     15  C   UNL     1      -3.677  -5.856  -1.778  0.00  0.00    +0.000 A 
ATOM     16  C   UNL     1      -3.104  -4.901  -2.612  0.00  0.00    +0.000 A 
ATOM     17  C   UNL     1      -2.758  -3.653  -2.094  0.00  0.00    +0.000 A 
ATOM     18  F   UNL     1      -4.008  -7.053  -2.279  0.00  0.00    +0.000 F 
ENDBRANCH  10  12
ENDBRANCH   1  10
TORSDOF 3
