REMARK  Name = *****
REMARK  3 active torsions:
REMARK  status: ('A' for Active; 'I' for Inactive)
REMARK    1  A    between atoms: C_1  and  C_2
REMARK    2  A    between atoms: C_4  and  C_8
REMARK    3  A    between atoms: C_15  and  C_17
REMARK                            x       y       z     vdW  Elec       q    Type
REMARK                         _______ _______ _______ _____ _____    ______ ____
ROOT
ATOM      1  C   UNL     1      -1.600   3.010  -0.381  0.00  0.00    +0.000 A 
ATOM      2  N   UNL     1      -1.449   4.067  -1.162  0.00  0.00    +0.000 NA
ATOM      3  C   UNL     1      -2.168   5.047  -0.528  0.00  0.00    +0.000 A 
ATOM      4  C   UNL     1      -2.731   4.544   0.631  0.00  0.00    +0.000 A 
ATOM      5  O   UNL     1      -2.371   3.233   0.734  0.00  0.00    +0.000 OA
ATOM      6  C   UNL     1      -3.514   5.275   1.513  0.00  0.00    +0.000 A 
ATOM      7  C   UNL     1      -3.732   6.615   1.166  0.00  0.00    +0.000 A 
ATOM      8  C   UNL     1      -3.196   7.172  -0.010  0.00  0.00    +0.000 A 
ATOM      9  C   UNL     1      -2.394   6.389  -0.864  0.00  0.00    +0.000 A 
ATOM     10  C   UNL     1      -3.427   8.622  -0.332  0.00  0.00    +0.000 C 
ENDROOT
BRANCH   1  14
ATOM     11  C   UNL     1      -1.131  -1.762   1.150  0.00  0.00    +0.000 C 
ATOM     12  C   UNL     1      -0.825  -0.662   0.177  0.00  0.00    +0.000 A 
ATOM     13  C   UNL     1      -1.348   0.627   0.358  0.00  0.00    +0.000 A 
ATOM     14  C   UNL     1      -1.061   1.662  -0.548  0.00  0.00    +0.000 A 
ATOM     15  C   UNL     1      -0.231   1.380  -1.643  0.00  0.00    +0.000 A 
ATOM     16  C   UNL     1       0.299   0.102  -1.830  0.00  0.00    +0.000 A 
ATOM     17  C   UNL     1       0.003  -0.914  -0.922  0.00  0.00    +0.000 A 
ENDBRANCH   1  14
TORSDOF 1
