MODEL 1
REMARK VINA RESULT:      -4.7      0.000      0.000
REMARK  Name = *****
REMARK  3 active torsions:
REMARK  status: ('A' for Active; 'I' for Inactive)
REMARK    1  A    between atoms: C_4  and  C_7
REMARK    2  A    between atoms: C_7  and  C_8
REMARK    3  A    between atoms: C_9  and  C_10
REMARK                            x       y       z     vdW  Elec       q    Type
REMARK                         _______ _______ _______ _____ _____    ______ ____
ROOT
ATOM      1  C   UNL     1      87.272  69.625  88.992  0.00  0.00    +0.000 C 
ATOM      2  C   UNL     1      86.938  70.921  88.877  0.00  0.00    +0.000 C 
ATOM      3 CL   UNL     1      87.586  72.083  89.984  0.00  0.00    +0.000 Cl
ENDROOT
BRANCH   2   4
ATOM      4  C   UNL     1      86.046  71.457  87.845  0.00  0.00    +0.000 A 
ATOM      5  C   UNL     1      86.418  71.416  86.495  0.00  0.00    +0.000 A 
ATOM      6  C   UNL     1      85.573  71.944  85.516  0.00  0.00    +0.000 A 
ATOM      7  C   UNL     1      84.354  72.514  85.880  0.00  0.00    +0.000 A 
ATOM      8  C   UNL     1      83.976  72.557  87.222  0.00  0.00    +0.000 A 
ATOM      9  C   UNL     1      84.819  72.031  88.202  0.00  0.00    +0.000 A 
ENDBRANCH   2   4
BRANCH   1  10
ATOM     10  C   UNL     1      86.807  68.492  88.123  0.00  0.00    +0.000 C 
BRANCH  10  14
ATOM     11  C   UNL     1      90.112  66.551  86.142  0.00  0.00    +0.000 A 
ATOM     12  C   UNL     1      89.136  65.787  86.778  0.00  0.00    +0.000 A 
ATOM     13  C   UNL     1      88.063  66.412  87.415  0.00  0.00    +0.000 A 
ATOM     14  C   UNL     1      87.954  67.810  87.417  0.00  0.00    +0.000 A 
ATOM     15  C   UNL     1      88.945  68.568  86.779  0.00  0.00    +0.000 A 
ATOM     16  C   UNL     1      90.017  67.942  86.142  0.00  0.00    +0.000 A 
ENDBRANCH  10  14
ENDBRANCH   1  10
TORSDOF 3
ENDMDL
