MODEL 1
REMARK VINA RESULT:      -4.6      0.000      0.000
REMARK  Name = *****
REMARK  3 active torsions:
REMARK  status: ('A' for Active; 'I' for Inactive)
REMARK    1  A    between atoms: C_1  and  C_2
REMARK    2  A    between atoms: C_4  and  C_8
REMARK    3  A    between atoms: C_9  and  C_10
REMARK                            x       y       z     vdW  Elec       q    Type
REMARK                         _______ _______ _______ _____ _____    ______ ____
ROOT
ATOM      1  C   UNL     1     100.796 130.317  84.402  0.00  0.00    +0.000 C 
ATOM      2  C   UNL     1     100.396 129.047  83.710  0.00  0.00    +0.000 A 
ATOM      3  C   UNL     1     101.361 128.080  83.387  0.00  0.00    +0.000 A 
ATOM      4  C   UNL     1     101.005 126.902  82.715  0.00  0.00    +0.000 A 
ATOM      5  C   UNL     1      99.671 126.719  82.331  0.00  0.00    +0.000 A 
ATOM      6  C   UNL     1      98.707 127.683  82.635  0.00  0.00    +0.000 A 
ATOM      7  C   UNL     1      99.069 128.843  83.319  0.00  0.00    +0.000 A 
ENDROOT
BRANCH   4   8
ATOM      8  C   UNL     1     101.995 125.881  82.347  0.00  0.00    +0.000 C 
ATOM      9  C   UNL     1     102.813 125.985  81.289  0.00  0.00    +0.000 C 
BRANCH   9  10
ATOM     10  C   UNL     1     103.761 124.967  80.991  0.00  0.00    +0.000 A 
ATOM     11  C   UNL     1     104.638 124.891  79.914  0.00  0.00    +0.000 A 
ATOM     12  C   UNL     1     105.385 123.696  80.041  0.00  0.00    +0.000 A 
ATOM     13  C   UNL     1     104.935 123.094  81.187  0.00  0.00    +0.000 A 
ATOM     14  O   UNL     1     103.965 123.842  81.763  0.00  0.00    +0.000 OA
ENDBRANCH   9  10
ENDBRANCH   4   8
TORSDOF 2
ENDMDL
