REMARK  Name = *****
REMARK  3 active torsions:
REMARK  status: ('A' for Active; 'I' for Inactive)
REMARK    1  A    between atoms: C_5  and  C_8
REMARK    2  A    between atoms: C_8  and  C_9
REMARK    3  A    between atoms: C_9  and  C_10
REMARK                            x       y       z     vdW  Elec       q    Type
REMARK                         _______ _______ _______ _____ _____    ______ ____
ROOT
ATOM      1  C   UNL     1      -1.979   2.292  -0.459  0.00  0.00    +0.000 C 
ENDROOT
BRANCH   1   6
ATOM      2  C   UNL     1       1.639  -0.648   0.048  0.00  0.00    +0.000 C 
ATOM      3  C   UNL     1       0.492  -1.591  -0.304  0.00  0.00    +0.000 C 
ATOM      4  C   UNL     1      -0.792  -1.322   0.476  0.00  0.00    +0.000 C 
ATOM      5  C   UNL     1      -1.549  -0.107   0.031  0.00  0.00    +0.000 C 
ATOM      6  C   UNL     1      -1.081   1.154  -0.009  0.00  0.00    +0.000 C 
ATOM      7  C   UNL     1       0.327   1.531   0.387  0.00  0.00    +0.000 C 
ATOM      8  C   UNL     1       1.425   0.799  -0.385  0.00  0.00    +0.000 C 
ENDBRANCH   1   6
BRANCH   1   9
ATOM      9  C   UNL     1      -2.389   3.204   0.704  0.00  0.00    +0.000 C 
BRANCH   9  10
ATOM     10  C   UNL     1      -3.327   4.297   0.253  0.00  0.00    +0.000 A 
ATOM     11  C   UNL     1      -4.713   4.147   0.393  0.00  0.00    +0.000 A 
ATOM     12  C   UNL     1      -5.581   5.152  -0.037  0.00  0.00    +0.000 A 
ATOM     13  C   UNL     1      -5.072   6.313  -0.615  0.00  0.00    +0.000 A 
ATOM     14  C   UNL     1      -3.695   6.470  -0.765  0.00  0.00    +0.000 A 
ATOM     15  C   UNL     1      -2.826   5.466  -0.334  0.00  0.00    +0.000 A 
ENDBRANCH   9  10
ENDBRANCH   1   9
TORSDOF 3
