REMARK  Name = *****
REMARK  3 active torsions:
REMARK  status: ('A' for Active; 'I' for Inactive)
REMARK    1  A    between atoms: C_1  and  C_2
REMARK    2  A    between atoms: C_5  and  C_7
REMARK    3  A    between atoms: C_8  and  C_9
REMARK                            x       y       z     vdW  Elec       q    Type
REMARK                         _______ _______ _______ _____ _____    ______ ____
ROOT
ATOM      1  C   UNL     1      -1.660   2.397  -0.197  0.00  0.00    +0.000 C 
ATOM      2  C   UNL     1      -2.988   2.425   0.003  0.00  0.00    +0.000 C 
ENDROOT
BRANCH   1   7
ATOM      3  C   UNL     1      -0.327  -2.523   0.299  0.00  0.00    +0.000 C 
ATOM      4  C   UNL     1      -0.182  -1.054   0.089  0.00  0.00    +0.000 A 
ATOM      5  C   UNL     1       1.010  -0.400  -0.137  0.00  0.00    +0.000 A 
ATOM      6  S   UNL     1       0.812   1.282  -0.338  0.00  0.00    +0.000 S 
ATOM      7  C   UNL     1      -0.899   1.190  -0.125  0.00  0.00    +0.000 A 
ATOM      8  C   UNL     1      -1.276  -0.126   0.093  0.00  0.00    +0.000 A 
ENDBRANCH   1   7
BRANCH   2   9
ATOM      9  C   UNL     1      -3.750   3.632  -0.068  0.00  0.00    +0.000 A 
ATOM     10  C   UNL     1      -3.382   4.933  -0.374  0.00  0.00    +0.000 A 
ATOM     11  C   UNL     1      -4.470   5.855  -0.332  0.00  0.00    +0.000 A 
ATOM     12  C   UNL     1      -5.650   5.238   0.006  0.00  0.00    +0.000 A 
ATOM     13  S   UNL     1      -5.445   3.565   0.267  0.00  0.00    +0.000 S 
ENDBRANCH   2   9
TORSDOF 2
