MODEL 1
REMARK VINA RESULT:      -4.4      0.000      0.000
REMARK  Name = *****
REMARK  4 active torsions:
REMARK  status: ('A' for Active; 'I' for Inactive)
REMARK    1  A    between atoms: C_1  and  O_2
REMARK    2  A    between atoms: O_2  and  C_3
REMARK    3  A    between atoms: C_6  and  C_9
REMARK    4  A    between atoms: C_10  and  C_11
REMARK                            x       y       z     vdW  Elec       q    Type
REMARK                         _______ _______ _______ _____ _____    ______ ____
ROOT
ATOM      1  C   UNL     1      84.001  57.069  90.845  0.00  0.00    +0.000 A 
ATOM      2  C   UNL     1      85.378  57.281  90.875  0.00  0.00    +0.000 A 
ATOM      3  C   UNL     1      85.893  58.583  90.816  0.00  0.00    +0.000 A 
ATOM      4  C   UNL     1      85.039  59.688  90.713  0.00  0.00    +0.000 A 
ATOM      5  C   UNL     1      83.658  59.468  90.698  0.00  0.00    +0.000 A 
ATOM      6  C   UNL     1      83.146  58.169  90.757  0.00  0.00    +0.000 A 
ENDROOT
BRANCH   1   8
ATOM      7  C   UNL     1      82.216  55.768  91.723  0.00  0.00    +0.000 C 
ATOM      8  O   UNL     1      83.370  55.856  90.898  0.00  0.00    +0.000 OA
ENDBRANCH   1   8
BRANCH   4   9
ATOM      9  C   UNL     1      85.540  61.069  90.684  0.00  0.00    +0.000 C 
ATOM     10  C   UNL     1      85.890  61.724  89.565  0.00  0.00    +0.000 C 
BRANCH  10  11
ATOM     11  C   UNL     1      86.395  63.139  89.550  0.00  0.00    +0.000 C 
ATOM     12  C   UNL     1      87.769  63.240  88.942  0.00  0.00    +0.000 C 
ATOM     13  C   UNL     1      88.634  63.738  89.842  0.00  0.00    +0.000 C 
ATOM     14  C   UNL     1      87.940  63.997  91.078  0.00  0.00    +0.000 C 
ATOM     15  C   UNL     1      86.648  63.661  90.942  0.00  0.00    +0.000 C 
ENDBRANCH  10  11
ENDBRANCH   4   9
TORSDOF 3
ENDMDL
