MODEL 1
REMARK VINA RESULT:      -4.9      0.000      0.000
REMARK  Name = *****
REMARK  5 active torsions:
REMARK  status: ('A' for Active; 'I' for Inactive)
REMARK    1  A    between atoms: C_1  and  C_2
REMARK    2  A    between atoms: C_5  and  C_8
REMARK    3  A    between atoms: C_8  and  C_9
REMARK    4  A    between atoms: C_9  and  C_11
REMARK    5  A    between atoms: C_14  and  C_17
REMARK                            x       y       z     vdW  Elec       q    Type
REMARK                         _______ _______ _______ _____ _____    ______ ____
ROOT
ATOM      1  C   UNL     1      87.938  70.740  85.774  0.00  0.00    +0.000 C 
ATOM      2  O   UNL     1      88.187  70.734  84.567  0.00  0.00    +0.000 OA
ENDROOT
BRANCH   1   3
ATOM      3  C   UNL     1      86.652  71.337  86.251  0.00  0.00    +0.000 A 
ATOM      4  C   UNL     1      85.682  71.848  85.382  0.00  0.00    +0.000 A 
ATOM      5  C   UNL     1      84.502  72.404  85.889  0.00  0.00    +0.000 A 
ATOM      6  C   UNL     1      84.276  72.464  87.269  0.00  0.00    +0.000 A 
ATOM      7  C   UNL     1      85.237  71.934  88.136  0.00  0.00    +0.000 A 
ATOM      8  C   UNL     1      86.416  71.381  87.632  0.00  0.00    +0.000 A 
ATOM      9  C   UNL     1      83.000  73.035  87.811  0.00  0.00    +0.000 C 
ENDBRANCH   1   3
BRANCH   1  10
ATOM     10  C   UNL     1      88.923  70.152  86.768  0.00  0.00    +0.000 C 
BRANCH  10  15
ATOM     11  C   UNL     1      88.899  64.325  86.994  0.00  0.00    +0.000 C 
ATOM     12  C   UNL     1      88.916  65.825  86.963  0.00  0.00    +0.000 A 
ATOM     13  C   UNL     1      87.842  66.554  87.482  0.00  0.00    +0.000 A 
ATOM     14  C   UNL     1      87.838  67.950  87.424  0.00  0.00    +0.000 A 
ATOM     15  C   UNL     1      88.914  68.645  86.857  0.00  0.00    +0.000 A 
ATOM     16  C   UNL     1      89.971  67.909  86.303  0.00  0.00    +0.000 A 
ATOM     17  C   UNL     1      89.972  66.512  86.357  0.00  0.00    +0.000 A 
ENDBRANCH  10  15
ENDBRANCH   1  10
TORSDOF 3
ENDMDL
