MODEL 1
REMARK VINA RESULT:      -4.6      0.000      0.000
REMARK  Name = *****
REMARK  5 active torsions:
REMARK  status: ('A' for Active; 'I' for Inactive)
REMARK    1  A    between atoms: C_1  and  C_2
REMARK    2  A    between atoms: C_4  and  O_8
REMARK    3  A    between atoms: O_8  and  C_9
REMARK    4  A    between atoms: C_9  and  O_11
REMARK    5  A    between atoms: O_11  and  C_12
REMARK                            x       y       z     vdW  Elec       q    Type
REMARK                         _______ _______ _______ _____ _____    ______ ____
ROOT
ATOM      1  C   UNL     1     103.409 126.509  80.613  0.00  0.00    +0.000 C 
ATOM      2  O   UNL     1     103.513 127.517  79.927  0.00  0.00    +0.000 OA
ENDROOT
BRANCH   1   3
ATOM      3  O   UNL     1     103.354 126.456  81.999  0.00  0.00    +0.000 OA
BRANCH   3   7
ATOM      4  C   UNL     1      98.460 126.782  82.596  0.00  0.00    +0.000 C 
ATOM      5  C   UNL     1      99.852 127.282  82.850  0.00  0.00    +0.000 A 
ATOM      6  C   UNL     1     100.956 126.603  82.322  0.00  0.00    +0.000 A 
ATOM      7  C   UNL     1     102.242 127.093  82.556  0.00  0.00    +0.000 A 
ATOM      8  C   UNL     1     102.450 128.272  83.266  0.00  0.00    +0.000 A 
ATOM      9  C   UNL     1     101.351 128.958  83.779  0.00  0.00    +0.000 A 
ATOM     10  C   UNL     1     100.060 128.467  83.571  0.00  0.00    +0.000 A 
ENDBRANCH   3   7
ENDBRANCH   1   3
BRANCH   1  11
ATOM     11  O   UNL     1     103.321 125.202  80.149  0.00  0.00    +0.000 OA
BRANCH  11  12
ATOM     12  C   UNL     1     104.511 124.467  80.164  0.00  0.00    +0.000 A 
ATOM     13  C   UNL     1     104.555 123.331  80.972  0.00  0.00    +0.000 A 
ATOM     14  C   UNL     1     105.700 122.537  80.972  0.00  0.00    +0.000 A 
ATOM     15  C   UNL     1     106.784 122.873  80.158  0.00  0.00    +0.000 A 
ATOM     16  C   UNL     1     106.722 124.001  79.336  0.00  0.00    +0.000 A 
ATOM     17  C   UNL     1     105.578 124.798  79.328  0.00  0.00    +0.000 A 
ENDBRANCH  11  12
ENDBRANCH   1  11
TORSDOF 4
ENDMDL
