MODEL 1
REMARK VINA RESULT:      -4.3      0.000      0.000
REMARK  Name = *****
REMARK  5 active torsions:
REMARK  status: ('A' for Active; 'I' for Inactive)
REMARK    1  A    between atoms: C_1  and  C_2
REMARK    2  A    between atoms: C_2  and  C_8
REMARK    3  A    between atoms: C_8  and  C_10
REMARK    4  A    between atoms: C_10  and  C_11
REMARK    5  A    between atoms: C_11  and  C_12
REMARK                            x       y       z     vdW  Elec       q    Type
REMARK                         _______ _______ _______ _____ _____    ______ ____
ROOT
ATOM      1  C   UNL     1      89.612  67.555  86.128  0.00  0.00    +0.000 C 
ATOM      2  O   UNL     1      90.665  67.100  86.580  0.00  0.00    +0.000 OA
ENDROOT
BRANCH   1   4
ATOM      3  C   UNL     1      88.360  66.517  84.257  0.00  0.00    +0.000 C 
ATOM      4  C   UNL     1      88.418  66.626  85.791  0.00  0.00    +0.000 C 
ATOM      5  C   UNL     1      87.074  67.174  86.319  0.00  0.00    +0.000 C 
ATOM      6  C   UNL     1      86.971  67.131  87.844  0.00  0.00    +0.000 C 
ATOM      7  C   UNL     1      87.207  65.725  88.381  0.00  0.00    +0.000 C 
ATOM      8  C   UNL     1      88.536  65.158  87.898  0.00  0.00    +0.000 C 
ATOM      9  C   UNL     1      88.653  65.209  86.374  0.00  0.00    +0.000 C 
ENDBRANCH   1   4
BRANCH   1  10
ATOM     10  C   UNL     1      89.471  69.043  85.838  0.00  0.00    +0.000 C 
BRANCH  10  11
ATOM     11  C   UNL     1      89.422  69.871  87.122  0.00  0.00    +0.000 C 
BRANCH  11  12
ATOM     12  C   UNL     1      88.091  70.564  87.275  0.00  0.00    +0.000 A 
ATOM     13  C   UNL     1      87.564  70.818  88.547  0.00  0.00    +0.000 A 
ATOM     14  C   UNL     1      86.322  71.437  88.688  0.00  0.00    +0.000 A 
ATOM     15  C   UNL     1      85.593  71.805  87.558  0.00  0.00    +0.000 A 
ATOM     16  C   UNL     1      86.106  71.552  86.287  0.00  0.00    +0.000 A 
ATOM     17  C   UNL     1      87.348  70.933  86.144  0.00  0.00    +0.000 A 
ENDBRANCH  11  12
ENDBRANCH  10  11
ENDBRANCH   1  10
TORSDOF 4
ENDMDL
