MODEL 1
REMARK VINA RESULT:      -4.2      0.000      0.000
REMARK  Name = *****
REMARK  3 active torsions:
REMARK  status: ('A' for Active; 'I' for Inactive)
REMARK    1  A    between atoms: C_4  and  S_7
REMARK    2  A    between atoms: S_7  and  C_8
REMARK    3  A    between atoms: C_9  and  C_10
REMARK                            x       y       z     vdW  Elec       q    Type
REMARK                         _______ _______ _______ _____ _____    ______ ____
ROOT
ATOM      1  C   UNL     1      85.056  61.055  90.040  0.00  0.00    +0.000 C 
ATOM      2  C   UNL     1      85.361  60.075  90.663  0.00  0.00    +0.000 C 
ENDROOT
BRANCH   2   3
ATOM      3  C   UNL     1      85.722  58.911  91.411  0.00  0.00    +0.000 A 
ATOM      4  C   UNL     1      85.474  58.857  92.785  0.00  0.00    +0.000 A 
ATOM      5  C   UNL     1      85.826  57.719  93.514  0.00  0.00    +0.000 A 
ATOM      6  C   UNL     1      86.424  56.636  92.871  0.00  0.00    +0.000 A 
ATOM      7  C   UNL     1      86.672  56.687  91.500  0.00  0.00    +0.000 A 
ATOM      8  C   UNL     1      86.321  57.825  90.769  0.00  0.00    +0.000 A 
ENDBRANCH   2   3
BRANCH   1   9
ATOM      9  S   UNL     1      84.622  62.440  89.173  0.00  0.00    +0.000 S 
BRANCH   9  13
ATOM     10  C   UNL     1      88.823  63.782  90.611  0.00  0.00    +0.000 C 
ATOM     11  C   UNL     1      88.589  63.703  89.106  0.00  0.00    +0.000 C 
ATOM     12  C   UNL     1      87.330  62.902  88.772  0.00  0.00    +0.000 C 
ATOM     13  C   UNL     1      86.102  63.469  89.495  0.00  0.00    +0.000 C 
ATOM     14  C   UNL     1      86.341  63.531  91.010  0.00  0.00    +0.000 C 
ATOM     15  C   UNL     1      87.600  64.330  91.341  0.00  0.00    +0.000 C 
ENDBRANCH   9  13
ENDBRANCH   1   9
TORSDOF 3
ENDMDL
