REMARK  Name = *****
REMARK  3 active torsions:
REMARK  status: ('A' for Active; 'I' for Inactive)
REMARK    1  A    between atoms: N_2  and  C_3
REMARK    2  A    between atoms: C_8  and  C_9
REMARK    3  A    between atoms: C_10  and  C_11
REMARK                            x       y       z     vdW  Elec       q    Type
REMARK                         _______ _______ _______ _____ _____    ______ ____
ROOT
ATOM      1  C   UNL     1      -0.217   0.017  -0.799  0.00  0.00    +0.000 A 
ATOM      2  C   UNL     1       0.487  -1.177  -0.620  0.00  0.00    +0.000 A 
ATOM      3  C   UNL     1       1.507  -1.237   0.328  0.00  0.00    +0.000 A 
ATOM      4  C   UNL     1       1.819  -0.108   1.085  0.00  0.00    +0.000 A 
ATOM      5  C   UNL     1       1.110   1.083   0.900  0.00  0.00    +0.000 A 
ATOM      6  C   UNL     1       0.076   1.160  -0.043  0.00  0.00    +0.000 A 
ENDROOT
BRANCH   1   8
ATOM      7  C   UNL     1      -2.035   0.028  -2.607  0.00  0.00    +0.000 C 
ATOM      8  N   UNL     1      -1.209   0.040  -1.775  0.00  0.00    +0.000 NA
ENDBRANCH   1   8
BRANCH   6   9
ATOM      9  C   UNL     1      -0.628   2.438  -0.195  0.00  0.00    +0.000 C 
ATOM     10  C   UNL     1      -1.918   2.586   0.145  0.00  0.00    +0.000 C 
BRANCH  10  11
ATOM     11  C   UNL     1      -2.648   3.855   0.031  0.00  0.00    +0.000 A 
ATOM     12  C   UNL     1      -2.488   4.711  -1.067  0.00  0.00    +0.000 A 
ATOM     13  C   UNL     1      -3.221   5.897  -1.156  0.00  0.00    +0.000 A 
ATOM     14  C   UNL     1      -4.129   6.234  -0.155  0.00  0.00    +0.000 A 
ATOM     15  C   UNL     1      -4.309   5.383   0.933  0.00  0.00    +0.000 A 
ATOM     16  C   UNL     1      -3.577   4.196   1.022  0.00  0.00    +0.000 A 
ENDBRANCH  10  11
ENDBRANCH   6   9
TORSDOF 3
