MODEL 1
REMARK VINA RESULT:      -4.1      0.000      0.000
REMARK  Name = *****
REMARK  3 active torsions:
REMARK  status: ('A' for Active; 'I' for Inactive)
REMARK    1  A    between atoms: C_4  and  C_7
REMARK    2  A    between atoms: C_7  and  S_8
REMARK    3  A    between atoms: S_8  and  C_9
REMARK                            x       y       z     vdW  Elec       q    Type
REMARK                         _______ _______ _______ _____ _____    ______ ____
ROOT
ATOM      1  C   UNL     1     101.575 126.314  83.199  0.00  0.00    +0.000 C 
ENDROOT
BRANCH   1   5
ATOM      2  C   UNL     1     104.729 126.057  80.161  0.00  0.00    +0.000 C 
ATOM      3  C   UNL     1     104.102 124.754  80.644  0.00  0.00    +0.000 C 
ATOM      4  C   UNL     1     103.346 124.942  81.958  0.00  0.00    +0.000 C 
ATOM      5  C   UNL     1     102.287 126.057  81.857  0.00  0.00    +0.000 C 
ATOM      6  C   UNL     1     102.939 127.362  81.366  0.00  0.00    +0.000 C 
ATOM      7  C   UNL     1     103.691 127.167  80.053  0.00  0.00    +0.000 C 
ENDBRANCH   1   5
BRANCH   1   8
ATOM      8  S   UNL     1      99.912 127.038  82.971  0.00  0.00    +0.000 S 
BRANCH   8   9
ATOM      9  C   UNL     1     100.203 128.698  83.557  0.00  0.00    +0.000 A 
ATOM     10  C   UNL     1      99.256 129.715  83.403  0.00  0.00    +0.000 A 
ATOM     11  C   UNL     1      99.515 131.000  83.885  0.00  0.00    +0.000 A 
ATOM     12  C   UNL     1     100.718 131.273  84.534  0.00  0.00    +0.000 A 
ATOM     13  C   UNL     1     101.660 130.261  84.707  0.00  0.00    +0.000 A 
ATOM     14  C   UNL     1     101.401 128.976  84.224  0.00  0.00    +0.000 A 
ENDBRANCH   8   9
ENDBRANCH   1   8
TORSDOF 3
ENDMDL
