MODEL 1
REMARK VINA RESULT:      -4.9      0.000      0.000
REMARK  Name = *****
REMARK  6 active torsions:
REMARK  status: ('A' for Active; 'I' for Inactive)
REMARK    1  A    between atoms: C_1  and  C_2
REMARK    2  A    between atoms: C_3  and  N_11
REMARK    3  A    between atoms: C_5  and  C_8
REMARK    4  A    between atoms: C_8  and  C_10
REMARK    5  A    between atoms: N_11  and  C_12
REMARK    6  A    between atoms: C_12  and  C_13
REMARK                            x       y       z     vdW  Elec       q    Type
REMARK                         _______ _______ _______ _____ _____    ______ ____
ROOT
ATOM      1  C   UNL     1      89.512  71.774  84.470  0.00  0.00    +0.000 C 
ATOM      2  C   UNL     1      89.663  70.332  84.879  0.00  0.00    +0.000 C 
ATOM      3  C   UNL     1      89.548  69.903  86.154  0.00  0.00    +0.000 C 
ATOM      4  C   UNL     1      89.691  68.439  86.531  0.00  0.00    +0.000 C 
ATOM      5  C   UNL     1      90.387  67.595  85.448  0.00  0.00    +0.000 C 
ATOM      6  C   UNL     1      89.775  67.910  84.077  0.00  0.00    +0.000 C 
ATOM      7  C   UNL     1      89.951  69.389  83.733  0.00  0.00    +0.000 C 
ENDROOT
BRANCH   5   8
ATOM      8  C   UNL     1      90.374  66.104  85.766  0.00  0.00    +0.000 C 
ATOM      9  C   UNL     1      91.338  65.290  85.300  0.00  0.00    +0.000 C 
ATOM     10  C   UNL     1      89.253  65.557  86.609  0.00  0.00    +0.000 C 
ENDBRANCH   5   8
BRANCH   3  11
ATOM     11  N   UNL     1      89.240  70.754  87.187  0.00  0.00    +0.000 NA
BRANCH  11  12
ATOM     12  C   UNL     1      88.203  70.407  87.883  0.00  0.00    +0.000 C 
BRANCH  12  13
ATOM     13  C   UNL     1      86.905  71.098  87.750  0.00  0.00    +0.000 A 
ATOM     14  C   UNL     1      86.184  71.490  88.881  0.00  0.00    +0.000 A 
ATOM     15  C   UNL     1      84.959  72.142  88.730  0.00  0.00    +0.000 A 
ATOM     16  C   UNL     1      84.458  72.398  87.453  0.00  0.00    +0.000 A 
ATOM     17  C   UNL     1      85.179  72.005  86.324  0.00  0.00    +0.000 A 
ATOM     18  C   UNL     1      86.405  71.354  86.470  0.00  0.00    +0.000 A 
ENDBRANCH  12  13
ENDBRANCH  11  12
ENDBRANCH   3  11
TORSDOF 4
ENDMDL
