REMARK  Name = *****
REMARK  3 active torsions:
REMARK  status: ('A' for Active; 'I' for Inactive)
REMARK    1  A    between atoms: C_4  and  C_6
REMARK    2  A    between atoms: C_7  and  C_8
REMARK    3  A    between atoms: C_7  and  C_10
REMARK                            x       y       z     vdW  Elec       q    Type
REMARK                         _______ _______ _______ _____ _____    ______ ____
ROOT
ATOM      1  C   UNL     1       0.123  -2.733   0.031  0.00  0.00    +0.000 C 
ATOM      2  C   UNL     1       1.087  -3.673  -0.028  0.00  0.00    +0.000 C 
ENDROOT
BRANCH   2   3
ATOM      3  C   UNL     1       0.659  -5.084   0.009  0.00  0.00    +0.000 A 
ATOM      4  C   UNL     1       0.327  -5.755  -1.178  0.00  0.00    +0.000 A 
ATOM      5  C   UNL     1      -0.086  -7.089  -1.138  0.00  0.00    +0.000 A 
ATOM      6  C   UNL     1      -0.167  -7.745   0.085  0.00  0.00    +0.000 A 
ATOM      7  C   UNL     1       0.156  -7.095   1.270  0.00  0.00    +0.000 A 
ATOM      8  C   UNL     1       0.569  -5.762   1.235  0.00  0.00    +0.000 A 
ATOM      9  F   UNL     1      -0.564  -9.024   0.121  0.00  0.00    +0.000 F 
ENDBRANCH   2   3
BRANCH   1  13
ATOM     10  C   UNL     1       1.166   0.863   0.238  0.00  0.00    +0.000 A 
ATOM     11  C   UNL     1      -0.016   1.105  -0.419  0.00  0.00    +0.000 A 
ATOM     12  S   UNL     1      -0.883  -0.332  -0.724  0.00  0.00    +0.000 S 
ATOM     13  C   UNL     1       0.337  -1.321   0.000  0.00  0.00    +0.000 A 
ATOM     14  C   UNL     1       1.363  -0.528   0.487  0.00  0.00    +0.000 A 
ENDBRANCH   1  13
BRANCH   2  15
ATOM     15  C   UNL     1       2.483  -3.403  -0.157  0.00  0.00    +0.000 C 
ATOM     16  N   UNL     1       3.621  -3.195  -0.250  0.00  0.00    +0.000 NA
ENDBRANCH   2  15
TORSDOF 3
