MODEL 1
REMARK VINA RESULT:      -4.6      0.000      0.000
REMARK  Name = *****
REMARK  4 active torsions:
REMARK  status: ('A' for Active; 'I' for Inactive)
REMARK    1  A    between atoms: C_3  and  C_17
REMARK    2  A    between atoms: C_5  and  O_7
REMARK    3  A    between atoms: O_7  and  C_8
REMARK    4  A    between atoms: C_8  and  C_9
REMARK                            x       y       z     vdW  Elec       q    Type
REMARK                         _______ _______ _______ _____ _____    ______ ____
ROOT
ATOM      1  O   UNL     1     103.600 124.868  80.327  0.00  0.00    +0.000 OA
ENDROOT
BRANCH   1   6
ATOM      2  C   UNL     1     103.537 128.074  82.013  0.00  0.00    +0.000 A 
ATOM      3  C   UNL     1     102.309 128.060  82.675  0.00  0.00    +0.000 A 
ATOM      4  C   UNL     1     101.464 126.946  82.562  0.00  0.00    +0.000 A 
ATOM      5  C   UNL     1     101.868 125.850  81.777  0.00  0.00    +0.000 A 
ATOM      6  C   UNL     1     103.096 125.865  81.114  0.00  0.00    +0.000 A 
ATOM      7  C   UNL     1     103.925 126.981  81.239  0.00  0.00    +0.000 A 
BRANCH   4   8
ATOM      8  C   UNL     1     100.136 126.884  83.258  0.00  0.00    +0.000 C 
ATOM      9  O   UNL     1     100.112 126.366  84.373  0.00  0.00    +0.000 OA
ATOM     10 CL   UNL     1      98.709 127.535  82.480  0.00  0.00    +0.000 Cl
ENDBRANCH   4   8
ENDBRANCH   1   6
BRANCH   1  11
ATOM     11  C   UNL     1     104.904 124.383  80.638  0.00  0.00    +0.000 C 
BRANCH  11  12
ATOM     12  C   UNL     1     104.744 123.101  81.421  0.00  0.00    +0.000 A 
ATOM     13  C   UNL     1     104.659 123.082  82.825  0.00  0.00    +0.000 A 
ATOM     14  C   UNL     1     104.487 121.878  83.512  0.00  0.00    +0.000 A 
ATOM     15  C   UNL     1     104.389 120.692  82.797  0.00  0.00    +0.000 A 
ATOM     16  C   UNL     1     104.454 120.683  81.411  0.00  0.00    +0.000 A 
ATOM     17  C   UNL     1     104.627 121.885  80.723  0.00  0.00    +0.000 A 
ATOM     18  F   UNL     1     104.222 119.538  83.455  0.00  0.00    +0.000 F 
ATOM     19 CL   UNL     1     104.759 124.528  83.766  0.00  0.00    +0.000 Cl
ENDBRANCH  11  12
ENDBRANCH   1  11
TORSDOF 4
ENDMDL
