MODEL 1
REMARK VINA RESULT:      -3.9      0.000      0.000
REMARK  Name = *****
REMARK  4 active torsions:
REMARK  status: ('A' for Active; 'I' for Inactive)
REMARK    1  A    between atoms: C_4  and  O_7
REMARK    2  A    between atoms: O_7  and  C_8
REMARK    3  A    between atoms: C_8  and  O_10
REMARK    4  A    between atoms: O_10  and  C_11
REMARK                            x       y       z     vdW  Elec       q    Type
REMARK                         _______ _______ _______ _____ _____    ______ ____
ROOT
ATOM      1  C   UNL     1      89.728  65.979  86.072  0.00  0.00    +0.000 C 
ATOM      2  S   UNL     1      90.451  65.002  84.947  0.00  0.00    +0.000 S 
ENDROOT
BRANCH   1   3
ATOM      3  O   UNL     1      88.506  65.809  86.636  0.00  0.00    +0.000 OA
BRANCH   3   7
ATOM      4  C   UNL     1      86.911  63.937  90.096  0.00  0.00    +0.000 C 
ATOM      5  C   UNL     1      88.379  63.701  89.752  0.00  0.00    +0.000 C 
ATOM      6  C   UNL     1      88.691  64.114  88.317  0.00  0.00    +0.000 C 
ATOM      7  C   UNL     1      88.287  65.566  88.045  0.00  0.00    +0.000 C 
ATOM      8  C   UNL     1      86.809  65.785  88.377  0.00  0.00    +0.000 C 
ATOM      9  C   UNL     1      86.489  65.377  89.812  0.00  0.00    +0.000 C 
ENDBRANCH   3   7
ENDBRANCH   1   3
BRANCH   1  10
ATOM     10  O   UNL     1      90.423  67.100  86.505  0.00  0.00    +0.000 OA
BRANCH  10  11
ATOM     11  C   UNL     1      89.946  68.359  86.111  0.00  0.00    +0.000 A 
ATOM     12  C   UNL     1      89.603  69.282  87.096  0.00  0.00    +0.000 A 
ATOM     13  C   UNL     1      89.162  70.548  86.713  0.00  0.00    +0.000 A 
ATOM     14  C   UNL     1      89.081  70.879  85.358  0.00  0.00    +0.000 A 
ATOM     15  C   UNL     1      89.448  69.949  84.382  0.00  0.00    +0.000 A 
ATOM     16  C   UNL     1      89.891  68.682  84.757  0.00  0.00    +0.000 A 
ENDBRANCH  10  11
ENDBRANCH   1  10
TORSDOF 4
ENDMDL
