MODEL 1
REMARK VINA RESULT:      -4.7      0.000      0.000
REMARK  Name = *****
REMARK  4 active torsions:
REMARK  status: ('A' for Active; 'I' for Inactive)
REMARK    1  A    between atoms: C_1  and  C_2
REMARK    2  A    between atoms: C_4  and  C_17
REMARK    3  A    between atoms: C_5  and  N_8
REMARK    4  A    between atoms: C_9  and  C_10
REMARK                            x       y       z     vdW  Elec       q    Type
REMARK                         _______ _______ _______ _____ _____    ______ ____
ROOT
ATOM      1  N   UNL     1     101.757 126.547  83.227  0.00  0.00    +0.000 NA
ATOM      2  C   UNL     1     102.798 126.598  82.458  0.00  0.00    +0.000 C 
ENDROOT
BRANCH   1   7
ATOM      3  C   UNL     1      99.438 131.609  84.538  0.00  0.00    +0.000 C 
ATOM      4  C   UNL     1     100.051 130.292  84.165  0.00  0.00    +0.000 A 
ATOM      5  C   UNL     1      99.292 129.320  83.499  0.00  0.00    +0.000 A 
ATOM      6  C   UNL     1      99.845 128.072  83.166  0.00  0.00    +0.000 A 
ATOM      7  C   UNL     1     101.168 127.784  83.538  0.00  0.00    +0.000 A 
ATOM      8  C   UNL     1     101.925 128.758  84.199  0.00  0.00    +0.000 A 
ATOM      9  C   UNL     1     101.370 129.998  84.520  0.00  0.00    +0.000 A 
ATOM     10  C   UNL     1      99.014 127.055  82.436  0.00  0.00    +0.000 C 
ENDBRANCH   1   7
BRANCH   2  11
ATOM     11  C   UNL     1     103.524 125.379  82.050  0.00  0.00    +0.000 A 
ATOM     12  C   UNL     1     103.869 124.403  82.990  0.00  0.00    +0.000 A 
ATOM     13  C   UNL     1     104.557 123.258  82.583  0.00  0.00    +0.000 A 
ATOM     14  C   UNL     1     104.895 123.095  81.240  0.00  0.00    +0.000 A 
ATOM     15  C   UNL     1     104.553 124.067  80.299  0.00  0.00    +0.000 A 
ATOM     16  C   UNL     1     103.865 125.214  80.704  0.00  0.00    +0.000 A 
ATOM     17 CL   UNL     1     105.743 121.685  80.737  0.00  0.00    +0.000 Cl
ENDBRANCH   2  11
TORSDOF 2
ENDMDL
