REMARK  Name = *****
REMARK  5 active torsions:
REMARK  status: ('A' for Active; 'I' for Inactive)
REMARK    1  A    between atoms: C_1  and  C_2
REMARK    2  A    between atoms: C_3  and  N_9
REMARK    3  A    between atoms: N_9  and  N_10
REMARK    4  A    between atoms: N_10  and  C_12
REMARK    5  A    between atoms: C_13  and  C_19
REMARK                            x       y       z     vdW  Elec       q    Type
REMARK                         _______ _______ _______ _____ _____    ______ ____
ROOT
ATOM      1  N   UNL     1       1.714  -2.224  -0.285  0.00  0.00    +0.000 N 
ATOM      2  H   UNL     1       1.305  -2.929   0.268  0.00  0.00    +0.000 HD
ENDROOT
BRANCH   1   5
ATOM      3  C   UNL     1      -0.331  -1.847   1.760  0.00  0.00    +0.000 C 
ATOM      4  C   UNL     1       0.140  -0.738   0.856  0.00  0.00    +0.000 A 
ATOM      5  C   UNL     1       1.137  -0.949  -0.131  0.00  0.00    +0.000 A 
ATOM      6  C   UNL     1       1.519   0.141  -0.923  0.00  0.00    +0.000 A 
ATOM      7  C   UNL     1       0.934   1.392  -0.749  0.00  0.00    +0.000 A 
ATOM      8  C   UNL     1      -0.041   1.600   0.212  0.00  0.00    +0.000 A 
ATOM      9  C   UNL     1      -0.439   0.536   1.015  0.00  0.00    +0.000 A 
ATOM     10  F   UNL     1       1.318   2.415  -1.525  0.00  0.00    +0.000 F 
ENDBRANCH   1   5
BRANCH   1  11
ATOM     11  N   UNL     1       2.786  -2.664  -1.103  0.00  0.00    +0.000 N 
ATOM     12  O   UNL     1       3.424  -1.919  -1.817  0.00  0.00    +0.000 OA
BRANCH  11  13
ATOM     13  C   UNL     1       3.150  -4.063  -1.079  0.00  0.00    +0.000 A 
ATOM     14  C   UNL     1       4.430  -4.467  -0.654  0.00  0.00    +0.000 A 
ATOM     15  C   UNL     1       4.729  -5.838  -0.658  0.00  0.00    +0.000 A 
ATOM     16  C   UNL     1       3.771  -6.774  -1.055  0.00  0.00    +0.000 A 
ATOM     17  C   UNL     1       2.512  -6.345  -1.459  0.00  0.00    +0.000 A 
ATOM     18  C   UNL     1       2.187  -4.997  -1.478  0.00  0.00    +0.000 A 
ATOM     19  F   UNL     1       1.599  -7.247  -1.839  0.00  0.00    +0.000 F 
ATOM     20  C   UNL     1       5.481  -3.476  -0.240  0.00  0.00    +0.000 C 
ENDBRANCH  11  13
ENDBRANCH   1  11
TORSDOF 3
