MODEL 1
REMARK VINA RESULT:      -4.5      0.000      0.000
REMARK  Name = *****
REMARK  4 active torsions:
REMARK  status: ('A' for Active; 'I' for Inactive)
REMARK    1  A    between atoms: C_6  and  C_7
REMARK    2  A    between atoms: C_7  and  N_8
REMARK    3  A    between atoms: N_8  and  C_9
REMARK    4  A    between atoms: C_9  and  C_11
REMARK                            x       y       z     vdW  Elec       q    Type
REMARK                         _______ _______ _______ _____ _____    ______ ____
ROOT
ATOM      1  N   UNL     1      87.894  62.645  86.762  0.00  0.00    +0.000 N 
ATOM      2  H   UNL     1      88.652  62.024  86.863  0.00  0.00    +0.000 HD
ENDROOT
BRANCH   1   3
ATOM      3  C   UNL     1      87.926  63.484  85.660  0.00  0.00    +0.000 C 
ATOM      4  S   UNL     1      87.361  63.087  84.130  0.00  0.00    +0.000 S 
BRANCH   3   5
ATOM      5  C   UNL     1      88.545  64.813  85.948  0.00  0.00    +0.000 A 
ATOM      6  C   UNL     1      87.744  65.842  86.468  0.00  0.00    +0.000 A 
ATOM      7  C   UNL     1      88.303  67.094  86.731  0.00  0.00    +0.000 A 
ATOM      8  C   UNL     1      89.653  67.310  86.477  0.00  0.00    +0.000 A 
ATOM      9  C   UNL     1      90.458  66.299  85.963  0.00  0.00    +0.000 A 
ATOM     10  C   UNL     1      89.906  65.044  85.696  0.00  0.00    +0.000 A 
ATOM     11  F   UNL     1      90.186  68.512  86.731  0.00  0.00    +0.000 F 
ENDBRANCH   3   5
ENDBRANCH   1   3
BRANCH   1  12
ATOM     12  C   UNL     1      86.860  62.582  87.788  0.00  0.00    +0.000 C 
BRANCH  12  18
ATOM     13  C   UNL     1      86.419  63.372  90.166  0.00  0.00    +0.000 A 
ATOM     14  C   UNL     1      86.865  63.901  91.377  0.00  0.00    +0.000 A 
ATOM     15  C   UNL     1      88.216  64.175  91.552  0.00  0.00    +0.000 A 
ATOM     16  C   UNL     1      89.131  63.926  90.537  0.00  0.00    +0.000 A 
ATOM     17  C   UNL     1      88.687  63.392  89.326  0.00  0.00    +0.000 A 
ATOM     18  C   UNL     1      87.327  63.102  89.127  0.00  0.00    +0.000 A 
ATOM     19  F   UNL     1      88.640  64.692  92.712  0.00  0.00    +0.000 F 
ENDBRANCH  12  18
ENDBRANCH   1  12
TORSDOF 4
ENDMDL
