MODEL 1
REMARK VINA RESULT:      -4.7      0.000      0.000
REMARK  Name = *****
REMARK  4 active torsions:
REMARK  status: ('A' for Active; 'I' for Inactive)
REMARK    1  A    between atoms: C_4  and  C_7
REMARK    2  A    between atoms: C_7  and  C_8
REMARK    3  A    between atoms: C_7  and  C_16
REMARK    4  A    between atoms: C_8  and  C_9
REMARK                            x       y       z     vdW  Elec       q    Type
REMARK                         _______ _______ _______ _____ _____    ______ ____
ROOT
ATOM      1  C   UNL     1     100.405 127.442  82.581  0.00  0.00    +0.000 C 
ENDROOT
BRANCH   1   5
ATOM      2  C   UNL     1     100.552 131.172  84.784  0.00  0.00    +0.000 A 
ATOM      3  C   UNL     1      99.405 130.817  84.077  0.00  0.00    +0.000 A 
ATOM      4  C   UNL     1      99.362 129.611  83.375  0.00  0.00    +0.000 A 
ATOM      5  C   UNL     1     100.467 128.743  83.371  0.00  0.00    +0.000 A 
ATOM      6  C   UNL     1     101.616 129.117  84.089  0.00  0.00    +0.000 A 
ATOM      7  C   UNL     1     101.656 130.324  84.789  0.00  0.00    +0.000 A 
ENDBRANCH   1   5
BRANCH   1   8
ATOM      8  C   UNL     1      99.043 126.865  82.582  0.00  0.00    +0.000 C 
ATOM      9  N   UNL     1      97.964 126.434  82.563  0.00  0.00    +0.000 NA
ENDBRANCH   1   8
BRANCH   1  10
ATOM     10  C   UNL     1     101.409 126.388  83.095  0.00  0.00    +0.000 C 
BRANCH  10  11
ATOM     11  C   UNL     1     102.520 126.081  82.115  0.00  0.00    +0.000 A 
ATOM     12  C   UNL     1     102.844 126.995  81.101  0.00  0.00    +0.000 A 
ATOM     13  C   UNL     1     103.854 126.705  80.183  0.00  0.00    +0.000 A 
ATOM     14  C   UNL     1     104.545 125.499  80.272  0.00  0.00    +0.000 A 
ATOM     15  C   UNL     1     104.234 124.582  81.272  0.00  0.00    +0.000 A 
ATOM     16  C   UNL     1     103.225 124.872  82.193  0.00  0.00    +0.000 A 
ATOM     17 CL   UNL     1     105.788 125.141  79.138  0.00  0.00    +0.000 Cl
ENDBRANCH  10  11
ENDBRANCH   1  10
TORSDOF 4
ENDMDL
