MODEL 1
REMARK VINA RESULT:      -4.5      0.000      0.000
REMARK  Name = *****
REMARK  6 active torsions:
REMARK  status: ('A' for Active; 'I' for Inactive)
REMARK    1  A    between atoms: C_1  and  C_2
REMARK    2  A    between atoms: C_5  and  S_8
REMARK    3  A    between atoms: S_8  and  C_9
REMARK    4  A    between atoms: C_9  and  C_10
REMARK    5  A    between atoms: C_12  and  O_17
REMARK    6  A    between atoms: O_17  and  C_18
REMARK                            x       y       z     vdW  Elec       q    Type
REMARK                         _______ _______ _______ _____ _____    ______ ____
ROOT
ATOM      1  C   UNL     1     102.905 127.008  82.735  0.00  0.00    +0.000 C 
ENDROOT
BRANCH   1   2
ATOM      2  C   UNL     1     101.541 127.708  82.591  0.00  0.00    +0.000 C 
ATOM      3  C   UNL     1     100.426 126.650  82.505  0.00  0.00    +0.000 C 
ATOM      4  C   UNL     1      99.035 127.284  82.387  0.00  0.00    +0.000 C 
ATOM      5  C   UNL     1      98.781 128.242  83.552  0.00  0.00    +0.000 C 
ATOM      6  C   UNL     1      99.869 129.305  83.634  0.00  0.00    +0.000 C 
ATOM      7  C   UNL     1     101.260 128.682  83.752  0.00  0.00    +0.000 C 
ATOM      8 CL   UNL     1      99.566 130.375  85.034  0.00  0.00    +0.000 Cl
BRANCH   4   9
ATOM      9  O   UNL     1      98.018 126.280  82.436  0.00  0.00    +0.000 OA
ATOM     10  C   UNL     1      97.204 126.350  83.600  0.00  0.00    +0.000 C 
ENDBRANCH   4   9
ENDBRANCH   1   2
BRANCH   1  11
ATOM     11  S   UNL     1     103.550 126.451  81.117  0.00  0.00    +0.000 S 
BRANCH  11  16
ATOM     12  C   UNL     1     105.227 120.693  82.246  0.00  0.00    +0.000 C 
ATOM     13  C   UNL     1     104.788 122.103  81.984  0.00  0.00    +0.000 A 
ATOM     14  C   UNL     1     104.359 122.923  83.033  0.00  0.00    +0.000 A 
ATOM     15  C   UNL     1     103.976 124.247  82.790  0.00  0.00    +0.000 A 
ATOM     16  C   UNL     1     104.039 124.777  81.499  0.00  0.00    +0.000 A 
ATOM     17  C   UNL     1     104.468 123.957  80.451  0.00  0.00    +0.000 A 
ATOM     18  C   UNL     1     104.849 122.634  80.692  0.00  0.00    +0.000 A 
ENDBRANCH  11  16
ENDBRANCH   1  11
TORSDOF 4
ENDMDL
