MODEL 1
REMARK VINA RESULT:      -4.2      0.000      0.000
REMARK  Name = *****
REMARK  3 active torsions:
REMARK  status: ('A' for Active; 'I' for Inactive)
REMARK    1  A    between atoms: C_2  and  N_3
REMARK    2  A    between atoms: N_3  and  C_4
REMARK    3  A    between atoms: C_10  and  C_12
REMARK                            x       y       z     vdW  Elec       q    Type
REMARK                         _______ _______ _______ _____ _____    ______ ____
ROOT
ATOM      1  N   UNL     1      87.845  64.290  87.703  0.00  0.00    +0.000 N 
ATOM      2  C   UNL     1      88.120  63.599  88.910  0.00  0.00    +0.000 C 
ATOM      3  O   UNL     1      89.193  63.540  89.510  0.00  0.00    +0.000 OA
ENDROOT
BRANCH   1   4
ATOM      4  C   UNL     1      88.933  64.813  86.889  0.00  0.00    +0.000 A 
ATOM      5  C   UNL     1      89.270  66.177  86.874  0.00  0.00    +0.000 A 
ATOM      6  C   UNL     1      90.332  66.664  86.099  0.00  0.00    +0.000 A 
ATOM      7  C   UNL     1      91.090  65.797  85.321  0.00  0.00    +0.000 A 
ATOM      8  C   UNL     1      90.790  64.441  85.324  0.00  0.00    +0.000 A 
ATOM      9  C   UNL     1      89.729  63.956  86.099  0.00  0.00    +0.000 A 
ENDBRANCH   1   4
BRANCH   2  10
ATOM     10  C   UNL     1      86.979  62.908  89.565  0.00  0.00    +0.000 A 
ATOM     11  C   UNL     1      86.484  61.699  89.061  0.00  0.00    +0.000 A 
ATOM     12  C   UNL     1      85.430  61.057  89.713  0.00  0.00    +0.000 A 
ATOM     13  C   UNL     1      84.885  61.612  90.872  0.00  0.00    +0.000 A 
ATOM     14  C   UNL     1      85.395  62.804  91.388  0.00  0.00    +0.000 A 
ATOM     15  C   UNL     1      86.448  63.450  90.741  0.00  0.00    +0.000 A 
ENDBRANCH   2  10
BRANCH   1  17
ATOM     16  C   UNL     1      85.481  64.827  86.846  0.00  0.00    +0.000 C 
ATOM     17  C   UNL     1      86.581  64.570  87.257  0.00  0.00    +0.000 C 
ENDBRANCH   1  17
TORSDOF 3
ENDMDL
