MODEL 1
REMARK VINA RESULT:      -4.9      0.000      0.000
REMARK  Name = *****
REMARK  6 active torsions:
REMARK  status: ('A' for Active; 'I' for Inactive)
REMARK    1  A    between atoms: C_1  and  N_2
REMARK    2  A    between atoms: N_2  and  C_3
REMARK    3  A    between atoms: N_2  and  C_4
REMARK    4  A    between atoms: C_7  and  C_10
REMARK    5  A    between atoms: C_10  and  C_11
REMARK    6  A    between atoms: C_11  and  C_12
REMARK                            x       y       z     vdW  Elec       q    Type
REMARK                         _______ _______ _______ _____ _____    ______ ____
ROOT
ATOM      1  C   UNL     1     102.676 126.253  81.482  0.00  0.00    +0.000 C 
ENDROOT
BRANCH   1   5
ATOM      2  C   UNL     1     105.554 123.014  80.895  0.00  0.00    +0.000 A 
ATOM      3  C   UNL     1     105.281 123.964  79.895  0.00  0.00    +0.000 A 
ATOM      4  C   UNL     1     104.361 125.007  80.078  0.00  0.00    +0.000 A 
ATOM      5  C   UNL     1     103.682 125.149  81.287  0.00  0.00    +0.000 A 
ATOM      6  C   UNL     1     103.939 124.227  82.302  0.00  0.00    +0.000 A 
ATOM      7  C   UNL     1     104.863 123.189  82.107  0.00  0.00    +0.000 A 
BRANCH   2   9
ATOM      8  C   UNL     1     106.356 120.767  81.504  0.00  0.00    +0.000 C 
ATOM      9  N   UNL     1     106.488 121.987  80.708  0.00  0.00    +0.000 N 
ATOM     10  C   UNL     1     107.847 122.325  80.291  0.00  0.00    +0.000 C 
ENDBRANCH   2   9
ENDBRANCH   1   5
BRANCH   1  11
ATOM     11  C   UNL     1     101.809 126.014  82.721  0.00  0.00    +0.000 C 
BRANCH  11  12
ATOM     12  C   UNL     1     100.900 127.179  82.994  0.00  0.00    +0.000 A 
ATOM     13  C   UNL     1      99.572 127.174  82.563  0.00  0.00    +0.000 A 
ATOM     14  C   UNL     1      98.727 128.258  82.795  0.00  0.00    +0.000 A 
ATOM     15  C   UNL     1      99.208 129.381  83.466  0.00  0.00    +0.000 A 
ATOM     16  C   UNL     1     100.534 129.411  83.896  0.00  0.00    +0.000 A 
ATOM     17  C   UNL     1     101.365 128.318  83.654  0.00  0.00    +0.000 A 
ATOM     18  F   UNL     1     102.640 128.376  84.066  0.00  0.00    +0.000 F 
ATOM     19  F   UNL     1      99.090 126.110  81.905  0.00  0.00    +0.000 F 
ENDBRANCH  11  12
ENDBRANCH   1  11
TORSDOF 4
ENDMDL
