MODEL 1
REMARK VINA RESULT:      -4.3      0.000      0.000
REMARK  Name = *****
REMARK  4 active torsions:
REMARK  status: ('A' for Active; 'I' for Inactive)
REMARK    1  A    between atoms: C_3  and  C_16
REMARK    2  A    between atoms: C_6  and  C_7
REMARK    3  A    between atoms: C_7  and  S_8
REMARK    4  A    between atoms: S_8  and  C_9
REMARK                            x       y       z     vdW  Elec       q    Type
REMARK                         _______ _______ _______ _____ _____    ______ ____
ROOT
ATOM      1  C   UNL     1      89.960  66.888  86.388  0.00  0.00    +0.000 C 
ENDROOT
BRANCH   1   7
ATOM      2  C   UNL     1      89.718  69.386  86.701  0.00  0.00    +0.000 A 
ATOM      3  C   UNL     1      89.644  70.685  86.193  0.00  0.00    +0.000 A 
ATOM      4  C   UNL     1      89.722  70.905  84.815  0.00  0.00    +0.000 A 
ATOM      5  C   UNL     1      89.878  69.819  83.947  0.00  0.00    +0.000 A 
ATOM      6  C   UNL     1      89.951  68.519  84.457  0.00  0.00    +0.000 A 
ATOM      7  C   UNL     1      89.864  68.290  85.838  0.00  0.00    +0.000 A 
BRANCH   4   8
ATOM      8  C   UNL     1      89.648  72.237  84.293  0.00  0.00    +0.000 C 
ATOM      9  N   UNL     1      89.588  73.316  83.867  0.00  0.00    +0.000 NA
ENDBRANCH   4   8
ENDBRANCH   1   7
BRANCH   1  10
ATOM     10  S   UNL     1      88.494  65.900  85.942  0.00  0.00    +0.000 S 
BRANCH  10  11
ATOM     11  C   UNL     1      87.989  65.375  87.568  0.00  0.00    +0.000 A 
ATOM     12  C   UNL     1      88.627  64.283  88.164  0.00  0.00    +0.000 A 
ATOM     13  C   UNL     1      88.254  63.859  89.443  0.00  0.00    +0.000 A 
ATOM     14  C   UNL     1      87.247  64.535  90.128  0.00  0.00    +0.000 A 
ATOM     15  C   UNL     1      86.615  65.633  89.549  0.00  0.00    +0.000 A 
ATOM     16  C   UNL     1      86.988  66.055  88.271  0.00  0.00    +0.000 A 
ATOM     17 CL   UNL     1      86.786  64.015  91.702  0.00  0.00    +0.000 Cl
ENDBRANCH  10  11
ENDBRANCH   1  10
TORSDOF 4
ENDMDL
