MODEL 1
REMARK VINA RESULT:      -4.3      0.000      0.000
REMARK  Name = *****
REMARK  4 active torsions:
REMARK  status: ('A' for Active; 'I' for Inactive)
REMARK    1  A    between atoms: C_1  and  C_2
REMARK    2  A    between atoms: C_5  and  C_8
REMARK    3  A    between atoms: C_8  and  C_16
REMARK    4  A    between atoms: N_9  and  C_10
REMARK                            x       y       z     vdW  Elec       q    Type
REMARK                         _______ _______ _______ _____ _____    ______ ____
ROOT
ATOM      1  C   UNL     1     102.829 125.691  83.223  0.00  0.00    +0.000 C 
ATOM      2  N   UNL     1     101.666 125.733  83.804  0.00  0.00    +0.000 NA
ATOM      3  C   UNL     1     103.678 124.464  83.465  0.00  0.00    +0.000 C 
ENDROOT
BRANCH   1   8
ATOM      4  C   UNL     1     105.155 129.652  79.713  0.00  0.00    +0.000 C 
ATOM      5  C   UNL     1     104.528 128.641  80.627  0.00  0.00    +0.000 A 
ATOM      6  C   UNL     1     104.774 128.689  82.006  0.00  0.00    +0.000 A 
ATOM      7  C   UNL     1     104.216 127.734  82.859  0.00  0.00    +0.000 A 
ATOM      8  C   UNL     1     103.411 126.723  82.331  0.00  0.00    +0.000 A 
ATOM      9  C   UNL     1     103.176 126.651  80.956  0.00  0.00    +0.000 A 
ATOM     10  C   UNL     1     103.737 127.607  80.107  0.00  0.00    +0.000 A 
ENDBRANCH   1   8
BRANCH   2  11
ATOM     11  C   UNL     1     100.784 126.803  83.596  0.00  0.00    +0.000 A 
ATOM     12  C   UNL     1      99.753 126.726  82.656  0.00  0.00    +0.000 A 
ATOM     13  C   UNL     1      98.871 127.795  82.483  0.00  0.00    +0.000 A 
ATOM     14  C   UNL     1      99.004 128.942  83.263  0.00  0.00    +0.000 A 
ATOM     15  C   UNL     1     100.013 129.016  84.222  0.00  0.00    +0.000 A 
ATOM     16  C   UNL     1     100.893 127.945  84.392  0.00  0.00    +0.000 A 
ENDBRANCH   2  11
TORSDOF 2
ENDMDL
