MODEL 1
REMARK VINA RESULT:      -4.6      0.000      0.000
REMARK  Name = *****
REMARK  5 active torsions:
REMARK  status: ('A' for Active; 'I' for Inactive)
REMARK    1  A    between atoms: C_1  and  C_2
REMARK    2  A    between atoms: C_5  and  C_8
REMARK    3  A    between atoms: C_8  and  S_9
REMARK    4  A    between atoms: S_9  and  C_10
REMARK    5  A    between atoms: C_13  and  C_16
REMARK                            x       y       z     vdW  Elec       q    Type
REMARK                         _______ _______ _______ _____ _____    ______ ____
ROOT
ATOM      1  C   UNL     1      87.759  70.795  85.589  0.00  0.00    +0.000 C 
ENDROOT
BRANCH   1   6
ATOM      2  C   UNL     1      83.091  73.033  88.266  0.00  0.00    +0.000 C 
ATOM      3  C   UNL     1      84.278  72.428  87.577  0.00  0.00    +0.000 A 
ATOM      4  C   UNL     1      84.383  72.468  86.183  0.00  0.00    +0.000 A 
ATOM      5  C   UNL     1      85.505  71.937  85.541  0.00  0.00    +0.000 A 
ATOM      6  C   UNL     1      86.544  71.360  86.283  0.00  0.00    +0.000 A 
ATOM      7  C   UNL     1      86.447  71.342  87.681  0.00  0.00    +0.000 A 
ATOM      8  C   UNL     1      85.325  71.874  88.322  0.00  0.00    +0.000 A 
ENDBRANCH   1   6
BRANCH   1   9
ATOM      9  S   UNL     1      89.092  70.421  86.776  0.00  0.00    +0.000 S 
BRANCH   9  10
ATOM     10  C   UNL     1      88.983  68.642  86.829  0.00  0.00    +0.000 A 
ATOM     11  C   UNL     1      87.901  67.981  87.417  0.00  0.00    +0.000 A 
ATOM     12  C   UNL     1      87.857  66.583  87.448  0.00  0.00    +0.000 A 
ATOM     13  C   UNL     1      88.894  65.828  86.891  0.00  0.00    +0.000 A 
ATOM     14  C   UNL     1      89.991  66.491  86.331  0.00  0.00    +0.000 A 
ATOM     15  C   UNL     1      90.034  67.888  86.301  0.00  0.00    +0.000 A 
ATOM     16  C   UNL     1      88.863  64.329  86.959  0.00  0.00    +0.000 C 
ENDBRANCH   9  10
ENDBRANCH   1   9
TORSDOF 3
ENDMDL
