MODEL 1
REMARK VINA RESULT:      -4.6      0.000      0.000
REMARK  Name = *****
REMARK  3 active torsions:
REMARK  status: ('A' for Active; 'I' for Inactive)
REMARK    1  A    between atoms: C_1  and  C_2
REMARK    2  A    between atoms: C_2  and  C_10
REMARK    3  A    between atoms: N_3  and  C_4
REMARK                            x       y       z     vdW  Elec       q    Type
REMARK                         _______ _______ _______ _____ _____    ______ ____
ROOT
ATOM      1  C   UNL     1     103.023 127.114  80.895  0.00  0.00    +0.000 C 
ATOM      2  C   UNL     1     102.808 125.916  81.799  0.00  0.00    +0.000 C 
ATOM      3  N   UNL     1     101.876 125.842  82.708  0.00  0.00    +0.000 NA
ENDROOT
BRANCH   3   4
ATOM      4  C   UNL     1     100.992 126.913  82.889  0.00  0.00    +0.000 A 
ATOM      5  C   UNL     1      99.674 126.829  82.433  0.00  0.00    +0.000 A 
ATOM      6  C   UNL     1      98.788 127.889  82.632  0.00  0.00    +0.000 A 
ATOM      7  C   UNL     1      99.213 129.034  83.305  0.00  0.00    +0.000 A 
ATOM      8  C   UNL     1     100.520 129.116  83.783  0.00  0.00    +0.000 A 
ATOM      9  C   UNL     1     101.404 128.055  83.581  0.00  0.00    +0.000 A 
ENDBRANCH   3   4
BRANCH   2  10
ATOM     10  C   UNL     1     103.731 124.753  81.613  0.00  0.00    +0.000 C 
ATOM     11  C   UNL     1     104.249 124.543  80.391  0.00  0.00    +0.000 C 
ATOM     12  C   UNL     1     105.205 123.426  80.089  0.00  0.00    +0.000 C 
ATOM     13  C   UNL     1     105.310 122.396  81.217  0.00  0.00    +0.000 C 
ATOM     14  C   UNL     1     105.333 123.069  82.587  0.00  0.00    +0.000 C 
ATOM     15  C   UNL     1     104.074 123.913  82.808  0.00  0.00    +0.000 C 
ENDBRANCH   2  10
TORSDOF 2
ENDMDL
