MODEL 1
REMARK VINA RESULT:      -4.7      0.000      0.000
REMARK  Name = *****
REMARK  5 active torsions:
REMARK  status: ('A' for Active; 'I' for Inactive)
REMARK    1  A    between atoms: C_1  and  C_2
REMARK    2  A    between atoms: C_5  and  S_8
REMARK    3  A    between atoms: S_8  and  C_9
REMARK    4  A    between atoms: C_9  and  C_11
REMARK    5  A    between atoms: C_14  and  C_17
REMARK                            x       y       z     vdW  Elec       q    Type
REMARK                         _______ _______ _______ _____ _____    ______ ____
ROOT
ATOM      1  C   UNL     1      89.846  67.093  85.817  0.00  0.00    +0.000 C 
ATOM      2  O   UNL     1      90.871  66.653  86.325  0.00  0.00    +0.000 OA
ENDROOT
BRANCH   1   3
ATOM      3  C   UNL     1      89.768  68.538  85.429  0.00  0.00    +0.000 A 
ATOM      4  C   UNL     1      89.881  68.850  84.064  0.00  0.00    +0.000 A 
ATOM      5  C   UNL     1      89.822  70.176  83.621  0.00  0.00    +0.000 A 
ATOM      6  C   UNL     1      89.648  71.213  84.539  0.00  0.00    +0.000 A 
ATOM      7  C   UNL     1      89.530  70.916  85.900  0.00  0.00    +0.000 A 
ATOM      8  C   UNL     1      89.589  69.588  86.344  0.00  0.00    +0.000 A 
BRANCH   6   9
ATOM      9  C   UNL     1      89.588  72.574  84.089  0.00  0.00    +0.000 C 
ATOM     10  N   UNL     1      89.542  73.674  83.724  0.00  0.00    +0.000 NA
ENDBRANCH   6   9
ENDBRANCH   1   3
BRANCH   1  11
ATOM     11  S   UNL     1      88.438  66.077  85.521  0.00  0.00    +0.000 S 
BRANCH  11  16
ATOM     12  C   UNL     1      87.215  64.061  91.143  0.00  0.00    +0.000 C 
ATOM     13  C   UNL     1      87.493  64.532  89.746  0.00  0.00    +0.000 A 
ATOM     14  C   UNL     1      88.426  63.862  88.946  0.00  0.00    +0.000 A 
ATOM     15  C   UNL     1      88.709  64.318  87.654  0.00  0.00    +0.000 A 
ATOM     16  C   UNL     1      88.063  65.447  87.144  0.00  0.00    +0.000 A 
ATOM     17  C   UNL     1      87.150  66.131  87.952  0.00  0.00    +0.000 A 
ATOM     18  C   UNL     1      86.868  65.679  89.244  0.00  0.00    +0.000 A 
ENDBRANCH  11  16
ENDBRANCH   1  11
TORSDOF 4
ENDMDL
