MODEL 1
REMARK VINA RESULT:      -4.7      0.000      0.000
REMARK  Name = *****
REMARK  4 active torsions:
REMARK  status: ('A' for Active; 'I' for Inactive)
REMARK    1  A    between atoms: C_1  and  C_2
REMARK    2  A    between atoms: C_2  and  C_12
REMARK    3  A    between atoms: N_3  and  C_4
REMARK    4  A    between atoms: C_4  and  C_5
REMARK                            x       y       z     vdW  Elec       q    Type
REMARK                         _______ _______ _______ _____ _____    ______ ____
ROOT
ATOM      1  C   UNL     1      90.896  65.968  85.658  0.00  0.00    +0.000 C 
ATOM      2  C   UNL     1      89.750  66.809  86.188  0.00  0.00    +0.000 C 
ATOM      3  N   UNL     1      88.775  66.347  86.899  0.00  0.00    +0.000 NA
ENDROOT
BRANCH   2   4
ATOM      4  C   UNL     1      89.760  68.280  85.867  0.00  0.00    +0.000 A 
ATOM      5  C   UNL     1      89.966  68.758  84.566  0.00  0.00    +0.000 A 
ATOM      6  C   UNL     1      89.968  70.132  84.310  0.00  0.00    +0.000 A 
ATOM      7  C   UNL     1      89.766  71.040  85.348  0.00  0.00    +0.000 A 
ATOM      8  C   UNL     1      89.563  70.577  86.646  0.00  0.00    +0.000 A 
ATOM      9  C   UNL     1      89.560  69.204  86.904  0.00  0.00    +0.000 A 
ENDBRANCH   2   4
BRANCH   3  10
ATOM     10  C   UNL     1      88.710  64.935  87.256  0.00  0.00    +0.000 C 
BRANCH  10  11
ATOM     11  C   UNL     1      88.147  64.751  88.648  0.00  0.00    +0.000 A 
ATOM     12  C   UNL     1      88.860  64.010  89.606  0.00  0.00    +0.000 A 
ATOM     13  C   UNL     1      88.356  63.850  90.896  0.00  0.00    +0.000 A 
ATOM     14  C   UNL     1      87.139  64.432  91.232  0.00  0.00    +0.000 A 
ATOM     15  C   UNL     1      86.419  65.171  90.302  0.00  0.00    +0.000 A 
ATOM     16  C   UNL     1      86.921  65.333  89.010  0.00  0.00    +0.000 A 
ATOM     17  F   UNL     1      86.654  64.279  92.472  0.00  0.00    +0.000 F 
ENDBRANCH  10  11
ENDBRANCH   3  10
TORSDOF 3
ENDMDL
