MODEL 1
REMARK VINA RESULT:      -5.1      0.000      0.000
REMARK  Name = *****
REMARK  1 active torsions:
REMARK  status: ('A' for Active; 'I' for Inactive)
REMARK    1  A    between atoms: C_4  and  C_7
REMARK                            x       y       z     vdW  Elec       q    Type
REMARK                         _______ _______ _______ _____ _____    ______ ____
ROOT
ATOM      1  C   UNL     1     102.624 125.870  82.450  0.00  0.00    +0.000 A 
ATOM      2  C   UNL     1     103.367 125.834  81.269  0.00  0.00    +0.000 A 
ATOM      3  C   UNL     1     104.287 124.776  81.041  0.00  0.00    +0.000 A 
ATOM      4  C   UNL     1     104.410 123.804  82.049  0.00  0.00    +0.000 A 
ATOM      5  C   UNL     1     105.305 122.751  81.858  0.00  0.00    +0.000 A 
ATOM      6  C   UNL     1     106.082 122.626  80.710  0.00  0.00    +0.000 A 
ATOM      7  C   UNL     1     105.973 123.577  79.708  0.00  0.00    +0.000 A 
ATOM      8  C   UNL     1     105.086 124.641  79.872  0.00  0.00    +0.000 A 
ATOM      9  F   UNL     1     105.439 121.810  82.808  0.00  0.00    +0.000 F 
ATOM     10  N   UNL     1     103.686 123.886  83.175  0.00  0.00    +0.000 NA
ATOM     11  N   UNL     1     102.796 124.912  83.383  0.00  0.00    +0.000 NA
ATOM     12 CL   UNL     1     103.201 127.107  80.092  0.00  0.00    +0.000 Cl
ENDROOT
BRANCH   1  16
ATOM     13  C   UNL     1      99.715 128.854  83.466  0.00  0.00    +0.000 A 
ATOM     14  C   UNL     1     101.055 129.056  83.785  0.00  0.00    +0.000 A 
ATOM     15  C   UNL     1     102.007 128.087  83.457  0.00  0.00    +0.000 A 
ATOM     16  C   UNL     1     101.634 126.895  82.810  0.00  0.00    +0.000 A 
ATOM     17  C   UNL     1     100.278 126.720  82.483  0.00  0.00    +0.000 A 
ATOM     18  C   UNL     1      99.326 127.688  82.812  0.00  0.00    +0.000 A 
ENDBRANCH   1  16
TORSDOF 1
ENDMDL
