REMARK  Name = *****
REMARK  3 active torsions:
REMARK  status: ('A' for Active; 'I' for Inactive)
REMARK    1  A    between atoms: C_4  and  C_6
REMARK    2  A    between atoms: C_6  and  C_15
REMARK    3  A    between atoms: C_7  and  C_8
REMARK                            x       y       z     vdW  Elec       q    Type
REMARK                         _______ _______ _______ _____ _____    ______ ____
ROOT
ATOM      1  C   UNL     1      -0.063  -2.752   0.226  0.00  0.00    +0.000 C 
ATOM      2  C   UNL     1      -1.267  -3.248  -0.131  0.00  0.00    +0.000 C 
ENDROOT
BRANCH   2   3
ATOM      3  C   UNL     1      -1.657  -4.663  -0.081  0.00  0.00    +0.000 A 
ATOM      4  C   UNL     1      -1.768  -5.344   1.140  0.00  0.00    +0.000 A 
ATOM      5  C   UNL     1      -2.154  -6.685   1.163  0.00  0.00    +0.000 A 
ATOM      6  C   UNL     1      -2.436  -7.339  -0.031  0.00  0.00    +0.000 A 
ATOM      7  C   UNL     1      -2.341  -6.676  -1.249  0.00  0.00    +0.000 A 
ATOM      8  C   UNL     1      -1.955  -5.334  -1.275  0.00  0.00    +0.000 A 
ATOM      9  F   UNL     1      -2.809  -8.625  -0.007  0.00  0.00    +0.000 F 
ENDBRANCH   2   3
BRANCH   1  13
ATOM     10  C   UNL     1       1.247   0.715  -0.317  0.00  0.00    +0.000 A 
ATOM     11  C   UNL     1       0.058   1.141   0.225  0.00  0.00    +0.000 A 
ATOM     12  S   UNL     1      -0.948  -0.164   0.667  0.00  0.00    +0.000 S 
ATOM     13  C   UNL     1       0.190  -1.342   0.110  0.00  0.00    +0.000 A 
ATOM     14  C   UNL     1       1.326  -0.706  -0.375  0.00  0.00    +0.000 A 
ENDBRANCH   1  13
BRANCH   1  15
ATOM     15  C   UNL     1       0.999  -3.609   0.666  0.00  0.00    +0.000 C 
ATOM     16  N   UNL     1       1.870  -4.290   1.020  0.00  0.00    +0.000 NA
ENDBRANCH   1  15
TORSDOF 3
