MODEL 1
REMARK VINA RESULT:      -4.3      0.000      0.000
REMARK  Name = *****
REMARK  4 active torsions:
REMARK  status: ('A' for Active; 'I' for Inactive)
REMARK    1  A    between atoms: C_3  and  C_9
REMARK    2  A    between atoms: C_6  and  S_7
REMARK    3  A    between atoms: C_6  and  S_8
REMARK    4  A    between atoms: C_10  and  C_11
REMARK                            x       y       z     vdW  Elec       q    Type
REMARK                         _______ _______ _______ _____ _____    ______ ____
ROOT
ATOM      1  C   UNL     1     104.558 123.650  82.818  0.00  0.00    +0.000 C 
ATOM      2  C   UNL     1     103.547 124.761  82.974  0.00  0.00    +0.000 C 
ATOM      3  C   UNL     1     103.051 125.498  81.959  0.00  0.00    +0.000 C 
ATOM      4  C   UNL     1     103.558 125.255  80.617  0.00  0.00    +0.000 C 
ATOM      5  C   UNL     1     104.467 124.309  80.333  0.00  0.00    +0.000 C 
ATOM      6  C   UNL     1     105.077 123.403  81.371  0.00  0.00    +0.000 C 
ENDROOT
BRANCH   6   7
ATOM      7  S   UNL     1     106.896 123.664  81.306  0.00  0.00    +0.000 S 
ATOM      8  H   UNL     1     107.377 123.820  82.569  0.00  0.00    +0.000 HD
ENDBRANCH   6   7
BRANCH   6   9
ATOM      9  S   UNL     1     104.725 121.675  80.858  0.00  0.00    +0.000 S 
ATOM     10  H   UNL     1     105.072 121.509  79.553  0.00  0.00    +0.000 HD
ENDBRANCH   6   9
BRANCH   3  11
ATOM     11  C   UNL     1     102.100 126.557  82.290  0.00  0.00    +0.000 C 
ATOM     12  C   UNL     1     102.254 127.444  83.287  0.00  0.00    +0.000 C 
BRANCH  12  13
ATOM     13  C   UNL     1     101.285 128.507  83.593  0.00  0.00    +0.000 A 
ATOM     14  C   UNL     1     101.651 129.680  84.265  0.00  0.00    +0.000 A 
ATOM     15  C   UNL     1     100.708 130.683  84.510  0.00  0.00    +0.000 A 
ATOM     16  C   UNL     1      99.394 130.527  84.076  0.00  0.00    +0.000 A 
ATOM     17  C   UNL     1      99.023 129.372  83.393  0.00  0.00    +0.000 A 
ATOM     18  C   UNL     1      99.964 128.369  83.147  0.00  0.00    +0.000 A 
ENDBRANCH  12  13
ENDBRANCH   3  11
TORSDOF 4
ENDMDL
