MODEL 1
REMARK VINA RESULT:      -4.3      0.000      0.000
REMARK  Name = *****
REMARK  2 active torsions:
REMARK  status: ('A' for Active; 'I' for Inactive)
REMARK    1  A    between atoms: C_2  and  C_11
REMARK    2  A    between atoms: N_3  and  C_4
REMARK                            x       y       z     vdW  Elec       q    Type
REMARK                         _______ _______ _______ _____ _____    ______ ____
ROOT
ATOM      1  C   UNL     1      86.223  63.538  86.616  0.00  0.00    +0.000 C 
ATOM      2  C   UNL     1      87.633  63.765  86.149  0.00  0.00    +0.000 C 
ATOM      3  N   UNL     1      87.337  62.929  87.337  0.00  0.00    +0.000 N 
ENDROOT
BRANCH   3   4
ATOM      4  C   UNL     1      87.619  63.335  88.667  0.00  0.00    +0.000 A 
ATOM      5  C   UNL     1      88.893  63.464  89.238  0.00  0.00    +0.000 A 
ATOM      6  C   UNL     1      89.050  63.876  90.568  0.00  0.00    +0.000 A 
ATOM      7  C   UNL     1      87.931  64.171  91.340  0.00  0.00    +0.000 A 
ATOM      8  C   UNL     1      86.656  64.060  90.796  0.00  0.00    +0.000 A 
ATOM      9  C   UNL     1      86.507  63.647  89.468  0.00  0.00    +0.000 A 
ATOM     10 CL   UNL     1      88.125  64.673  92.974  0.00  0.00    +0.000 Cl
ENDBRANCH   3   4
BRANCH   2  11
ATOM     11  C   UNL     1      88.344  65.096  86.238  0.00  0.00    +0.000 A 
ATOM     12  C   UNL     1      87.628  66.248  86.629  0.00  0.00    +0.000 A 
ATOM     13  C   UNL     1      88.240  67.499  86.745  0.00  0.00    +0.000 A 
ATOM     14  C   UNL     1      89.599  67.633  86.491  0.00  0.00    +0.000 A 
ATOM     15  C   UNL     1      90.344  66.513  86.134  0.00  0.00    +0.000 A 
ATOM     16  C   UNL     1      89.726  65.260  86.019  0.00  0.00    +0.000 A 
ATOM     17 CL   UNL     1      90.740  63.915  85.625  0.00  0.00    +0.000 Cl
ENDBRANCH   2  11
TORSDOF 2
ENDMDL
