REMARK  Name = *****
REMARK  6 active torsions:
REMARK  status: ('A' for Active; 'I' for Inactive)
REMARK    1  A    between atoms: C_1  and  C_2
REMARK    2  A    between atoms: C_3  and  O_9
REMARK    3  A    between atoms: C_4  and  C_8
REMARK    4  A    between atoms: O_9  and  C_10
REMARK    5  A    between atoms: C_10  and  C_11
REMARK    6  A    between atoms: C_10  and  C_12
REMARK                            x       y       z     vdW  Elec       q    Type
REMARK                         _______ _______ _______ _____ _____    ______ ____
ROOT
ATOM      1  O   UNL     1       1.913   3.201  -1.198  0.00  0.00    +0.000 OA
ENDROOT
BRANCH   1   4
ATOM      2  C   UNL     1       4.198   3.362   0.579  0.00  0.00    +0.000 C 
ATOM      3  C   UNL     1       4.113   4.077  -0.739  0.00  0.00    +0.000 A 
ATOM      4  C   UNL     1       2.988   3.970  -1.577  0.00  0.00    +0.000 A 
ATOM      5  C   UNL     1       2.981   4.568  -2.849  0.00  0.00    +0.000 A 
ATOM      6  C   UNL     1       4.063   5.379  -3.222  0.00  0.00    +0.000 A 
ATOM      7  C   UNL     1       5.152   5.547  -2.369  0.00  0.00    +0.000 A 
ATOM      8  C   UNL     1       5.181   4.893  -1.139  0.00  0.00    +0.000 A 
ATOM      9  C   UNL     1       1.837   4.403  -3.807  0.00  0.00    +0.000 C 
ENDBRANCH   1   4
BRANCH   1  10
ATOM     10  C   UNL     1       1.041   3.899  -0.285  0.00  0.00    +0.000 C 
ATOM     11  C   UNL     1       0.626   2.917   0.814  0.00  0.00    +0.000 C 
BRANCH  10  12
ATOM     12  C   UNL     1      -0.187   4.419  -1.015  0.00  0.00    +0.000 A 
ATOM     13  C   UNL     1      -0.525   5.779  -0.940  0.00  0.00    +0.000 A 
ATOM     14  C   UNL     1      -1.653   6.269  -1.602  0.00  0.00    +0.000 A 
ATOM     15  C   UNL     1      -2.456   5.406  -2.346  0.00  0.00    +0.000 A 
ATOM     16  C   UNL     1      -2.132   4.054  -2.431  0.00  0.00    +0.000 A 
ATOM     17  C   UNL     1      -1.005   3.563  -1.770  0.00  0.00    +0.000 A 
ENDBRANCH  10  12
ENDBRANCH   1  10
TORSDOF 3
