MODEL 1
REMARK VINA RESULT:      -4.6      0.000      0.000
REMARK  Name = *****
REMARK  3 active torsions:
REMARK  status: ('A' for Active; 'I' for Inactive)
REMARK    1  A    between atoms: C_6  and  C_8
REMARK    2  A    between atoms: C_8  and  C_9
REMARK    3  A    between atoms: C_10  and  C_11
REMARK                            x       y       z     vdW  Elec       q    Type
REMARK                         _______ _______ _______ _____ _____    ______ ____
ROOT
ATOM      1  C   UNL     1      89.870  68.345  86.132  0.00  0.00    +0.000 C 
ENDROOT
BRANCH   1   7
ATOM      2  C   UNL     1      88.492  64.984  87.588  0.00  0.00    +0.000 C 
ATOM      3  C   UNL     1      88.782  64.097  86.383  0.00  0.00    +0.000 C 
ATOM      4  C   UNL     1      90.127  64.430  85.755  0.00  0.00    +0.000 C 
ATOM      5  C   UNL     1      90.235  65.909  85.445  0.00  0.00    +0.000 C 
ATOM      6  O   UNL     1      90.744  66.287  84.389  0.00  0.00    +0.000 OA
ATOM      7  C   UNL     1      89.851  66.869  86.570  0.00  0.00    +0.000 C 
ATOM      8  C   UNL     1      88.507  66.457  87.187  0.00  0.00    +0.000 C 
ENDBRANCH   1   7
BRANCH   1   9
ATOM      9  C   UNL     1      88.555  69.062  86.289  0.00  0.00    +0.000 C 
ATOM     10  C   UNL     1      88.391  70.174  87.024  0.00  0.00    +0.000 C 
BRANCH  10  11
ATOM     11  C   UNL     1      87.108  70.870  87.188  0.00  0.00    +0.000 A 
ATOM     12  C   UNL     1      86.564  71.148  88.450  0.00  0.00    +0.000 A 
ATOM     13  C   UNL     1      85.359  71.847  88.567  0.00  0.00    +0.000 A 
ATOM     14  C   UNL     1      84.692  72.285  87.426  0.00  0.00    +0.000 A 
ATOM     15  C   UNL     1      85.230  72.029  86.166  0.00  0.00    +0.000 A 
ATOM     16  C   UNL     1      86.435  71.330  86.049  0.00  0.00    +0.000 A 
ENDBRANCH  10  11
ENDBRANCH   1   9
TORSDOF 3
ENDMDL
