REMARK  Name = *****
REMARK  6 active torsions:
REMARK  status: ('A' for Active; 'I' for Inactive)
REMARK    1  A    between atoms: C_1  and  C_2
REMARK    2  A    between atoms: C_4  and  C_8
REMARK    3  A    between atoms: C_5  and  C_7
REMARK    4  A    between atoms: C_9  and  C_10
REMARK    5  A    between atoms: C_11  and  C_16
REMARK    6  A    between atoms: C_13  and  C_15
REMARK                            x       y       z     vdW  Elec       q    Type
REMARK                         _______ _______ _______ _____ _____    ______ ____
ROOT
ATOM      1  C   UNL     1       5.931   1.497   0.068  0.00  0.00    +0.000 C 
ATOM      2  C   UNL     1       6.922   2.176   0.076  0.00  0.00    +0.000 C 
ENDROOT
BRANCH   1   6
ATOM      3  C   UNL     1       1.166  -0.203   0.032  0.00  0.00    +0.000 C 
ATOM      4  C   UNL     1       2.624   0.021   0.043  0.00  0.00    +0.000 A 
ATOM      5  C   UNL     1       3.413   1.151   0.050  0.00  0.00    +0.000 A 
ATOM      6  C   UNL     1       4.753   0.698   0.059  0.00  0.00    +0.000 A 
ATOM      7  C   UNL     1       4.704  -0.679   0.056  0.00  0.00    +0.000 A 
ATOM      8  O   UNL     1       3.405  -1.096   0.046  0.00  0.00    +0.000 OA
ATOM      9  C   UNL     1       5.722  -1.749   0.061  0.00  0.00    +0.000 C 
ENDBRANCH   1   6
BRANCH   2  10
ATOM     10  C   UNL     1       8.101   2.986   0.085  0.00  0.00    +0.000 A 
ATOM     11  C   UNL     1       8.089   4.367   0.080  0.00  0.00    +0.000 A 
ATOM     12  S   UNL     1       9.682   5.005   0.094  0.00  0.00    +0.000 S 
ATOM     13  C   UNL     1      10.386   3.448   0.107  0.00  0.00    +0.000 A 
ATOM     14  C   UNL     1       9.425   2.459   0.101  0.00  0.00    +0.000 A 
ATOM     15  C   UNL     1      11.868   3.285   0.122  0.00  0.00    +0.000 C 
ATOM     16  C   UNL     1       6.935   5.313   0.065  0.00  0.00    +0.000 C 
ENDBRANCH   2  10
TORSDOF 2
