MODEL 1
REMARK VINA RESULT:      -4.8      0.000      0.000
REMARK  Name = *****
REMARK  4 active torsions:
REMARK  status: ('A' for Active; 'I' for Inactive)
REMARK    1  A    between atoms: C_1  and  C_2
REMARK    2  A    between atoms: C_5  and  S_8
REMARK    3  A    between atoms: S_8  and  C_10
REMARK    4  A    between atoms: C_10  and  C_11
REMARK                            x       y       z     vdW  Elec       q    Type
REMARK                         _______ _______ _______ _____ _____    ______ ____
ROOT
ATOM      1  S   UNL     1      89.020  70.513  86.698  0.00  0.00    +0.000 S 
ATOM      2  O   UNL     1      90.096  70.830  85.697  0.00  0.00    +0.000 OA
ENDROOT
BRANCH   1   7
ATOM      3  C   UNL     1      88.792  64.411  87.040  0.00  0.00    +0.000 C 
ATOM      4  C   UNL     1      88.857  65.909  86.985  0.00  0.00    +0.000 A 
ATOM      5  C   UNL     1      87.810  66.684  87.498  0.00  0.00    +0.000 A 
ATOM      6  C   UNL     1      87.855  68.077  87.414  0.00  0.00    +0.000 A 
ATOM      7  C   UNL     1      88.948  68.715  86.819  0.00  0.00    +0.000 A 
ATOM      8  C   UNL     1      89.979  67.941  86.275  0.00  0.00    +0.000 A 
ATOM      9  C   UNL     1      89.933  66.547  86.359  0.00  0.00    +0.000 A 
ENDBRANCH   1   7
BRANCH   1  10
ATOM     10  C   UNL     1      87.392  70.856  85.927  0.00  0.00    +0.000 C 
ATOM     11 CL   UNL     1      87.551  71.785  84.406  0.00  0.00    +0.000 Cl
BRANCH  10  12
ATOM     12  C   UNL     1      86.334  71.416  86.865  0.00  0.00    +0.000 A 
ATOM     13  C   UNL     1      86.441  71.349  88.268  0.00  0.00    +0.000 A 
ATOM     14  C   UNL     1      85.430  71.859  89.087  0.00  0.00    +0.000 A 
ATOM     15  C   UNL     1      84.304  72.434  88.514  0.00  0.00    +0.000 A 
ATOM     16  C   UNL     1      84.165  72.504  87.134  0.00  0.00    +0.000 A 
ATOM     17  C   UNL     1      85.173  71.994  86.315  0.00  0.00    +0.000 A 
ATOM     18  F   UNL     1      83.336  72.919  89.302  0.00  0.00    +0.000 F 
ENDBRANCH  10  12
ENDBRANCH   1  10
TORSDOF 3
ENDMDL
