MODEL 1
REMARK VINA RESULT:      -4.5      0.000      0.000
REMARK  Name = *****
REMARK  3 active torsions:
REMARK  status: ('A' for Active; 'I' for Inactive)
REMARK    1  A    between atoms: C_1  and  N_2
REMARK    2  A    between atoms: C_4  and  S_11
REMARK    3  A    between atoms: S_11  and  C_12
REMARK                            x       y       z     vdW  Elec       q    Type
REMARK                         _______ _______ _______ _____ _____    ______ ____
ROOT
ATOM      1  C   UNL     1      91.149  65.600  85.397  0.00  0.00    +0.000 C 
ATOM      2  N   UNL     1      90.086  66.523  85.797  0.00  0.00    +0.000 N 
ATOM      3  C   UNL     1      89.861  67.720  85.361  0.00  0.00    +0.000 C 
ATOM      4  C   UNL     1      88.663  68.355  86.037  0.00  0.00    +0.000 C 
ATOM      5  C   UNL     1      88.245  67.241  86.939  0.00  0.00    +0.000 A 
ATOM      6  C   UNL     1      87.188  67.150  87.828  0.00  0.00    +0.000 A 
ATOM      7  C   UNL     1      87.042  65.962  88.548  0.00  0.00    +0.000 A 
ATOM      8  C   UNL     1      87.938  64.893  88.370  0.00  0.00    +0.000 A 
ATOM      9  C   UNL     1      89.000  64.991  87.466  0.00  0.00    +0.000 A 
ATOM     10  C   UNL     1      89.128  66.176  86.763  0.00  0.00    +0.000 A 
ENDROOT
BRANCH   4  11
ATOM     11  S   UNL     1      89.210  69.822  86.954  0.00  0.00    +0.000 S 
BRANCH  11  12
ATOM     12  C   UNL     1      87.650  70.653  87.190  0.00  0.00    +0.000 A 
ATOM     13  C   UNL     1      86.878  71.083  86.105  0.00  0.00    +0.000 A 
ATOM     14  C   UNL     1      85.672  71.753  86.323  0.00  0.00    +0.000 A 
ATOM     15  C   UNL     1      85.227  71.986  87.623  0.00  0.00    +0.000 A 
ATOM     16  C   UNL     1      85.980  71.538  88.707  0.00  0.00    +0.000 A 
ATOM     17  C   UNL     1      87.186  70.869  88.491  0.00  0.00    +0.000 A 
ENDBRANCH  11  12
ENDBRANCH   4  11
TORSDOF 2
ENDMDL
