MODEL 1
REMARK VINA RESULT:      -4.8      0.000      0.000
REMARK  Name = *****
REMARK  5 active torsions:
REMARK  status: ('A' for Active; 'I' for Inactive)
REMARK    1  A    between atoms: C_1  and  C_2
REMARK    2  A    between atoms: C_3  and  C_11
REMARK    3  A    between atoms: C_4  and  O_9
REMARK    4  A    between atoms: O_9  and  C_10
REMARK    5  A    between atoms: C_12  and  C_13
REMARK                            x       y       z     vdW  Elec       q    Type
REMARK                         _______ _______ _______ _____ _____    ______ ____
ROOT
ATOM      1  C   UNL     1      89.457  68.657  84.462  0.00  0.00    +0.000 C 
ATOM      2  C   UNL     1      90.034  69.945  83.952  0.00  0.00    +0.000 A 
ATOM      3  C   UNL     1      89.643  71.197  84.288  0.00  0.00    +0.000 A 
ATOM      4  C   UNL     1      90.309  72.298  83.594  0.00  0.00    +0.000 A 
ATOM      5  C   UNL     1      91.245  72.094  82.663  0.00  0.00    +0.000 A 
ATOM      6  C   UNL     1      91.689  70.736  82.342  0.00  0.00    +0.000 A 
ATOM      7  O   UNL     1      92.580  70.550  81.522  0.00  0.00    +0.000 OA
ATOM      8  O   UNL     1      91.065  69.718  82.998  0.00  0.00    +0.000 OA
ENDROOT
BRANCH   4   9
ATOM      9  O   UNL     1      89.845  73.569  83.874  0.00  0.00    +0.000 OA
ATOM     10  C   UNL     1      89.138  74.115  82.759  0.00  0.00    +0.000 C 
ENDBRANCH   4   9
BRANCH   3  11
ATOM     11  C   UNL     1      88.593  71.440  85.274  0.00  0.00    +0.000 C 
ATOM     12  C   UNL     1      87.283  71.496  84.982  0.00  0.00    +0.000 C 
BRANCH  12  13
ATOM     13  C   UNL     1      86.219  71.691  85.978  0.00  0.00    +0.000 A 
ATOM     14  C   UNL     1      86.411  71.436  87.343  0.00  0.00    +0.000 A 
ATOM     15  C   UNL     1      85.382  71.664  88.261  0.00  0.00    +0.000 A 
ATOM     16  C   UNL     1      84.155  72.161  87.827  0.00  0.00    +0.000 A 
ATOM     17  C   UNL     1      83.958  72.435  86.475  0.00  0.00    +0.000 A 
ATOM     18  C   UNL     1      84.986  72.207  85.557  0.00  0.00    +0.000 A 
ENDBRANCH  12  13
ENDBRANCH   3  11
TORSDOF 3
ENDMDL
