MODEL 1
REMARK VINA RESULT:      -4.5      0.000      0.000
REMARK  Name = *****
REMARK  6 active torsions:
REMARK  status: ('A' for Active; 'I' for Inactive)
REMARK    1  A    between atoms: C_1  and  C_2
REMARK    2  A    between atoms: C_5  and  C_8
REMARK    3  A    between atoms: C_8  and  N_9
REMARK    4  A    between atoms: N_9  and  C_10
REMARK    5  A    between atoms: N_9  and  C_11
REMARK    6  A    between atoms: C_11  and  C_12
REMARK                            x       y       z     vdW  Elec       q    Type
REMARK                         _______ _______ _______ _____ _____    ______ ____
ROOT
ATOM      1  N   UNL     1      89.529  65.367  86.607  0.00  0.00    +0.000 N 
ATOM      2  C   UNL     1      90.602  64.954  85.695  0.00  0.00    +0.000 C 
ATOM      3  H   UNL     1      89.944  65.761  87.452  0.00  0.00    +0.000 HD
ENDROOT
BRANCH   1   4
ATOM      4  C   UNL     1      88.710  64.206  87.012  0.00  0.00    +0.000 C 
BRANCH   4   9
ATOM      5  C   UNL     1      86.946  64.357  92.572  0.00  0.00    +0.000 C 
ATOM      6  C   UNL     1      87.408  64.346  91.146  0.00  0.00    +0.000 A 
ATOM      7  C   UNL     1      86.544  64.734  90.116  0.00  0.00    +0.000 A 
ATOM      8  C   UNL     1      86.967  64.694  88.785  0.00  0.00    +0.000 A 
ATOM      9  C   UNL     1      88.259  64.259  88.458  0.00  0.00    +0.000 A 
ATOM     10  C   UNL     1      89.114  63.852  89.490  0.00  0.00    +0.000 A 
ATOM     11  C   UNL     1      88.691  63.891  90.821  0.00  0.00    +0.000 A 
ENDBRANCH   4   9
ENDBRANCH   1   4
BRANCH   1  12
ATOM     12  C   UNL     1      88.698  66.394  85.954  0.00  0.00    +0.000 C 
BRANCH  12  13
ATOM     13  C   UNL     1      88.637  67.700  86.721  0.00  0.00    +0.000 A 
ATOM     14  C   UNL     1      87.584  67.950  87.617  0.00  0.00    +0.000 A 
ATOM     15  C   UNL     1      87.537  69.144  88.339  0.00  0.00    +0.000 A 
ATOM     16  C   UNL     1      88.544  70.086  88.169  0.00  0.00    +0.000 A 
ATOM     17  C   UNL     1      89.598  69.857  87.292  0.00  0.00    +0.000 A 
ATOM     18  C   UNL     1      89.648  68.663  86.570  0.00  0.00    +0.000 A 
ATOM     19  F   UNL     1      88.500  71.232  88.862  0.00  0.00    +0.000 F 
ENDBRANCH  12  13
ENDBRANCH   1  12
TORSDOF 4
ENDMDL
