MODEL 1
REMARK VINA RESULT:      -3.5      0.000      0.000
REMARK  Name = *****
REMARK  4 active torsions:
REMARK  status: ('A' for Active; 'I' for Inactive)
REMARK    1  A    between atoms: C_4  and  C_7
REMARK    2  A    between atoms: C_7  and  S_8
REMARK    3  A    between atoms: S_8  and  C_9
REMARK    4  A    between atoms: C_9  and  C_10
REMARK                            x       y       z     vdW  Elec       q    Type
REMARK                         _______ _______ _______ _____ _____    ______ ____
ROOT
ATOM      1  S   UNL     1      85.553  65.009  86.846  0.00  0.00    +0.000 S 
ENDROOT
BRANCH   1   2
ATOM      2  C   UNL     1      85.988  63.245  86.709  0.00  0.00    +0.000 C 
BRANCH   2   6
ATOM      3  C   UNL     1      84.507  61.722  90.547  0.00  0.00    +0.000 C 
ATOM      4  C   UNL     1      83.487  62.299  89.573  0.00  0.00    +0.000 C 
ATOM      5  C   UNL     1      84.154  63.152  88.494  0.00  0.00    +0.000 C 
ATOM      6  C   UNL     1      85.249  62.374  87.742  0.00  0.00    +0.000 C 
ATOM      7  C   UNL     1      86.268  61.796  88.742  0.00  0.00    +0.000 C 
ATOM      8  C   UNL     1      85.596  60.945  89.817  0.00  0.00    +0.000 C 
ENDBRANCH   2   6
ENDBRANCH   1   2
BRANCH   1   9
ATOM      9  C   UNL     1      87.141  65.630  87.480  0.00  0.00    +0.000 C 
BRANCH   9  10
ATOM     10  C   UNL     1      87.434  65.102  88.862  0.00  0.00    +0.000 A 
ATOM     11  C   UNL     1      88.608  64.377  89.112  0.00  0.00    +0.000 A 
ATOM     12  C   UNL     1      88.877  63.884  90.390  0.00  0.00    +0.000 A 
ATOM     13  C   UNL     1      87.973  64.102  91.428  0.00  0.00    +0.000 A 
ATOM     14  C   UNL     1      86.797  64.810  91.188  0.00  0.00    +0.000 A 
ATOM     15  C   UNL     1      86.526  65.305  89.911  0.00  0.00    +0.000 A 
ENDBRANCH   9  10
ENDBRANCH   1   9
TORSDOF 4
ENDMDL
