MODEL 1
REMARK VINA RESULT:      -5.0      0.000      0.000
REMARK  Name = *****
REMARK  3 active torsions:
REMARK  status: ('A' for Active; 'I' for Inactive)
REMARK    1  A    between atoms: C_1  and  O_2
REMARK    2  A    between atoms: O_2  and  N_3
REMARK    3  A    between atoms: C_11  and  C_12
REMARK                            x       y       z     vdW  Elec       q    Type
REMARK                         _______ _______ _______ _____ _____    ______ ____
ROOT
ATOM      1  N   UNL     1     102.872 125.207  83.082  0.00  0.00    +0.000 N 
ATOM      2  C   UNL     1     103.745 124.410  82.372  0.00  0.00    +0.000 A 
ATOM      3  C   UNL     1     104.491 123.284  82.756  0.00  0.00    +0.000 A 
ATOM      4  C   UNL     1     105.325 122.695  81.801  0.00  0.00    +0.000 A 
ATOM      5  C   UNL     1     105.408 123.206  80.509  0.00  0.00    +0.000 A 
ATOM      6  C   UNL     1     104.647 124.320  80.133  0.00  0.00    +0.000 A 
ATOM      7  C   UNL     1     103.800 124.929  81.078  0.00  0.00    +0.000 A 
ATOM      8  C   UNL     1     102.888 126.018  81.026  0.00  0.00    +0.000 A 
ATOM      9  C   UNL     1     102.292 126.160  82.270  0.00  0.00    +0.000 A 
ENDROOT
BRANCH   9  10
ATOM     10  C   UNL     1     101.220 127.074  82.671  0.00  0.00    +0.000 A 
ATOM     11  C   UNL     1      99.887 126.743  82.386  0.00  0.00    +0.000 A 
ATOM     12  C   UNL     1      98.846 127.605  82.742  0.00  0.00    +0.000 A 
ATOM     13  C   UNL     1      99.127 128.809  83.382  0.00  0.00    +0.000 A 
ATOM     14  C   UNL     1     100.448 129.153  83.663  0.00  0.00    +0.000 A 
ATOM     15  C   UNL     1     101.488 128.292  83.306  0.00  0.00    +0.000 A 
ENDBRANCH   9  10
BRANCH   1  17
ATOM     16  C   UNL     1     103.434 125.691  85.263  0.00  0.00    +0.000 C 
ATOM     17  O   UNL     1     102.523 124.988  84.425  0.00  0.00    +0.000 OA
ENDBRANCH   1  17
TORSDOF 2
ENDMDL
