MODEL 1
REMARK VINA RESULT:      -4.4      0.000      0.000
REMARK  Name = *****
REMARK  2 active torsions:
REMARK  status: ('A' for Active; 'I' for Inactive)
REMARK    1  A    between atoms: C_4  and  O_7
REMARK    2  A    between atoms: O_7  and  C_8
REMARK                            x       y       z     vdW  Elec       q    Type
REMARK                         _______ _______ _______ _____ _____    ______ ____
ROOT
ATOM      1  C   UNL     1     102.798 126.426  82.334  0.00  0.00    +0.000 A 
ATOM      2  N   UNL     1     101.641 125.901  81.984  0.00  0.00    +0.000 NA
ATOM      3  C   UNL     1     100.735 126.822  82.445  0.00  0.00    +0.000 A 
ATOM      4  C   UNL     1      99.336 126.847  82.382  0.00  0.00    +0.000 A 
ATOM      5  C   UNL     1      98.667 127.943  82.952  0.00  0.00    +0.000 A 
ATOM      6  C   UNL     1      99.376 128.983  83.568  0.00  0.00    +0.000 A 
ATOM      7  C   UNL     1     100.774 128.971  83.640  0.00  0.00    +0.000 A 
ATOM      8  C   UNL     1     101.398 127.870  83.065  0.00  0.00    +0.000 A 
ATOM      9  O   UNL     1     102.736 127.616  83.000  0.00  0.00    +0.000 OA
ENDROOT
BRANCH   1  10
ATOM     10  O   UNL     1     104.024 125.948  82.159  0.00  0.00    +0.000 OA
BRANCH  10  14
ATOM     11  C   UNL     1     104.816 121.891  81.663  0.00  0.00    +0.000 A 
ATOM     12  C   UNL     1     104.801 122.715  80.538  0.00  0.00    +0.000 A 
ATOM     13  C   UNL     1     104.528 124.078  80.673  0.00  0.00    +0.000 A 
ATOM     14  C   UNL     1     104.253 124.614  81.933  0.00  0.00    +0.000 A 
ATOM     15  C   UNL     1     104.290 123.789  83.060  0.00  0.00    +0.000 A 
ATOM     16  C   UNL     1     104.563 122.428  82.925  0.00  0.00    +0.000 A 
ENDBRANCH  10  14
ENDBRANCH   1  10
TORSDOF 2
ENDMDL
