MODEL 1
REMARK VINA RESULT:      -4.6      0.000      0.000
REMARK  Name = *****
REMARK  6 active torsions:
REMARK  status: ('A' for Active; 'I' for Inactive)
REMARK    1  A    between atoms: C_1  and  C_2
REMARK    2  A    between atoms: C_5  and  C_8
REMARK    3  A    between atoms: C_8  and  N_9
REMARK    4  A    between atoms: N_9  and  C_10
REMARK    5  A    between atoms: C_13  and  C_16
REMARK    6  A    between atoms: C_17  and  C_19
REMARK                            x       y       z     vdW  Elec       q    Type
REMARK                         _______ _______ _______ _____ _____    ______ ____
ROOT
ATOM      1  N   UNL     1      88.736  70.023  86.435  0.00  0.00    +0.000 N 
ATOM      2  C   UNL     1      88.988  68.661  86.595  0.00  0.00    +0.000 C 
ATOM      3  O   UNL     1      90.128  68.189  86.619  0.00  0.00    +0.000 OA
ATOM      4  C   UNL     1      87.809  67.715  86.638  0.00  0.00    +0.000 C 
ENDROOT
BRANCH   1   5
ATOM      5  C   UNL     1      87.511  70.666  86.800  0.00  0.00    +0.000 A 
ATOM      6  C   UNL     1      87.195  70.910  88.143  0.00  0.00    +0.000 A 
ATOM      7  C   UNL     1      86.010  71.563  88.499  0.00  0.00    +0.000 A 
ATOM      8  C   UNL     1      85.120  72.005  87.517  0.00  0.00    +0.000 A 
ATOM      9  C   UNL     1      85.430  71.769  86.176  0.00  0.00    +0.000 A 
ATOM     10  C   UNL     1      86.618  71.120  85.822  0.00  0.00    +0.000 A 
ATOM     11  C   UNL     1      83.831  72.668  87.897  0.00  0.00    +0.000 C 
ENDBRANCH   1   5
BRANCH   1  12
ATOM     12  C   UNL     1      89.872  70.884  86.068  0.00  0.00    +0.000 C 
BRANCH  12  17
ATOM     13  C   UNL     1      90.351  72.130  80.383  0.00  0.00    +0.000 C 
ATOM     14  C   UNL     1      90.200  71.797  81.838  0.00  0.00    +0.000 A 
ATOM     15  C   UNL     1      89.686  72.739  82.735  0.00  0.00    +0.000 A 
ATOM     16  C   UNL     1      89.578  72.436  84.094  0.00  0.00    +0.000 A 
ATOM     17  C   UNL     1      89.980  71.185  84.587  0.00  0.00    +0.000 A 
ATOM     18  C   UNL     1      90.528  70.260  83.689  0.00  0.00    +0.000 A 
ATOM     19  C   UNL     1      90.636  70.562  82.329  0.00  0.00    +0.000 A 
ENDBRANCH  12  17
ENDBRANCH   1  12
TORSDOF 3
ENDMDL
