MODEL 1
REMARK VINA RESULT:      -4.8      0.000      0.000
REMARK  Name = *****
REMARK  1 active torsions:
REMARK  status: ('A' for Active; 'I' for Inactive)
REMARK    1  A    between atoms: C_6  and  C_10
REMARK                            x       y       z     vdW  Elec       q    Type
REMARK                         _______ _______ _______ _____ _____    ______ ____
ROOT
ATOM      1  C   UNL     1     100.094 130.651  84.606  0.00  0.00    +0.000 C 
ATOM      2  C   UNL     1      99.111 129.655  83.972  0.00  0.00    +0.000 C 
ATOM      3  C   UNL     1      99.993 128.748  83.126  0.00  0.00    +0.000 C 
ATOM      4  C   UNL     1      99.442 127.366  82.798  0.00  0.00    +0.000 C 
ATOM      5  C   UNL     1     100.541 126.438  82.341  0.00  0.00    +0.000 C 
ATOM      6  C   UNL     1     101.857 126.699  82.492  0.00  0.00    +0.000 C 
ATOM      7  C   UNL     1     102.372 127.947  83.190  0.00  0.00    +0.000 C 
ATOM      8  C   UNL     1     101.256 128.631  83.976  0.00  0.00    +0.000 C 
ATOM      9  C   UNL     1     101.503 130.074  84.396  0.00  0.00    +0.000 C 
ENDROOT
BRANCH   6  10
ATOM     10  C   UNL     1     102.858 125.737  81.996  0.00  0.00    +0.000 A 
ATOM     11  C   UNL     1     103.275 125.773  80.659  0.00  0.00    +0.000 A 
ATOM     12  C   UNL     1     104.227 124.867  80.186  0.00  0.00    +0.000 A 
ATOM     13  C   UNL     1     104.771 123.915  81.044  0.00  0.00    +0.000 A 
ATOM     14  C   UNL     1     104.363 123.868  82.377  0.00  0.00    +0.000 A 
ATOM     15  C   UNL     1     103.412 124.775  82.851  0.00  0.00    +0.000 A 
ENDBRANCH   6  10
TORSDOF 1
ENDMDL
