MODEL 1
REMARK VINA RESULT:      -4.7      0.000      0.000
REMARK  Name = *****
REMARK  5 active torsions:
REMARK  status: ('A' for Active; 'I' for Inactive)
REMARK    1  A    between atoms: C_1  and  C_2
REMARK    2  A    between atoms: C_5  and  C_8
REMARK    3  A    between atoms: C_8  and  O_10
REMARK    4  A    between atoms: O_10  and  C_11
REMARK    5  A    between atoms: C_11  and  C_12
REMARK                            x       y       z     vdW  Elec       q    Type
REMARK                         _______ _______ _______ _____ _____    ______ ____
ROOT
ATOM      1  C   UNL     1     104.608 124.476  80.069  0.00  0.00    +0.000 C 
ATOM      2  O   UNL     1     105.561 124.690  79.338  0.00  0.00    +0.000 OA
ENDROOT
BRANCH   1   7
ATOM      3  C   UNL     1     104.470 120.071  83.844  0.00  0.00    +0.000 C 
ATOM      4  C   UNL     1     104.533 121.222  82.883  0.00  0.00    +0.000 A 
ATOM      5  C   UNL     1     104.406 122.538  83.342  0.00  0.00    +0.000 A 
ATOM      6  C   UNL     1     104.432 123.610  82.445  0.00  0.00    +0.000 A 
ATOM      7  C   UNL     1     104.575 123.375  81.071  0.00  0.00    +0.000 A 
ATOM      8  C   UNL     1     104.685 122.057  80.608  0.00  0.00    +0.000 A 
ATOM      9  C   UNL     1     104.659 120.989  81.509  0.00  0.00    +0.000 A 
ENDBRANCH   1   7
BRANCH   1  10
ATOM     10  O   UNL     1     103.453 125.183  80.103  0.00  0.00    +0.000 OA
BRANCH  10  11
ATOM     11  C   UNL     1     103.590 126.588  80.343  0.00  0.00    +0.000 C 
BRANCH  11  12
ATOM     12  C   UNL     1     102.817 126.960  81.582  0.00  0.00    +0.000 A 
ATOM     13  C   UNL     1     103.138 128.121  82.301  0.00  0.00    +0.000 A 
ATOM     14  C   UNL     1     102.434 128.451  83.462  0.00  0.00    +0.000 A 
ATOM     15  C   UNL     1     101.414 127.617  83.914  0.00  0.00    +0.000 A 
ATOM     16  C   UNL     1     101.093 126.454  83.218  0.00  0.00    +0.000 A 
ATOM     17  C   UNL     1     101.795 126.124  82.057  0.00  0.00    +0.000 A 
ATOM     18 CL   UNL     1     100.550 128.024  85.345  0.00  0.00    +0.000 Cl
ENDBRANCH  11  12
ENDBRANCH  10  11
ENDBRANCH   1  10
TORSDOF 4
ENDMDL
