MODEL 1
REMARK VINA RESULT:      -4.5      0.000      0.000
REMARK  Name = *****
REMARK  2 active torsions:
REMARK  status: ('A' for Active; 'I' for Inactive)
REMARK    1  A    between atoms: C_8  and  P_9
REMARK    2  A    between atoms: C_8  and  C_10
REMARK                            x       y       z     vdW  Elec       q    Type
REMARK                         _______ _______ _______ _____ _____    ______ ____
ROOT
ATOM      1  C   UNL     1      87.025  62.464  88.921  0.00  0.00    +0.000 C 
ATOM      2  C   UNL     1      86.944  62.656  87.542  0.00  0.00    +0.000 C 
ATOM      3  C   UNL     1      87.590  63.742  86.948  0.00  0.00    +0.000 C 
ATOM      4  C   UNL     1      88.313  64.646  87.733  0.00  0.00    +0.000 C 
ATOM      5  C   UNL     1      88.406  64.437  89.112  0.00  0.00    +0.000 C 
ATOM      6  C   UNL     1      87.760  63.351  89.706  0.00  0.00    +0.000 C 
ATOM      7  C   UNL     1      88.955  65.797  87.142  0.00  0.00    +0.000 C 
ATOM      8  C   UNL     1      89.308  66.952  86.623  0.00  0.00    +0.000 C 
ENDROOT
BRANCH   8   9
ATOM      9  C   UNL     1      89.567  68.257  86.074  0.00  0.00    +0.000 A 
ATOM     10  C   UNL     1      89.535  69.375  86.914  0.00  0.00    +0.000 A 
ATOM     11  C   UNL     1      89.730  70.655  86.390  0.00  0.00    +0.000 A 
ATOM     12  C   UNL     1      89.972  70.821  85.027  0.00  0.00    +0.000 A 
ATOM     13  C   UNL     1      90.030  69.709  84.188  0.00  0.00    +0.000 A 
ATOM     14  C   UNL     1      89.832  68.430  84.710  0.00  0.00    +0.000 A 
ENDBRANCH   8   9
BRANCH   8  15
ATOM     15  P   UNL     1      87.620  67.044  87.081  0.00  0.00    +0.000 P 
ATOM     16  H   UNL     1      87.116  68.074  87.849  0.00  0.00    +0.000 HD
ATOM     17  H   UNL     1      86.349  66.896  86.566  0.00  0.00    +0.000 HD
ENDBRANCH   8  15
TORSDOF 2
ENDMDL
