REMARK  Name = *****
REMARK  3 active torsions:
REMARK  status: ('A' for Active; 'I' for Inactive)
REMARK    1  A    between atoms: C_3  and  S_8
REMARK    2  A    between atoms: S_8  and  C_9
REMARK    3  A    between atoms: C_9  and  C_10
REMARK                            x       y       z     vdW  Elec       q    Type
REMARK                         _______ _______ _______ _____ _____    ______ ____
ROOT
ATOM      1  S   UNL     1       2.749   2.647   0.226  0.00  0.00    +0.000 S 
ENDROOT
BRANCH   1   4
ATOM      2  C   UNL     1       1.495  -1.186   0.544  0.00  0.00    +0.000 A 
ATOM      3  C   UNL     1       2.257  -0.016   0.480  0.00  0.00    +0.000 A 
ATOM      4  C   UNL     1       1.651   1.236   0.294  0.00  0.00    +0.000 A 
ATOM      5  C   UNL     1       0.259   1.292   0.174  0.00  0.00    +0.000 A 
ATOM      6  C   UNL     1      -0.500   0.120   0.239  0.00  0.00    +0.000 A 
ATOM      7  C   UNL     1       0.111  -1.118   0.423  0.00  0.00    +0.000 A 
ATOM      8 CL   UNL     1      -2.213   0.208   0.086  0.00  0.00    +0.000 Cl
ENDBRANCH   1   4
BRANCH   1   9
ATOM      9  C   UNL     1       1.626   4.065  -0.012  0.00  0.00    +0.000 C 
BRANCH   9  10
ATOM     10  C   UNL     1       2.393   5.354  -0.117  0.00  0.00    +0.000 A 
ATOM     11  C   UNL     1       2.684   6.163   0.979  0.00  0.00    +0.000 A 
ATOM     12  N   UNL     1       3.376   7.323   0.912  0.00  0.00    +0.000 NA
ATOM     13  C   UNL     1       3.823   7.697  -0.303  0.00  0.00    +0.000 A 
ATOM     14  C   UNL     1       3.605   6.966  -1.458  0.00  0.00    +0.000 A 
ATOM     15  C   UNL     1       2.883   5.780  -1.360  0.00  0.00    +0.000 A 
ATOM     16 CL   UNL     1       2.182   5.786   2.582  0.00  0.00    +0.000 Cl
ENDBRANCH   9  10
ENDBRANCH   1   9
TORSDOF 3
