MODEL 1
REMARK VINA RESULT:      -4.5      0.000      0.000
REMARK  Name = *****
REMARK  2 active torsions:
REMARK  status: ('A' for Active; 'I' for Inactive)
REMARK    1  A    between atoms: C_3  and  N_8
REMARK    2  A    between atoms: C_9  and  C_10
REMARK                            x       y       z     vdW  Elec       q    Type
REMARK                         _______ _______ _______ _____ _____    ______ ____
ROOT
ATOM      1  N   UNL     1     101.529 125.909  82.274  0.00  0.00    +0.000 NA
ATOM      2  C   UNL     1     102.745 125.837  82.723  0.00  0.00    +0.000 C 
ENDROOT
BRANCH   2   3
ATOM      3  C   UNL     1     103.634 124.709  82.368  0.00  0.00    +0.000 A 
ATOM      4  C   UNL     1     104.150 124.551  81.075  0.00  0.00    +0.000 A 
ATOM      5  C   UNL     1     104.987 123.470  80.781  0.00  0.00    +0.000 A 
ATOM      6  C   UNL     1     105.308 122.549  81.776  0.00  0.00    +0.000 A 
ATOM      7  C   UNL     1     104.802 122.695  83.065  0.00  0.00    +0.000 A 
ATOM      8  C   UNL     1     103.967 123.774  83.362  0.00  0.00    +0.000 A 
ATOM      9 CL   UNL     1     106.338 121.221  81.409  0.00  0.00    +0.000 Cl
ATOM     10 CL   UNL     1     103.800 125.648  79.785  0.00  0.00    +0.000 Cl
ENDBRANCH   2   3
BRANCH   1  13
ATOM     11  C   UNL     1      98.647 128.151  82.918  0.00  0.00    +0.000 A 
ATOM     12  C   UNL     1      99.401 127.051  82.501  0.00  0.00    +0.000 A 
ATOM     13  C   UNL     1     100.788 127.027  82.682  0.00  0.00    +0.000 A 
ATOM     14  C   UNL     1     101.415 128.104  83.310  0.00  0.00    +0.000 A 
ATOM     15  C   UNL     1     100.658 129.196  83.721  0.00  0.00    +0.000 A 
ATOM     16  C   UNL     1      99.282 129.231  83.528  0.00  0.00    +0.000 A 
ATOM     17  F   UNL     1     101.265 130.232  84.316  0.00  0.00    +0.000 F 
ENDBRANCH   1  13
TORSDOF 2
ENDMDL
