REMARK  Name = *****
REMARK  2 active torsions:
REMARK  status: ('A' for Active; 'I' for Inactive)
REMARK    1  A    between atoms: C_1  and  N_2
REMARK    2  A    between atoms: C_11  and  C_13
REMARK                            x       y       z     vdW  Elec       q    Type
REMARK                         _______ _______ _______ _____ _____    ______ ____
ROOT
ATOM      1  C   UNL     1       1.139  -0.297  -0.001  0.00  0.00    +0.000 C 
ATOM      2  N   UNL     1       2.526   0.089   0.097  0.00  0.00    +0.000 NA
ATOM      3  C   UNL     1       3.063   1.072  -0.532  0.00  0.00    +0.000 A 
ATOM      4  C   UNL     1       2.448   2.130  -1.364  0.00  0.00    +0.000 A 
ATOM      5  C   UNL     1       1.102   2.511  -1.286  0.00  0.00    +0.000 A 
ATOM      6  C   UNL     1       0.598   3.511  -2.123  0.00  0.00    +0.000 A 
ATOM      7  C   UNL     1       1.439   4.152  -3.026  0.00  0.00    +0.000 A 
ATOM      8  C   UNL     1       2.789   3.809  -3.070  0.00  0.00    +0.000 A 
ATOM      9  C   UNL     1       3.300   2.813  -2.231  0.00  0.00    +0.000 A 
ATOM     10  N   UNL     1       4.672   2.578  -2.249  0.00  0.00    +0.000 NA
ATOM     11  C   UNL     1       5.140   1.805  -1.326  0.00  0.00    +0.000 A 
ATOM     12  O   UNL     1       4.411   1.145  -0.402  0.00  0.00    +0.000 OA
ENDROOT
BRANCH  11  13
ATOM     13  C   UNL     1       6.590   1.527  -1.159  0.00  0.00    +0.000 A 
ATOM     14  C   UNL     1       7.067   0.628  -0.193  0.00  0.00    +0.000 A 
ATOM     15  C   UNL     1       8.439   0.392  -0.068  0.00  0.00    +0.000 A 
ATOM     16  C   UNL     1       9.341   1.049  -0.904  0.00  0.00    +0.000 A 
ATOM     17  C   UNL     1       8.876   1.943  -1.867  0.00  0.00    +0.000 A 
ATOM     18  C   UNL     1       7.506   2.181  -1.995  0.00  0.00    +0.000 A 
ENDBRANCH  11  13
TORSDOF 1
