MODEL 1
REMARK VINA RESULT:      -4.6      0.000      0.000
REMARK  Name = *****
REMARK  6 active torsions:
REMARK  status: ('A' for Active; 'I' for Inactive)
REMARK    1  A    between atoms: C_1  and  C_2
REMARK    2  A    between atoms: C_4  and  C_19
REMARK    3  A    between atoms: C_5  and  C_8
REMARK    4  A    between atoms: C_8  and  C_9
REMARK    5  A    between atoms: C_9  and  C_10
REMARK    6  A    between atoms: C_10  and  C_12
REMARK                            x       y       z     vdW  Elec       q    Type
REMARK                         _______ _______ _______ _____ _____    ______ ____
ROOT
ATOM      1  C   UNL     1      89.862  68.509  86.061  0.00  0.00    +0.000 C 
ENDROOT
BRANCH   1   2
ATOM      2  C   UNL     1      88.647  67.628  85.847  0.00  0.00    +0.000 C 
ATOM      3  O   UNL     1      88.050  67.579  84.773  0.00  0.00    +0.000 OA
BRANCH   2   4
ATOM      4  C   UNL     1      88.157  66.791  86.987  0.00  0.00    +0.000 A 
ATOM      5  C   UNL     1      87.090  67.186  87.805  0.00  0.00    +0.000 A 
ATOM      6  C   UNL     1      86.672  66.368  88.860  0.00  0.00    +0.000 A 
ATOM      7  C   UNL     1      87.317  65.156  89.101  0.00  0.00    +0.000 A 
ATOM      8  C   UNL     1      88.378  64.753  88.296  0.00  0.00    +0.000 A 
ATOM      9  C   UNL     1      88.798  65.568  87.241  0.00  0.00    +0.000 A 
ATOM     10 CL   UNL     1      86.798  64.155  90.399  0.00  0.00    +0.000 Cl
ENDBRANCH   2   4
ENDBRANCH   1   2
BRANCH   1  11
ATOM     11  C   UNL     1      89.531  69.989  85.868  0.00  0.00    +0.000 C 
BRANCH  11  16
ATOM     12  C   UNL     1      85.780  71.814  89.948  0.00  0.00    +0.000 C 
ATOM     13  C   UNL     1      86.745  71.376  88.887  0.00  0.00    +0.000 A 
ATOM     14  C   UNL     1      86.369  71.384  87.538  0.00  0.00    +0.000 A 
ATOM     15  C   UNL     1      87.247  70.945  86.531  0.00  0.00    +0.000 A 
ATOM     16  C   UNL     1      88.522  70.463  86.891  0.00  0.00    +0.000 A 
ATOM     17  C   UNL     1      88.887  70.447  88.248  0.00  0.00    +0.000 A 
ATOM     18  C   UNL     1      88.007  70.891  89.235  0.00  0.00    +0.000 A 
ATOM     19  C   UNL     1      86.780  70.970  85.101  0.00  0.00    +0.000 C 
ENDBRANCH  11  16
ENDBRANCH   1  11
TORSDOF 4
ENDMDL
