MODEL 1
REMARK VINA RESULT:      -3.2      0.000      0.000
REMARK  Name = *****
REMARK  3 active torsions:
REMARK  status: ('A' for Active; 'I' for Inactive)
REMARK    1  A    between atoms: C_4  and  S_6
REMARK    2  A    between atoms: S_6  and  S_7
REMARK    3  A    between atoms: S_7  and  C_8
REMARK                            x       y       z     vdW  Elec       q    Type
REMARK                         _______ _______ _______ _____ _____    ______ ____
ROOT
ATOM      1  S   UNL     1      95.234 118.551  81.820  0.00  0.00    +0.000 S 
ENDROOT
BRANCH   1   5
ATOM      2  C   UNL     1      98.433 119.183  81.086  0.00  0.00    +0.000 C 
ATOM      3  C   UNL     1      97.834 120.581  81.243  0.00  0.00    +0.000 C 
ATOM      4  C   UNL     1      97.056 120.561  82.555  0.00  0.00    +0.000 C 
ATOM      5  C   UNL     1      96.697 119.094  82.789  0.00  0.00    +0.000 C 
ATOM      6  C   UNL     1      97.954 118.379  82.294  0.00  0.00    +0.000 C 
ENDBRANCH   1   5
BRANCH   1   7
ATOM      7  S   UNL     1      95.408 116.500  81.797  0.00  0.00    +0.000 S 
BRANCH   7   8
ATOM      8  C   UNL     1      95.874 116.136  80.075  0.00  0.00    +0.000 C 
ATOM      9  C   UNL     1      97.307 115.614  79.996  0.00  0.00    +0.000 C 
ATOM     10  C   UNL     1      97.647 115.739  78.515  0.00  0.00    +0.000 C 
ATOM     11  C   UNL     1      96.826 116.920  77.999  0.00  0.00    +0.000 C 
ATOM     12  C   UNL     1      95.919 117.349  79.152  0.00  0.00    +0.000 C 
ENDBRANCH   7   8
ENDBRANCH   1   7
TORSDOF 3
ENDMDL
