REMARK  Name = *****
REMARK  5 active torsions:
REMARK  status: ('A' for Active; 'I' for Inactive)
REMARK    1  A    between atoms: C_1  and  C_2
REMARK    2  A    between atoms: C_4  and  C_8
REMARK    3  A    between atoms: C_8  and  O_9
REMARK    4  A    between atoms: O_9  and  C_10
REMARK    5  A    between atoms: C_10  and  C_12
REMARK                            x       y       z     vdW  Elec       q    Type
REMARK                         _______ _______ _______ _____ _____    ______ ____
ROOT
ATOM      1  O   UNL     1      -1.131   3.916  -0.461  0.00  0.00    +0.000 OA
ENDROOT
BRANCH   1   2
ATOM      2  C   UNL     1      -1.354   4.877   0.474  0.00  0.00    +0.000 C 
ATOM      3  O   UNL     1      -2.213   4.825   1.344  0.00  0.00    +0.000 OA
BRANCH   2   4
ATOM      4  C   UNL     1      -0.367   6.014   0.303  0.00  0.00    +0.000 C 
ATOM      5  C   UNL     1       0.670   5.967   1.428  0.00  0.00    +0.000 C 
ATOM      6  C   UNL     1       1.637   7.145   1.350  0.00  0.00    +0.000 C 
ATOM      7  C   UNL     1       0.900   8.480   1.318  0.00  0.00    +0.000 C 
ATOM      8  C   UNL     1      -0.130   8.528   0.193  0.00  0.00    +0.000 C 
ATOM      9  C   UNL     1      -1.105   7.356   0.273  0.00  0.00    +0.000 C 
ENDBRANCH   2   4
ENDBRANCH   1   2
BRANCH   1  10
ATOM     10  C   UNL     1      -2.016   2.797  -0.359  0.00  0.00    +0.000 C 
BRANCH  10  14
ATOM     11  C   UNL     1      -3.333   0.626  -4.726  0.00  0.00    +0.000 C 
ATOM     12  C   UNL     1      -2.361   0.793  -3.596  0.00  0.00    +0.000 A 
ATOM     13  C   UNL     1      -2.633   1.676  -2.542  0.00  0.00    +0.000 A 
ATOM     14  C   UNL     1      -1.716   1.853  -1.495  0.00  0.00    +0.000 A 
ATOM     15  C   UNL     1      -0.505   1.147  -1.526  0.00  0.00    +0.000 A 
ATOM     16  C   UNL     1      -0.221   0.278  -2.579  0.00  0.00    +0.000 A 
ATOM     17  C   UNL     1      -1.143   0.104  -3.610  0.00  0.00    +0.000 A 
ENDBRANCH  10  14
ENDBRANCH   1  10
TORSDOF 4
