MODEL 1
REMARK VINA RESULT:      -3.9      0.000      0.000
REMARK  Name = *****
REMARK  3 active torsions:
REMARK  status: ('A' for Active; 'I' for Inactive)
REMARK    1  A    between atoms: C_4  and  C_7
REMARK    2  A    between atoms: C_7  and  C_8
REMARK    3  A    between atoms: C_8  and  C_10
REMARK                            x       y       z     vdW  Elec       q    Type
REMARK                         _______ _______ _______ _____ _____    ______ ____
ROOT
ATOM      1  C   UNL     1     103.285 126.712  80.707  0.00  0.00    +0.000 C 
ATOM      2  O   UNL     1     103.682 127.628  79.992  0.00  0.00    +0.000 OA
ENDROOT
BRANCH   1   3
ATOM      3  C   UNL     1     102.452 127.044  81.899  0.00  0.00    +0.000 A 
ATOM      4  C   UNL     1     101.364 126.256  82.293  0.00  0.00    +0.000 A 
ATOM      5  C   UNL     1     100.619 126.606  83.424  0.00  0.00    +0.000 A 
ATOM      6  C   UNL     1     100.964 127.736  84.164  0.00  0.00    +0.000 A 
ATOM      7  C   UNL     1     102.051 128.521  83.786  0.00  0.00    +0.000 A 
ATOM      8  C   UNL     1     102.796 128.173  82.657  0.00  0.00    +0.000 A 
ATOM      9 CL   UNL     1     100.045 128.160  85.555  0.00  0.00    +0.000 Cl
ENDBRANCH   1   3
BRANCH   1  10
ATOM     10  C   UNL     1     103.655 125.262  80.454  0.00  0.00    +0.000 C 
BRANCH  10  14
ATOM     11  C   UNL     1     105.042 122.022  82.075  0.00  0.00    +0.000 C 
ATOM     12  C   UNL     1     104.433 123.170  82.865  0.00  0.00    +0.000 C 
ATOM     13  S   UNL     1     105.315 124.736  82.628  0.00  0.00    +0.000 S 
ATOM     14  C   UNL     1     105.113 124.972  80.824  0.00  0.00    +0.000 C 
ATOM     15  S   UNL     1     105.852 123.574  79.902  0.00  0.00    +0.000 S 
ATOM     16  C   UNL     1     104.910 122.174  80.567  0.00  0.00    +0.000 C 
ENDBRANCH  10  14
ENDBRANCH   1  10
TORSDOF 3
ENDMDL
