REMARK  Name = *****
REMARK  4 active torsions:
REMARK  status: ('A' for Active; 'I' for Inactive)
REMARK    1  A    between atoms: C_1  and  C_2
REMARK    2  A    between atoms: C_4  and  C_10
REMARK    3  A    between atoms: C_5  and  C_8
REMARK    4  A    between atoms: C_11  and  C_12
REMARK                            x       y       z     vdW  Elec       q    Type
REMARK                         _______ _______ _______ _____ _____    ______ ____
ROOT
ATOM      1  C   UNL     1       1.172   0.011   0.289  0.00  0.00    +0.000 C 
ATOM      2  C   UNL     1       2.657   0.040   0.077  0.00  0.00    +0.000 A 
ATOM      3  C   UNL     1       3.320   1.259  -0.125  0.00  0.00    +0.000 A 
ATOM      4  C   UNL     1       4.702   1.294  -0.357  0.00  0.00    +0.000 A 
ATOM      5  C   UNL     1       5.430   0.097  -0.400  0.00  0.00    +0.000 A 
ATOM      6  C   UNL     1       4.766  -1.124  -0.212  0.00  0.00    +0.000 A 
ATOM      7  C   UNL     1       3.389  -1.151   0.019  0.00  0.00    +0.000 A 
ENDROOT
BRANCH   5   8
ATOM      8  C   UNL     1       6.845   0.086  -0.638  0.00  0.00    +0.000 C 
ATOM      9  N   UNL     1       7.990   0.054  -0.832  0.00  0.00    +0.000 NA
ENDBRANCH   5   8
BRANCH   4  10
ATOM     10  C   UNL     1       5.334   2.566  -0.550  0.00  0.00    +0.000 C 
ATOM     11  C   UNL     1       5.882   3.622  -0.716  0.00  0.00    +0.000 C 
BRANCH  11  12
ATOM     12  C   UNL     1       6.558   4.865  -0.919  0.00  0.00    +0.000 A 
ATOM     13  C   UNL     1       5.895   6.072  -0.683  0.00  0.00    +0.000 A 
ATOM     14  C   UNL     1       6.559   7.284  -0.882  0.00  0.00    +0.000 A 
ATOM     15  C   UNL     1       7.885   7.290  -1.317  0.00  0.00    +0.000 A 
ATOM     16  C   UNL     1       8.548   6.086  -1.552  0.00  0.00    +0.000 A 
ATOM     17  C   UNL     1       7.886   4.873  -1.353  0.00  0.00    +0.000 A 
ENDBRANCH  11  12
ENDBRANCH   4  10
TORSDOF 3
