MODEL 1
REMARK VINA RESULT:      -4.0      0.000      0.000
REMARK  Name = *****
REMARK  5 active torsions:
REMARK  status: ('A' for Active; 'I' for Inactive)
REMARK    1  A    between atoms: C_1  and  C_2
REMARK    2  A    between atoms: C_2  and  C_7
REMARK    3  A    between atoms: C_7  and  C_8
REMARK    4  A    between atoms: C_8  and  C_9
REMARK    5  A    between atoms: C_9  and  C_14
REMARK                            x       y       z     vdW  Elec       q    Type
REMARK                         _______ _______ _______ _____ _____    ______ ____
ROOT
ATOM      1  C   UNL     1      87.346  71.644  85.065  0.00  0.00    +0.000 C 
ENDROOT
BRANCH   1   3
ATOM      2  C   UNL     1      85.641  69.829  85.600  0.00  0.00    +0.000 C 
ATOM      3  C   UNL     1      86.051  71.299  85.842  0.00  0.00    +0.000 C 
ATOM      4  C   UNL     1      86.262  71.521  87.364  0.00  0.00    +0.000 C 
ATOM      5  C   UNL     1      84.927  72.016  87.824  0.00  0.00    +0.000 C 
ATOM      6  C   UNL     1      84.168  72.411  86.797  0.00  0.00    +0.000 C 
ATOM      7  C   UNL     1      84.877  72.244  85.490  0.00  0.00    +0.000 C 
ENDBRANCH   1   3
BRANCH   1   8
ATOM      8  C   UNL     1      88.072  70.433  84.452  0.00  0.00    +0.000 C 
BRANCH   8   9
ATOM      9  C   UNL     1      89.526  70.189  84.968  0.00  0.00    +0.000 C 
ATOM     10  C   UNL     1      89.757  68.659  85.113  0.00  0.00    +0.000 C 
ATOM     11  C   UNL     1      89.447  68.400  86.553  0.00  0.00    +0.000 C 
ATOM     12  C   UNL     1      89.429  69.532  87.262  0.00  0.00    +0.000 C 
ATOM     13  C   UNL     1      89.721  70.725  86.409  0.00  0.00    +0.000 C 
ATOM     14  C   UNL     1      90.559  70.793  84.008  0.00  0.00    +0.000 C 
ENDBRANCH   8   9
ENDBRANCH   1   8
TORSDOF 3
ENDMDL
