MODEL 1
REMARK VINA RESULT:      -4.5      0.000      0.000
REMARK  Name = *****
REMARK  3 active torsions:
REMARK  status: ('A' for Active; 'I' for Inactive)
REMARK    1  A    between atoms: C_4  and  C_7
REMARK    2  A    between atoms: C_7  and  C_8
REMARK    3  A    between atoms: C_8  and  C_9
REMARK                            x       y       z     vdW  Elec       q    Type
REMARK                         _______ _______ _______ _____ _____    ______ ____
ROOT
ATOM      1  C   UNL     1      88.751  70.289  86.385  0.00  0.00    +0.000 C 
ATOM      2  F   UNL     1      89.825  71.043  86.790  0.00  0.00    +0.000 F 
ENDROOT
BRANCH   1   6
ATOM      3  C   UNL     1      85.103  72.006  87.944  0.00  0.00    +0.000 A 
ATOM      4  C   UNL     1      85.289  71.907  86.567  0.00  0.00    +0.000 A 
ATOM      5  C   UNL     1      86.462  71.348  86.058  0.00  0.00    +0.000 A 
ATOM      6  C   UNL     1      87.464  70.886  86.925  0.00  0.00    +0.000 A 
ATOM      7  C   UNL     1      87.262  70.988  88.310  0.00  0.00    +0.000 A 
ATOM      8  C   UNL     1      86.088  71.547  88.816  0.00  0.00    +0.000 A 
ENDBRANCH   1   6
BRANCH   1   9
ATOM      9  C   UNL     1      88.784  70.202  84.841  0.00  0.00    +0.000 C 
ATOM     10 CL   UNL     1      89.396  68.609  84.258  0.00  0.00    +0.000 Cl
BRANCH   9  11
ATOM     11  C   UNL     1      89.625  71.296  84.200  0.00  0.00    +0.000 A 
ATOM     12  C   UNL     1      90.965  71.080  83.835  0.00  0.00    +0.000 A 
ATOM     13  C   UNL     1      91.718  72.101  83.252  0.00  0.00    +0.000 A 
ATOM     14  C   UNL     1      91.145  73.350  83.026  0.00  0.00    +0.000 A 
ATOM     15  C   UNL     1      89.818  73.579  83.380  0.00  0.00    +0.000 A 
ATOM     16  C   UNL     1      89.062  72.560  83.962  0.00  0.00    +0.000 A 
ENDBRANCH   9  11
ENDBRANCH   1   9
TORSDOF 3
ENDMDL
