MODEL 1
REMARK VINA RESULT:      -4.9      0.000      0.000
REMARK  Name = *****
REMARK  4 active torsions:
REMARK  status: ('A' for Active; 'I' for Inactive)
REMARK    1  A    between atoms: C_4  and  C_7
REMARK    2  A    between atoms: C_7  and  C_8
REMARK    3  A    between atoms: C_8  and  C_9
REMARK    4  A    between atoms: C_14  and  N_15
REMARK                            x       y       z     vdW  Elec       q    Type
REMARK                         _______ _______ _______ _____ _____    ______ ____
ROOT
ATOM      1  C   UNL     1     101.164 126.321  82.536  0.00  0.00    +0.000 C 
ENDROOT
BRANCH   1   2
ATOM      2  C   UNL     1     100.639 127.647  83.056  0.00  0.00    +0.000 A 
ATOM      3  C   UNL     1     101.520 128.481  83.771  0.00  0.00    +0.000 A 
ATOM      4  C   UNL     1     101.097 129.717  84.260  0.00  0.00    +0.000 A 
ATOM      5  C   UNL     1      99.790 130.140  84.043  0.00  0.00    +0.000 A 
ATOM      6  C   UNL     1      98.907 129.326  83.330  0.00  0.00    +0.000 A 
ATOM      7  C   UNL     1      99.318 128.082  82.821  0.00  0.00    +0.000 A 
BRANCH   7   8
ATOM      8  N   UNL     1      98.422 127.281  82.138  0.00  0.00    +0.000 NA
ATOM      9  O   UNL     1      97.435 126.976  82.819  0.00  0.00    +0.000 OA
ENDBRANCH   7   8
ENDBRANCH   1   2
BRANCH   1  10
ATOM     10  C   UNL     1     102.522 126.477  81.837  0.00  0.00    +0.000 C 
BRANCH  10  14
ATOM     11  C   UNL     1     105.022 122.956  81.524  0.00  0.00    +0.000 A 
ATOM     12  C   UNL     1     104.527 123.329  82.772  0.00  0.00    +0.000 A 
ATOM     13  C   UNL     1     103.720 124.463  82.900  0.00  0.00    +0.000 A 
ATOM     14  C   UNL     1     103.402 125.245  81.781  0.00  0.00    +0.000 A 
ATOM     15  C   UNL     1     103.903 124.849  80.529  0.00  0.00    +0.000 A 
ATOM     16  C   UNL     1     104.707 123.715  80.402  0.00  0.00    +0.000 A 
ENDBRANCH  10  14
ENDBRANCH   1  10
TORSDOF 4
ENDMDL
