MODEL 1
REMARK VINA RESULT:      -4.4      0.000      0.000
REMARK  Name = *****
REMARK  5 active torsions:
REMARK  status: ('A' for Active; 'I' for Inactive)
REMARK    1  A    between atoms: C_1  and  C_2
REMARK    2  A    between atoms: C_2  and  C_3
REMARK    3  A    between atoms: C_2  and  O_8
REMARK    4  A    between atoms: O_8  and  C_9
REMARK    5  A    between atoms: C_9  and  C_11
REMARK                            x       y       z     vdW  Elec       q    Type
REMARK                         _______ _______ _______ _____ _____    ______ ____
ROOT
ATOM      1  C   UNL     1     104.614 124.325  80.325  0.00  0.00    +0.000 C 
ATOM      2  O   UNL     1     105.502 124.513  79.509  0.00  0.00    +0.000 OA
ENDROOT
BRANCH   1   3
ATOM      3  C   UNL     1     104.553 123.119  81.195  0.00  0.00    +0.000 A 
ATOM      4  C   UNL     1     104.465 123.310  82.583  0.00  0.00    +0.000 A 
ATOM      5  C   UNL     1     104.452 122.213  83.449  0.00  0.00    +0.000 A 
ATOM      6  C   UNL     1     104.528 120.923  82.930  0.00  0.00    +0.000 A 
ATOM      7  C   UNL     1     104.610 120.719  81.553  0.00  0.00    +0.000 A 
ATOM      8  C   UNL     1     104.622 121.815  80.684  0.00  0.00    +0.000 A 
ATOM      9 CL   UNL     1     104.528 119.573  83.995  0.00  0.00    +0.000 Cl
ENDBRANCH   1   3
BRANCH   1  10
ATOM     10  O   UNL     1     103.544 125.131  80.544  0.00  0.00    +0.000 OA
BRANCH  10  12
ATOM     11  C   UNL     1     103.613 127.477  80.032  0.00  0.00    +0.000 C 
ATOM     12  C   UNL     1     103.836 126.422  81.114  0.00  0.00    +0.000 C 
BRANCH  12  13
ATOM     13  C   UNL     1     102.942 126.675  82.337  0.00  0.00    +0.000 C 
ATOM     14  C   UNL     1     101.527 126.113  82.184  0.00  0.00    +0.000 C 
ATOM     15  C   UNL     1     100.722 126.802  83.284  0.00  0.00    +0.000 C 
ATOM     16  C   UNL     1     101.496 128.069  83.647  0.00  0.00    +0.000 C 
ATOM     17  C   UNL     1     102.659 128.143  82.662  0.00  0.00    +0.000 C 
ENDBRANCH  12  13
ENDBRANCH  10  12
ENDBRANCH   1  10
TORSDOF 4
ENDMDL
