MODEL 1
REMARK VINA RESULT:      -4.4      0.000      0.000
REMARK  Name = *****
REMARK  3 active torsions:
REMARK  status: ('A' for Active; 'I' for Inactive)
REMARK    1  A    between atoms: C_5  and  C_6
REMARK    2  A    between atoms: C_6  and  C_7
REMARK    3  A    between atoms: C_7  and  C_8
REMARK                            x       y       z     vdW  Elec       q    Type
REMARK                         _______ _______ _______ _____ _____    ______ ____
ROOT
ATOM      1  C   UNL     1      89.477  69.963  85.795  0.00  0.00    +0.000 C 
ENDROOT
BRANCH   1   6
ATOM      2  C   UNL     1      86.164  71.786  89.360  0.00  0.00    +0.000 C 
ATOM      3  C   UNL     1      86.122  71.508  87.857  0.00  0.00    +0.000 C 
ATOM      4  C   UNL     1      86.921  70.256  87.488  0.00  0.00    +0.000 C 
ATOM      5  C   UNL     1      88.331  70.343  88.026  0.00  0.00    +0.000 C 
ATOM      6  C   UNL     1      89.446  70.215  87.280  0.00  0.00    +0.000 C 
ATOM      7  C   UNL     1      88.402  70.611  89.512  0.00  0.00    +0.000 C 
ATOM      8  C   UNL     1      87.601  71.861  89.878  0.00  0.00    +0.000 C 
ENDBRANCH   1   6
BRANCH   1   9
ATOM      9  C   UNL     1      90.209  71.075  85.033  0.00  0.00    +0.000 C 
BRANCH   9  10
ATOM     10  C   UNL     1      89.249  71.947  84.260  0.00  0.00    +0.000 A 
ATOM     11  C   UNL     1      89.699  73.118  83.637  0.00  0.00    +0.000 A 
ATOM     12  C   UNL     1      88.807  73.935  82.940  0.00  0.00    +0.000 A 
ATOM     13  C   UNL     1      87.459  73.592  82.865  0.00  0.00    +0.000 A 
ATOM     14  C   UNL     1      87.000  72.433  83.488  0.00  0.00    +0.000 A 
ATOM     15  C   UNL     1      87.890  71.614  84.184  0.00  0.00    +0.000 A 
ENDBRANCH   9  10
ENDBRANCH   1   9
TORSDOF 3
ENDMDL
