MODEL 1
REMARK VINA RESULT:      -4.8      0.000      0.000
REMARK  Name = *****
REMARK  3 active torsions:
REMARK  status: ('A' for Active; 'I' for Inactive)
REMARK    1  A    between atoms: C_1  and  C_2
REMARK    2  A    between atoms: C_5  and  C_8
REMARK    3  A    between atoms: C_9  and  C_10
REMARK                            x       y       z     vdW  Elec       q    Type
REMARK                         _______ _______ _______ _____ _____    ______ ____
ROOT
ATOM      1  C   UNL     1     100.533 127.910  83.075  0.00  0.00    +0.000 C 
ATOM      2  C   UNL     1     101.874 127.842  82.989  0.00  0.00    +0.000 C 
ATOM      3  F   UNL     1     102.634 128.611  83.807  0.00  0.00    +0.000 F 
ATOM      4  F   UNL     1      99.775 127.139  82.257  0.00  0.00    +0.000 F 
ENDROOT
BRANCH   1   9
ATOM      5  C   UNL     1      97.573 131.504  86.540  0.00  0.00    +0.000 C 
ATOM      6  C   UNL     1      98.334 130.571  85.646  0.00  0.00    +0.000 A 
ATOM      7  C   UNL     1      99.152 131.059  84.624  0.00  0.00    +0.000 A 
ATOM      8  C   UNL     1      99.860 130.177  83.801  0.00  0.00    +0.000 A 
ATOM      9  C   UNL     1      99.776 128.789  83.987  0.00  0.00    +0.000 A 
ATOM     10  C   UNL     1      98.940 128.307  85.003  0.00  0.00    +0.000 A 
ATOM     11  C   UNL     1      98.231 129.189  85.827  0.00  0.00    +0.000 A 
ENDBRANCH   1   9
BRANCH   2  12
ATOM     12  C   UNL     1     102.628 126.966  82.072  0.00  0.00    +0.000 A 
ATOM     13  C   UNL     1     103.225 127.427  80.887  0.00  0.00    +0.000 A 
ATOM     14  C   UNL     1     103.954 126.558  80.069  0.00  0.00    +0.000 A 
ATOM     15  C   UNL     1     104.099 125.227  80.437  0.00  0.00    +0.000 A 
ATOM     16  C   UNL     1     103.534 124.749  81.611  0.00  0.00    +0.000 A 
ATOM     17  C   UNL     1     102.806 125.619  82.429  0.00  0.00    +0.000 A 
ATOM     18  F   UNL     1     104.799 124.397  79.655  0.00  0.00    +0.000 F 
ENDBRANCH   2  12
TORSDOF 2
ENDMDL
