MODEL 1
REMARK VINA RESULT:      -4.3      0.000      0.000
REMARK  Name = *****
REMARK  2 active torsions:
REMARK  status: ('A' for Active; 'I' for Inactive)
REMARK    1  A    between atoms: C_3  and  C_7
REMARK    2  A    between atoms: C_8  and  C_9
REMARK                            x       y       z     vdW  Elec       q    Type
REMARK                         _______ _______ _______ _____ _____    ______ ____
ROOT
ATOM      1  C   UNL     1     101.686 126.377  82.216  0.00  0.00    +0.000 C 
ATOM      2  C   UNL     1     102.594 125.712  81.796  0.00  0.00    +0.000 C 
ENDROOT
BRANCH   1   5
ATOM      3  C   UNL     1      98.424 127.707  83.406  0.00  0.00    +0.000 C 
ATOM      4  C   UNL     1      99.182 126.870  82.380  0.00  0.00    +0.000 C 
ATOM      5  C   UNL     1     100.614 127.162  82.709  0.00  0.00    +0.000 C 
ATOM      6  C   UNL     1     100.726 128.238  83.503  0.00  0.00    +0.000 C 
ATOM      7  C   UNL     1      99.382 128.822  83.821  0.00  0.00    +0.000 C 
ATOM      8  I   UNL     1     102.419 129.077  84.235  0.00  0.00    +0.000 I 
ENDBRANCH   1   5
BRANCH   2   9
ATOM      9  C   UNL     1     103.667 124.916  81.284  0.00  0.00    +0.000 A 
ATOM     10  C   UNL     1     104.254 125.235  80.058  0.00  0.00    +0.000 A 
ATOM     11  C   UNL     1     105.301 124.456  79.561  0.00  0.00    +0.000 A 
ATOM     12  C   UNL     1     105.761 123.358  80.289  0.00  0.00    +0.000 A 
ATOM     13  C   UNL     1     105.176 123.039  81.514  0.00  0.00    +0.000 A 
ATOM     14  C   UNL     1     104.129 123.817  82.013  0.00  0.00    +0.000 A 
ENDBRANCH   2   9
TORSDOF 2
ENDMDL
