MODEL 1
REMARK VINA RESULT:      -4.3      0.000      0.000
REMARK  Name = *****
REMARK  1 active torsions:
REMARK  status: ('A' for Active; 'I' for Inactive)
REMARK    1  A    between atoms: N_9  and  C_10
REMARK                            x       y       z     vdW  Elec       q    Type
REMARK                         _______ _______ _______ _____ _____    ______ ____
ROOT
ATOM      1  C   UNL     1      88.166  64.090  90.467  0.00  0.00    +0.000 C 
ATOM      2  C   UNL     1      86.750  64.596  90.744  0.00  0.00    +0.000 C 
ATOM      3  C   UNL     1      86.278  65.731  89.836  0.00  0.00    +0.000 C 
ATOM      4  C   UNL     1      86.345  65.402  88.348  0.00  0.00    +0.000 C 
ATOM      5  N   UNL     1      87.717  65.517  87.873  0.00  0.00    +0.000 N 
ATOM      6  C   UNL     1      88.605  64.359  87.955  0.00  0.00    +0.000 C 
ATOM      7  C   UNL     1      88.306  63.403  89.110  0.00  0.00    +0.000 C 
ATOM      8  C   UNL     1      88.147  66.659  87.232  0.00  0.00    +0.000 C 
ATOM      9  N   UNL     1      89.305  66.840  86.686  0.00  0.00    +0.000 NA
ENDROOT
BRANCH   9  10
ATOM     10  C   UNL     1      89.516  68.091  86.095  0.00  0.00    +0.000 A 
ATOM     11  C   UNL     1      89.757  68.195  84.721  0.00  0.00    +0.000 A 
ATOM     12  C   UNL     1      89.949  69.447  84.130  0.00  0.00    +0.000 A 
ATOM     13  C   UNL     1      89.889  70.597  84.916  0.00  0.00    +0.000 A 
ATOM     14  C   UNL     1      89.633  70.505  86.284  0.00  0.00    +0.000 A 
ATOM     15  C   UNL     1      89.443  69.251  86.869  0.00  0.00    +0.000 A 
ATOM     16 CL   UNL     1      90.125  72.140  84.193  0.00  0.00    +0.000 Cl
ENDBRANCH   9  10
TORSDOF 1
ENDMDL
