MODEL 1
REMARK VINA RESULT:      -5.0      0.000      0.000
REMARK  Name = *****
REMARK  3 active torsions:
REMARK  status: ('A' for Active; 'I' for Inactive)
REMARK    1  A    between atoms: C_1  and  C_2
REMARK    2  A    between atoms: C_2  and  C_10
REMARK    3  A    between atoms: C_3  and  C_4
REMARK                            x       y       z     vdW  Elec       q    Type
REMARK                         _______ _______ _______ _____ _____    ______ ____
ROOT
ATOM      1  C   UNL     1     103.253 127.246  80.609  0.00  0.00    +0.000 C 
ATOM      2  C   UNL     1     102.977 126.030  81.447  0.00  0.00    +0.000 C 
ATOM      3  C   UNL     1     102.006 125.892  82.369  0.00  0.00    +0.000 C 
ENDROOT
BRANCH   3   4
ATOM      4  C   UNL     1     101.033 126.931  82.708  0.00  0.00    +0.000 A 
ATOM      5  C   UNL     1      99.690 126.780  82.349  0.00  0.00    +0.000 A 
ATOM      6  C   UNL     1      98.763 127.775  82.667  0.00  0.00    +0.000 A 
ATOM      7  C   UNL     1      99.175 128.923  83.343  0.00  0.00    +0.000 A 
ATOM      8  C   UNL     1     100.514 129.079  83.701  0.00  0.00    +0.000 A 
ATOM      9  C   UNL     1     101.442 128.085  83.384  0.00  0.00    +0.000 A 
ENDBRANCH   3   4
BRANCH   2  10
ATOM     10  C   UNL     1     103.877 124.889  81.215  0.00  0.00    +0.000 A 
ATOM     11  C   UNL     1     104.041 123.910  82.200  0.00  0.00    +0.000 A 
ATOM     12  C   UNL     1     104.902 122.831  81.982  0.00  0.00    +0.000 A 
ATOM     13  C   UNL     1     105.602 122.730  80.781  0.00  0.00    +0.000 A 
ATOM     14  C   UNL     1     105.446 123.705  79.796  0.00  0.00    +0.000 A 
ATOM     15  C   UNL     1     104.586 124.783  80.012  0.00  0.00    +0.000 A 
ENDBRANCH   2  10
TORSDOF 2
ENDMDL
