MODEL 1
REMARK VINA RESULT:      -4.3      0.000      0.000
REMARK  Name = *****
REMARK  3 active torsions:
REMARK  status: ('A' for Active; 'I' for Inactive)
REMARK    1  A    between atoms: C_1  and  C_2
REMARK    2  A    between atoms: C_5  and  C_8
REMARK    3  A    between atoms: C_9  and  C_10
REMARK                            x       y       z     vdW  Elec       q    Type
REMARK                         _______ _______ _______ _____ _____    ______ ____
ROOT
ATOM      1  C   UNL     1      99.157 129.941  84.098  0.00  0.00    +0.000 C 
ATOM      2  C   UNL     1     100.034 128.859  83.540  0.00  0.00    +0.000 A 
ATOM      3  C   UNL     1      99.474 127.731  82.931  0.00  0.00    +0.000 A 
ATOM      4  C   UNL     1     100.292 126.710  82.441  0.00  0.00    +0.000 A 
ATOM      5  C   UNL     1     101.686 126.797  82.551  0.00  0.00    +0.000 A 
ATOM      6  C   UNL     1     102.241 127.912  83.189  0.00  0.00    +0.000 A 
ATOM      7  C   UNL     1     101.424 128.934  83.679  0.00  0.00    +0.000 A 
ENDROOT
BRANCH   5   8
ATOM      8  C   UNL     1     102.577 125.728  82.077  0.00  0.00    +0.000 C 
ATOM      9  C   UNL     1     103.465 125.898  81.084  0.00  0.00    +0.000 C 
BRANCH   9  10
ATOM     10  C   UNL     1     104.329 124.852  80.637  0.00  0.00    +0.000 A 
ATOM     11  C   UNL     1     104.364 123.500  80.944  0.00  0.00    +0.000 A 
ATOM     12  C   UNL     1     105.403 122.793  80.270  0.00  0.00    +0.000 A 
ATOM     13  C   UNL     1     106.143 123.620  79.460  0.00  0.00    +0.000 A 
ATOM     14  S   UNL     1     105.586 125.232  79.513  0.00  0.00    +0.000 S 
ENDBRANCH   9  10
ENDBRANCH   5   8
TORSDOF 2
ENDMDL
