MODEL 1
REMARK VINA RESULT:      -4.8      0.000      0.000
REMARK  Name = *****
REMARK  1 active torsions:
REMARK  status: ('A' for Active; 'I' for Inactive)
REMARK    1  A    between atoms: C_9  and  C_11
REMARK                            x       y       z     vdW  Elec       q    Type
REMARK                         _______ _______ _______ _____ _____    ______ ____
ROOT
ATOM      1  C   UNL     1      99.483 130.675  83.835  0.00  0.00    +0.000 C 
ATOM      2  C   UNL     1     100.747 130.470  84.662  0.00  0.00    +0.000 C 
ATOM      3  C   UNL     1     100.665 129.199  85.506  0.00  0.00    +0.000 C 
ATOM      4  C   UNL     1     100.333 127.956  84.671  0.00  0.00    +0.000 C 
ATOM      5  C   UNL     1      99.095 128.171  83.808  0.00  0.00    +0.000 C 
ATOM      6  C   UNL     1      99.179 129.457  82.968  0.00  0.00    +0.000 C 
ATOM      7  C   UNL     1      98.947 126.934  82.938  0.00  0.00    +0.000 C 
ATOM      8  O   UNL     1     100.143 126.648  82.201  0.00  0.00    +0.000 OA
ATOM      9  C   UNL     1     101.330 127.010  82.739  0.00  0.00    +0.000 C 
ATOM     10  N   UNL     1     101.501 127.618  83.859  0.00  0.00    +0.000 NA
ENDROOT
BRANCH   9  11
ATOM     11  C   UNL     1     102.456 126.645  81.842  0.00  0.00    +0.000 A 
ATOM     12  C   UNL     1     103.192 127.611  81.140  0.00  0.00    +0.000 A 
ATOM     13  C   UNL     1     104.258 127.227  80.319  0.00  0.00    +0.000 A 
ATOM     14  C   UNL     1     104.591 125.879  80.198  0.00  0.00    +0.000 A 
ATOM     15  C   UNL     1     103.866 124.909  80.886  0.00  0.00    +0.000 A 
ATOM     16  C   UNL     1     102.801 125.291  81.707  0.00  0.00    +0.000 A 
ATOM     17 CL   UNL     1     105.906 125.412  79.192  0.00  0.00    +0.000 Cl
ENDBRANCH   9  11
TORSDOF 1
ENDMDL
