MODEL 1
REMARK VINA RESULT:      -4.6      0.000      0.000
REMARK  Name = *****
REMARK  3 active torsions:
REMARK  status: ('A' for Active; 'I' for Inactive)
REMARK    1  A    between atoms: C_6  and  C_7
REMARK    2  A    between atoms: C_7  and  O_8
REMARK    3  A    between atoms: O_8  and  C_9
REMARK                            x       y       z     vdW  Elec       q    Type
REMARK                         _______ _______ _______ _____ _____    ______ ____
ROOT
ATOM      1  C   UNL     1      89.774  66.365  86.464  0.00  0.00    +0.000 A 
ATOM      2  C   UNL     1      90.428  65.463  85.613  0.00  0.00    +0.000 A 
ATOM      3  C   UNL     1      89.924  64.185  85.393  0.00  0.00    +0.000 A 
ATOM      4  C   UNL     1      88.755  63.785  86.020  0.00  0.00    +0.000 A 
ATOM      5  C   UNL     1      88.094  64.664  86.867  0.00  0.00    +0.000 A 
ATOM      6  C   UNL     1      88.598  65.945  87.089  0.00  0.00    +0.000 A 
ATOM      7  F   UNL     1      87.921  66.754  87.916  0.00  0.00    +0.000 F 
ATOM      8  F   UNL     1      86.963  64.279  87.476  0.00  0.00    +0.000 F 
ATOM      9  F   UNL     1      88.265  62.556  85.812  0.00  0.00    +0.000 F 
ATOM     10  F   UNL     1      90.566  63.342  84.573  0.00  0.00    +0.000 F 
ATOM     11  F   UNL     1      91.559  65.832  84.993  0.00  0.00    +0.000 F 
ENDROOT
BRANCH   1  12
ATOM     12  O   UNL     1      90.381  67.584  86.593  0.00  0.00    +0.000 OA
BRANCH  12  13
ATOM     13  C   UNL     1      89.927  68.653  85.760  0.00  0.00    +0.000 C 
BRANCH  13  19
ATOM     14  C   UNL     1      89.211  69.959  87.803  0.00  0.00    +0.000 A 
ATOM     15  C   UNL     1      88.270  70.698  88.524  0.00  0.00    +0.000 A 
ATOM     16  C   UNL     1      87.021  70.959  87.967  0.00  0.00    +0.000 A 
ATOM     17  C   UNL     1      86.701  70.483  86.698  0.00  0.00    +0.000 A 
ATOM     18  C   UNL     1      87.642  69.743  85.978  0.00  0.00    +0.000 A 
ATOM     19  C   UNL     1      88.913  69.484  86.517  0.00  0.00    +0.000 A 
ATOM     20 CL   UNL     1      85.862  71.870  88.855  0.00  0.00    +0.000 Cl
ENDBRANCH  13  19
ENDBRANCH  12  13
ENDBRANCH   1  12
TORSDOF 3
ENDMDL
