MODEL 1
REMARK VINA RESULT:      -5.1      0.000      0.000
REMARK  Name = *****
REMARK  3 active torsions:
REMARK  status: ('A' for Active; 'I' for Inactive)
REMARK    1  A    between atoms: C_1  and  C_2
REMARK    2  A    between atoms: C_4  and  N_8
REMARK    3  A    between atoms: C_9  and  C_11
REMARK                            x       y       z     vdW  Elec       q    Type
REMARK                         _______ _______ _______ _____ _____    ______ ____
ROOT
ATOM      1  N   UNL     1     101.879 126.032  82.562  0.00  0.00    +0.000 N 
ATOM      2  C   UNL     1     102.862 126.049  81.590  0.00  0.00    +0.000 C 
ATOM      3  O   UNL     1     103.111 126.956  80.806  0.00  0.00    +0.000 OA
ATOM      4  H   UNL     1     101.855 125.239  83.146  0.00  0.00    +0.000 HD
ENDROOT
BRANCH   2   5
ATOM      5  C   UNL     1     103.725 124.835  81.543  0.00  0.00    +0.000 A 
ATOM      6  C   UNL     1     103.906 124.012  82.661  0.00  0.00    +0.000 A 
ATOM      7  C   UNL     1     104.721 122.878  82.569  0.00  0.00    +0.000 A 
ATOM      8  C   UNL     1     105.347 122.555  81.358  0.00  0.00    +0.000 A 
ATOM      9  C   UNL     1     105.148 123.367  80.237  0.00  0.00    +0.000 A 
ATOM     10  C   UNL     1     104.336 124.499  80.328  0.00  0.00    +0.000 A 
ATOM     11 CL   UNL     1     106.367 121.173  81.180  0.00  0.00    +0.000 Cl
ATOM     12 CL   UNL     1     104.909 121.914  83.991  0.00  0.00    +0.000 Cl
ENDBRANCH   2   5
BRANCH   1  16
ATOM     13  C   UNL     1     100.440 130.485  84.339  0.00  0.00    +0.000 C 
ATOM     14  C   UNL     1     100.147 129.175  83.669  0.00  0.00    +0.000 A 
ATOM     15  C   UNL     1     101.170 128.239  83.448  0.00  0.00    +0.000 A 
ATOM     16  C   UNL     1     100.904 127.023  82.813  0.00  0.00    +0.000 A 
ATOM     17  C   UNL     1      99.598 126.756  82.383  0.00  0.00    +0.000 A 
ATOM     18  C   UNL     1      98.577 127.686  82.587  0.00  0.00    +0.000 A 
ATOM     19  C   UNL     1      98.850 128.892  83.227  0.00  0.00    +0.000 A 
ENDBRANCH   1  16
TORSDOF 2
ENDMDL
