MODEL 1
REMARK VINA RESULT:      -4.7      0.000      0.000
REMARK  Name = *****
REMARK  4 active torsions:
REMARK  status: ('A' for Active; 'I' for Inactive)
REMARK    1  A    between atoms: C_2  and  C_3
REMARK    2  A    between atoms: C_2  and  O_9
REMARK    3  A    between atoms: O_9  and  C_10
REMARK    4  A    between atoms: C_10  and  C_12
REMARK                            x       y       z     vdW  Elec       q    Type
REMARK                         _______ _______ _______ _____ _____    ______ ____
ROOT
ATOM      1  O   UNL     1     102.218 125.628  81.477  0.00  0.00    +0.000 OA
ENDROOT
BRANCH   1   3
ATOM      2  C   UNL     1     103.509 127.315  80.394  0.00  0.00    +0.000 C 
ATOM      3  C   UNL     1     103.375 126.046  80.803  0.00  0.00    +0.000 C 
BRANCH   3   4
ATOM      4  C   UNL     1     104.347 124.983  80.484  0.00  0.00    +0.000 A 
ATOM      5  C   UNL     1     105.348 125.180  79.522  0.00  0.00    +0.000 A 
ATOM      6  C   UNL     1     106.270 124.171  79.236  0.00  0.00    +0.000 A 
ATOM      7  C   UNL     1     106.206 122.955  79.913  0.00  0.00    +0.000 A 
ATOM      8  C   UNL     1     105.222 122.748  80.877  0.00  0.00    +0.000 A 
ATOM      9  C   UNL     1     104.300 123.758  81.164  0.00  0.00    +0.000 A 
ENDBRANCH   3   4
ENDBRANCH   1   3
BRANCH   1  10
ATOM     10  C   UNL     1     102.149 126.086  82.763  0.00  0.00    +0.000 C 
ATOM     11  O   UNL     1     102.885 125.797  83.697  0.00  0.00    +0.000 OA
BRANCH  10  12
ATOM     12  C   UNL     1     101.010 127.038  82.898  0.00  0.00    +0.000 A 
ATOM     13  C   UNL     1      99.719 126.747  82.432  0.00  0.00    +0.000 A 
ATOM     14  C   UNL     1      98.690 127.680  82.586  0.00  0.00    +0.000 A 
ATOM     15  C   UNL     1      98.943 128.906  83.201  0.00  0.00    +0.000 A 
ATOM     16  C   UNL     1     100.223 129.204  83.665  0.00  0.00    +0.000 A 
ATOM     17  C   UNL     1     101.254 128.274  83.514  0.00  0.00    +0.000 A 
ENDBRANCH  10  12
ENDBRANCH   1  10
TORSDOF 4
ENDMDL
