MODEL 1
REMARK VINA RESULT:      -4.7      0.000      0.000
REMARK  Name = *****
REMARK  6 active torsions:
REMARK  status: ('A' for Active; 'I' for Inactive)
REMARK    1  A    between atoms: C_1  and  C_2
REMARK    2  A    between atoms: C_4  and  C_9
REMARK    3  A    between atoms: C_5  and  C_8
REMARK    4  A    between atoms: C_9  and  C_11
REMARK    5  A    between atoms: C_11  and  C_12
REMARK    6  A    between atoms: C_12  and  C_13
REMARK                            x       y       z     vdW  Elec       q    Type
REMARK                         _______ _______ _______ _____ _____    ______ ____
ROOT
ATOM      1  C   UNL     1      89.433  70.096  86.387  0.00  0.00    +0.000 C 
ATOM      2  O   UNL     1      90.086  70.884  85.709  0.00  0.00    +0.000 OA
ENDROOT
BRANCH   1   6
ATOM      3  C   UNL     1      87.521  70.956  90.939  0.00  0.00    +0.000 C 
ATOM      4  C   UNL     1      87.387  71.016  89.446  0.00  0.00    +0.000 A 
ATOM      5  C   UNL     1      88.429  70.571  88.621  0.00  0.00    +0.000 A 
ATOM      6  C   UNL     1      88.297  70.587  87.222  0.00  0.00    +0.000 A 
ATOM      7  C   UNL     1      87.103  71.045  86.632  0.00  0.00    +0.000 A 
ATOM      8  C   UNL     1      86.056  71.464  87.469  0.00  0.00    +0.000 A 
ATOM      9  C   UNL     1      86.196  71.448  88.859  0.00  0.00    +0.000 A 
ATOM     10  C   UNL     1      86.896  71.083  85.143  0.00  0.00    +0.000 C 
ENDBRANCH   1   6
BRANCH   1  11
ATOM     11  C   UNL     1      89.720  68.605  86.396  0.00  0.00    +0.000 C 
BRANCH  11  12
ATOM     12  C   UNL     1      88.483  67.803  85.997  0.00  0.00    +0.000 C 
BRANCH  12  13
ATOM     13  C   UNL     1      88.064  66.854  87.094  0.00  0.00    +0.000 A 
ATOM     14  C   UNL     1      86.991  67.175  87.936  0.00  0.00    +0.000 A 
ATOM     15  C   UNL     1      86.616  66.308  88.965  0.00  0.00    +0.000 A 
ATOM     16  C   UNL     1      87.316  65.119  89.157  0.00  0.00    +0.000 A 
ATOM     17  C   UNL     1      88.387  64.790  88.329  0.00  0.00    +0.000 A 
ATOM     18  C   UNL     1      88.763  65.657  87.301  0.00  0.00    +0.000 A 
ATOM     19 CL   UNL     1      86.856  64.052  90.425  0.00  0.00    +0.000 Cl
ENDBRANCH  12  13
ENDBRANCH  11  12
ENDBRANCH   1  11
TORSDOF 4
ENDMDL
