REMARK  Name = *****
REMARK  3 active torsions:
REMARK  status: ('A' for Active; 'I' for Inactive)
REMARK    1  A    between atoms: C_1  and  C_2
REMARK    2  A    between atoms: C_5  and  N_8
REMARK    3  A    between atoms: C_9  and  C_10
REMARK                            x       y       z     vdW  Elec       q    Type
REMARK                         _______ _______ _______ _____ _____    ______ ____
ROOT
ATOM      1  C   UNL     1      -5.376   0.820  -0.598  0.00  0.00    +0.000 A 
ATOM      2  C   UNL     1      -6.178   0.141   0.323  0.00  0.00    +0.000 A 
ATOM      3  C   UNL     1      -7.564   0.259   0.262  0.00  0.00    +0.000 A 
ATOM      4  C   UNL     1      -8.158   1.050  -0.711  0.00  0.00    +0.000 A 
ATOM      5  C   UNL     1      -7.367   1.726  -1.629  0.00  0.00    +0.000 A 
ATOM      6  C   UNL     1      -5.982   1.612  -1.573  0.00  0.00    +0.000 A 
ATOM      7  F   UNL     1      -5.236   2.275  -2.469  0.00  0.00    +0.000 F 
ATOM      8  F   UNL     1      -7.936   2.491  -2.570  0.00  0.00    +0.000 F 
ATOM      9  F   UNL     1      -9.493   1.161  -0.766  0.00  0.00    +0.000 F 
ATOM     10  F   UNL     1      -8.330  -0.396   1.146  0.00  0.00    +0.000 F 
ATOM     11  F   UNL     1      -5.648  -0.637   1.276  0.00  0.00    +0.000 F 
ENDROOT
BRANCH   1  13
ATOM     12  N   UNL     1      -3.255   0.066   0.300  0.00  0.00    +0.000 NA
ATOM     13  C   UNL     1      -3.907   0.740  -0.591  0.00  0.00    +0.000 C 
BRANCH  12  18
ATOM     14  C   UNL     1       2.443   0.077  -0.139  0.00  0.00    +0.000 C 
ATOM     15  C   UNL     1       0.946   0.091  -0.051  0.00  0.00    +0.000 A 
ATOM     16  C   UNL     1       0.285   1.125   0.624  0.00  0.00    +0.000 A 
ATOM     17  C   UNL     1      -1.107   1.118   0.738  0.00  0.00    +0.000 A 
ATOM     18  C   UNL     1      -1.858   0.081   0.180  0.00  0.00    +0.000 A 
ATOM     19  C   UNL     1      -1.199  -0.966  -0.465  0.00  0.00    +0.000 A 
ATOM     20  C   UNL     1       0.193  -0.964  -0.580  0.00  0.00    +0.000 A 
ENDBRANCH  12  18
ENDBRANCH   1  13
TORSDOF 2
