MODEL 1
REMARK VINA RESULT:      -4.2      0.000      0.000
REMARK  Name = *****
REMARK  3 active torsions:
REMARK  status: ('A' for Active; 'I' for Inactive)
REMARK    1  A    between atoms: C_6  and  O_8
REMARK    2  A    between atoms: O_8  and  C_9
REMARK    3  A    between atoms: C_9  and  C_10
REMARK                            x       y       z     vdW  Elec       q    Type
REMARK                         _______ _______ _______ _____ _____    ______ ____
ROOT
ATOM      1  O   UNL     1     103.271 126.598  83.478  0.00  0.00    +0.000 OA
ENDROOT
BRANCH   1   7
ATOM      2  C   UNL     1     103.557 127.082  80.351  0.00  0.00    +0.000 C 
ATOM      3  C   UNL     1     103.781 125.573  80.051  0.00  0.00    +0.000 C 
ATOM      4  C   UNL     1     103.628 124.872  81.352  0.00  0.00    +0.000 C 
ATOM      5  C   UNL     1     104.364 123.906  82.232  0.00  0.00    +0.000 C 
ATOM      6  C   UNL     1     104.837 125.322  82.179  0.00  0.00    +0.000 C 
ATOM      7  C   UNL     1     104.500 126.659  82.760  0.00  0.00    +0.000 C 
ATOM      8  C   UNL     1     104.407 127.626  81.540  0.00  0.00    +0.000 C 
ENDBRANCH   1   7
BRANCH   1   9
ATOM      9  C   UNL     1     102.717 127.885  83.741  0.00  0.00    +0.000 C 
BRANCH   9  10
ATOM     10  C   UNL     1     101.262 127.916  83.341  0.00  0.00    +0.000 A 
ATOM     11  C   UNL     1     100.687 126.815  82.690  0.00  0.00    +0.000 A 
ATOM     12  C   UNL     1      99.332 126.816  82.352  0.00  0.00    +0.000 A 
ATOM     13  C   UNL     1      98.533 127.912  82.670  0.00  0.00    +0.000 A 
ATOM     14  C   UNL     1      99.087 129.007  83.330  0.00  0.00    +0.000 A 
ATOM     15  C   UNL     1     100.442 129.006  83.669  0.00  0.00    +0.000 A 
ENDBRANCH   9  10
ENDBRANCH   1   9
TORSDOF 3
ENDMDL
