MODEL 1
REMARK VINA RESULT:      -4.6      0.000      0.000
REMARK  Name = *****
REMARK  4 active torsions:
REMARK  status: ('A' for Active; 'I' for Inactive)
REMARK    1  A    between atoms: C_1  and  C_2
REMARK    2  A    between atoms: C_5  and  C_8
REMARK    3  A    between atoms: C_9  and  S_10
REMARK    4  A    between atoms: S_10  and  C_11
REMARK                            x       y       z     vdW  Elec       q    Type
REMARK                         _______ _______ _______ _____ _____    ______ ____
ROOT
ATOM      1  C   UNL     1      89.845  66.742  86.410  0.00  0.00    +0.000 C 
ATOM      2  C   UNL     1      88.915  65.807  86.162  0.00  0.00    +0.000 C 
ENDROOT
BRANCH   1   7
ATOM      3  C   UNL     1      89.735  72.135  84.305  0.00  0.00    +0.000 C 
ATOM      4  C   UNL     1      89.727  70.740  84.857  0.00  0.00    +0.000 A 
ATOM      5  C   UNL     1      89.608  70.523  86.233  0.00  0.00    +0.000 A 
ATOM      6  C   UNL     1      89.635  69.224  86.752  0.00  0.00    +0.000 A 
ATOM      7  C   UNL     1      89.780  68.120  85.904  0.00  0.00    +0.000 A 
ATOM      8  C   UNL     1      89.930  68.343  84.531  0.00  0.00    +0.000 A 
ATOM      9  C   UNL     1      89.904  69.641  84.011  0.00  0.00    +0.000 A 
ENDBRANCH   1   7
BRANCH   2  10
ATOM     10  S   UNL     1      89.075  64.199  86.793  0.00  0.00    +0.000 S 
BRANCH  10  11
ATOM     11  C   UNL     1      88.243  64.424  88.353  0.00  0.00    +0.000 A 
ATOM     12  C   UNL     1      88.692  63.746  89.494  0.00  0.00    +0.000 A 
ATOM     13  C   UNL     1      88.043  63.928  90.716  0.00  0.00    +0.000 A 
ATOM     14  C   UNL     1      86.953  64.787  90.795  0.00  0.00    +0.000 A 
ATOM     15  C   UNL     1      86.500  65.472  89.673  0.00  0.00    +0.000 A 
ATOM     16  C   UNL     1      87.148  65.292  88.449  0.00  0.00    +0.000 A 
ATOM     17  F   UNL     1      86.332  64.959  91.968  0.00  0.00    +0.000 F 
ENDBRANCH  10  11
ENDBRANCH   2  10
TORSDOF 3
ENDMDL
