MODEL 1
REMARK VINA RESULT:      -4.9      0.000      0.000
REMARK  Name = *****
REMARK  1 active torsions:
REMARK  status: ('A' for Active; 'I' for Inactive)
REMARK    1  A    between atoms: C_5  and  C_7
REMARK                            x       y       z     vdW  Elec       q    Type
REMARK                         _______ _______ _______ _____ _____    ______ ____
ROOT
ATOM      1  C   UNL     1     102.080 126.114  82.443  0.00  0.00    +0.000 A 
ATOM      2  N   UNL     1     102.627 125.208  83.238  0.00  0.00    +0.000 NA
ATOM      3  C   UNL     1     103.534 124.571  82.430  0.00  0.00    +0.000 A 
ATOM      4  C   UNL     1     104.396 123.495  82.679  0.00  0.00    +0.000 A 
ATOM      5  C   UNL     1     105.215 123.048  81.630  0.00  0.00    +0.000 A 
ATOM      6  C   UNL     1     105.180 123.663  80.371  0.00  0.00    +0.000 A 
ATOM      7  C   UNL     1     104.331 124.745  80.111  0.00  0.00    +0.000 A 
ATOM      8  C   UNL     1     103.532 125.150  81.174  0.00  0.00    +0.000 A 
ATOM      9  O   UNL     1     102.617 126.160  81.182  0.00  0.00    +0.000 OA
ENDROOT
BRANCH   1  14
ATOM     10  C   UNL     1      98.665 127.665  82.653  0.00  0.00    +0.000 A 
ATOM     11  C   UNL     1      98.918 128.884  83.273  0.00  0.00    +0.000 A 
ATOM     12  C   UNL     1     100.223 129.217  83.634  0.00  0.00    +0.000 A 
ATOM     13  C   UNL     1     101.283 128.334  83.381  0.00  0.00    +0.000 A 
ATOM     14  C   UNL     1     101.043 127.094  82.766  0.00  0.00    +0.000 A 
ATOM     15  C   UNL     1      99.718 126.782  82.400  0.00  0.00    +0.000 A 
ATOM     16 CL   UNL     1     102.862 128.898  83.813  0.00  0.00    +0.000 Cl
ENDBRANCH   1  14
TORSDOF 1
ENDMDL
