REMARK  Name = *****
REMARK  2 active torsions:
REMARK  status: ('A' for Active; 'I' for Inactive)
REMARK    1  A    between atoms: C_5  and  C_6
REMARK    2  A    between atoms: C_6  and  C_7
REMARK                            x       y       z     vdW  Elec       q    Type
REMARK                         _______ _______ _______ _____ _____    ______ ____
ROOT
ATOM      1  C   UNL     1       0.752   1.395  -0.789  0.00  0.00    +0.000 C 
ATOM      2  C   UNL     1       1.492   0.582   0.267  0.00  0.00    +0.000 C 
ATOM      3  S   UNL     1       1.075  -1.181   0.211  0.00  0.00    +0.000 S 
ATOM      4  C   UNL     1      -0.669  -1.095   0.367  0.00  0.00    +0.000 C 
ATOM      5  C   UNL     1      -1.243  -1.859   1.314  0.00  0.00    +0.000 C 
ATOM      6  S   UNL     1      -1.587  -0.114  -0.826  0.00  0.00    +0.000 S 
ATOM      7  O   UNL     1      -2.999   0.062  -0.358  0.00  0.00    +0.000 OA
ATOM      8  C   UNL     1      -0.743   1.466  -0.523  0.00  0.00    +0.000 C 
ENDROOT
BRANCH   5   9
ATOM      9  C   UNL     1      -2.685  -2.099   1.662  0.00  0.00    +0.000 C 
BRANCH   9  10
ATOM     10  C   UNL     1      -3.068  -1.444   2.969  0.00  0.00    +0.000 A 
ATOM     11  C   UNL     1      -3.657  -0.173   2.981  0.00  0.00    +0.000 A 
ATOM     12  C   UNL     1      -3.990   0.444   4.188  0.00  0.00    +0.000 A 
ATOM     13  C   UNL     1      -3.733  -0.201   5.396  0.00  0.00    +0.000 A 
ATOM     14  C   UNL     1      -3.141  -1.463   5.398  0.00  0.00    +0.000 A 
ATOM     15  C   UNL     1      -2.808  -2.081   4.192  0.00  0.00    +0.000 A 
ENDBRANCH   9  10
ENDBRANCH   5   9
TORSDOF 2
