MODEL 1
REMARK VINA RESULT:      -4.5      0.000      0.000
REMARK  Name = *****
REMARK  6 active torsions:
REMARK  status: ('A' for Active; 'I' for Inactive)
REMARK    1  A    between atoms: C_1  and  C_2
REMARK    2  A    between atoms: C_2  and  O_3
REMARK    3  A    between atoms: O_3  and  C_4
REMARK    4  A    between atoms: C_7  and  S_10
REMARK    5  A    between atoms: S_10  and  C_11
REMARK    6  A    between atoms: C_11  and  C_12
REMARK                            x       y       z     vdW  Elec       q    Type
REMARK                         _______ _______ _______ _____ _____    ______ ____
ROOT
ATOM      1  C   UNL     1      89.155  65.871  86.851  0.00  0.00    +0.000 A 
ATOM      2  N   UNL     1      90.261  66.567  86.515  0.00  0.00    +0.000 NA
ATOM      3  N   UNL     1      90.222  67.938  86.509  0.00  0.00    +0.000 NA
ATOM      4  C   UNL     1      89.086  68.588  86.838  0.00  0.00    +0.000 A 
ATOM      5  C   UNL     1      87.939  67.889  87.187  0.00  0.00    +0.000 A 
ATOM      6  C   UNL     1      87.974  66.498  87.193  0.00  0.00    +0.000 A 
ENDROOT
BRANCH   1   7
ATOM      7  O   UNL     1      89.160  64.492  86.867  0.00  0.00    +0.000 OA
BRANCH   7   9
ATOM      8  C   UNL     1      88.683  63.667  89.052  0.00  0.00    +0.000 C 
ATOM      9  C   UNL     1      88.117  63.936  87.670  0.00  0.00    +0.000 C 
ENDBRANCH   7   9
ENDBRANCH   1   7
BRANCH   4  10
ATOM     10  S   UNL     1      89.056  70.367  86.830  0.00  0.00    +0.000 S 
BRANCH  10  11
ATOM     11  C   UNL     1      87.805  70.679  88.119  0.00  0.00    +0.000 C 
BRANCH  11  12
ATOM     12  C   UNL     1      86.559  71.295  87.532  0.00  0.00    +0.000 A 
ATOM     13  C   UNL     1      86.420  71.437  86.143  0.00  0.00    +0.000 A 
ATOM     14  C   UNL     1      85.273  72.018  85.601  0.00  0.00    +0.000 A 
ATOM     15  C   UNL     1      84.256  72.468  86.440  0.00  0.00    +0.000 A 
ATOM     16  C   UNL     1      84.386  72.342  87.822  0.00  0.00    +0.000 A 
ATOM     17  C   UNL     1      85.533  71.761  88.367  0.00  0.00    +0.000 A 
ENDBRANCH  11  12
ENDBRANCH  10  11
ENDBRANCH   4  10
TORSDOF 5
ENDMDL
