REMARK  Name = *****
REMARK  6 active torsions:
REMARK  status: ('A' for Active; 'I' for Inactive)
REMARK    1  A    between atoms: C_1  and  C_2
REMARK    2  A    between atoms: C_2  and  O_3
REMARK    3  A    between atoms: O_3  and  C_4
REMARK    4  A    between atoms: C_8  and  C_9
REMARK    5  A    between atoms: C_9  and  C_10
REMARK    6  A    between atoms: C_10  and  C_11
REMARK                            x       y       z     vdW  Elec       q    Type
REMARK                         _______ _______ _______ _____ _____    ______ ____
ROOT
ATOM      1  C   UNL     1       4.374  -1.140   1.084  0.00  0.00    +0.000 C 
ATOM      2  C   UNL     1       5.392  -0.286   1.262  0.00  0.00    +0.000 C 
ATOM      3  C   UNL     1       6.709  -0.982   1.181  0.00  0.00    +0.000 C 
ATOM      4  C   UNL     1       6.317  -2.451   1.316  0.00  0.00    +0.000 C 
ATOM      5  C   UNL     1       4.852  -2.551   0.850  0.00  0.00    +0.000 C 
ENDROOT
BRANCH   1   6
ATOM      6  O   UNL     1       3.034  -0.895   1.053  0.00  0.00    +0.000 OA
BRANCH   6   8
ATOM      7  C   UNL     1       1.102   0.487   1.241  0.00  0.00    +0.000 C 
ATOM      8  C   UNL     1       2.619   0.450   1.286  0.00  0.00    +0.000 C 
ENDBRANCH   6   8
ENDBRANCH   1   6
BRANCH   5   9
ATOM      9  C   UNL     1       4.110  -3.656   1.616  0.00  0.00    +0.000 C 
BRANCH   9  10
ATOM     10  C   UNL     1       2.761  -4.021   0.987  0.00  0.00    +0.000 C 
BRANCH  10  11
ATOM     11  C   UNL     1       2.099  -5.159   1.727  0.00  0.00    +0.000 A 
ATOM     12  C   UNL     1       1.288  -4.901   2.840  0.00  0.00    +0.000 A 
ATOM     13  C   UNL     1       0.688  -5.951   3.536  0.00  0.00    +0.000 A 
ATOM     14  C   UNL     1       0.896  -7.268   3.129  0.00  0.00    +0.000 A 
ATOM     15  C   UNL     1       1.707  -7.535   2.027  0.00  0.00    +0.000 A 
ATOM     16  C   UNL     1       2.308  -6.486   1.329  0.00  0.00    +0.000 A 
ENDBRANCH  10  11
ENDBRANCH   9  10
ENDBRANCH   5   9
TORSDOF 5
