MODEL 1
REMARK VINA RESULT:      -4.5      0.000      0.000
REMARK  Name = *****
REMARK  2 active torsions:
REMARK  status: ('A' for Active; 'I' for Inactive)
REMARK    1  A    between atoms: C_5  and  C_6
REMARK    2  A    between atoms: C_7  and  C_8
REMARK                            x       y       z     vdW  Elec       q    Type
REMARK                         _______ _______ _______ _____ _____    ______ ____
ROOT
ATOM      1  C   UNL     1      85.315  61.352  90.298  0.00  0.00    +0.000 C 
ATOM      2  C   UNL     1      85.875  61.486  89.084  0.00  0.00    +0.000 C 
ENDROOT
BRANCH   1   7
ATOM      3  C   UNL     1      85.031  56.203  90.960  0.00  0.00    +0.000 C 
ATOM      4  C   UNL     1      86.167  57.194  90.710  0.00  0.00    +0.000 C 
ATOM      5  C   UNL     1      85.938  58.520  91.439  0.00  0.00    +0.000 C 
ATOM      6  C   UNL     1      84.584  59.099  91.093  0.00  0.00    +0.000 C 
ATOM      7  C   UNL     1      84.342  60.325  90.594  0.00  0.00    +0.000 C 
ATOM      8  C   UNL     1      83.443  58.135  91.348  0.00  0.00    +0.000 C 
ATOM      9  C   UNL     1      83.670  56.811  90.617  0.00  0.00    +0.000 C 
ENDBRANCH   1   7
BRANCH   2  10
ATOM     10  C   UNL     1      86.871  62.515  88.754  0.00  0.00    +0.000 A 
ATOM     11  C   UNL     1      87.119  62.813  87.407  0.00  0.00    +0.000 A 
ATOM     12  C   UNL     1      88.037  63.805  87.056  0.00  0.00    +0.000 A 
ATOM     13  C   UNL     1      88.708  64.519  88.047  0.00  0.00    +0.000 A 
ATOM     14  C   UNL     1      88.458  64.243  89.390  0.00  0.00    +0.000 A 
ATOM     15  C   UNL     1      87.540  63.249  89.742  0.00  0.00    +0.000 A 
ENDBRANCH   2  10
TORSDOF 2
ENDMDL
