MODEL 1
REMARK VINA RESULT:      -3.7      0.000      0.000
REMARK  Name = *****
REMARK  5 active torsions:
REMARK  status: ('A' for Active; 'I' for Inactive)
REMARK    1  A    between atoms: C_1  and  C_2
REMARK    2  A    between atoms: C_5  and  C_8
REMARK    3  A    between atoms: C_8  and  O_10
REMARK    4  A    between atoms: O_10  and  C_11
REMARK    5  A    between atoms: C_11  and  C_12
REMARK                            x       y       z     vdW  Elec       q    Type
REMARK                         _______ _______ _______ _____ _____    ______ ____
ROOT
ATOM      1  C   UNL     1      86.333  68.881  87.935  0.00  0.00    +0.000 C 
ATOM      2  O   UNL     1      85.326  68.650  87.278  0.00  0.00    +0.000 OA
ENDROOT
BRANCH   1   7
ATOM      3  C   UNL     1      89.953  70.412  85.142  0.00  0.00    +0.000 C 
ATOM      4  C   UNL     1      88.960  70.497  86.265  0.00  0.00    +0.000 C 
ATOM      5  C   UNL     1      89.294  70.207  87.535  0.00  0.00    +0.000 C 
ATOM      6  C   UNL     1      88.322  70.238  88.682  0.00  0.00    +0.000 C 
ATOM      7  C   UNL     1      86.850  70.285  88.241  0.00  0.00    +0.000 C 
ATOM      8  C   UNL     1      86.688  71.282  87.086  0.00  0.00    +0.000 C 
ATOM      9  C   UNL     1      87.568  70.930  85.882  0.00  0.00    +0.000 C 
ENDBRANCH   1   7
BRANCH   1  10
ATOM     10  O   UNL     1      87.185  67.928  88.400  0.00  0.00    +0.000 OA
BRANCH  10  11
ATOM     11  C   UNL     1      87.188  66.684  87.691  0.00  0.00    +0.000 C 
BRANCH  11  12
ATOM     12  C   UNL     1      88.190  66.757  86.569  0.00  0.00    +0.000 A 
ATOM     13  C   UNL     1      87.770  66.976  85.250  0.00  0.00    +0.000 A 
ATOM     14  C   UNL     1      88.699  67.023  84.210  0.00  0.00    +0.000 A 
ATOM     15  C   UNL     1      90.055  66.840  84.477  0.00  0.00    +0.000 A 
ATOM     16  C   UNL     1      90.483  66.607  85.783  0.00  0.00    +0.000 A 
ATOM     17  C   UNL     1      89.555  66.561  86.824  0.00  0.00    +0.000 A 
ENDBRANCH  11  12
ENDBRANCH  10  11
ENDBRANCH   1  10
TORSDOF 4
ENDMDL
