REMARK  Name = *****
REMARK  4 active torsions:
REMARK  status: ('A' for Active; 'I' for Inactive)
REMARK    1  A    between atoms: N_2  and  C_3
REMARK    2  A    between atoms: C_8  and  C_9
REMARK    3  A    between atoms: C_9  and  C_10
REMARK    4  A    between atoms: C_10  and  C_11
REMARK                            x       y       z     vdW  Elec       q    Type
REMARK                         _______ _______ _______ _____ _____    ______ ____
ROOT
ATOM      1  C   UNL     1       0.400   0.411   1.059  0.00  0.00    +0.000 A 
ATOM      2  C   UNL     1       1.045  -0.828   1.047  0.00  0.00    +0.000 A 
ATOM      3  C   UNL     1       1.423  -1.393  -0.169  0.00  0.00    +0.000 A 
ATOM      4  C   UNL     1       1.154  -0.719  -1.361  0.00  0.00    +0.000 A 
ATOM      5  C   UNL     1       0.509   0.520  -1.341  0.00  0.00    +0.000 A 
ATOM      6  C   UNL     1       0.125   1.109  -0.127  0.00  0.00    +0.000 A 
ENDROOT
BRANCH   1   8
ATOM      7  C   UNL     1      -0.277   1.363   3.341  0.00  0.00    +0.000 C 
ATOM      8  N   UNL     1       0.030   0.936   2.293  0.00  0.00    +0.000 NA
ENDBRANCH   1   8
BRANCH   6   9
ATOM      9  C   UNL     1      -0.587   2.441  -0.135  0.00  0.00    +0.000 C 
BRANCH   9  10
ATOM     10  C   UNL     1      -2.109   2.272  -0.105  0.00  0.00    +0.000 C 
BRANCH  10  11
ATOM     11  C   UNL     1      -2.813   3.606  -0.101  0.00  0.00    +0.000 A 
ATOM     12  C   UNL     1      -3.210   4.206  -1.304  0.00  0.00    +0.000 A 
ATOM     13  C   UNL     1      -3.843   5.450  -1.298  0.00  0.00    +0.000 A 
ATOM     14  C   UNL     1      -4.080   6.107  -0.092  0.00  0.00    +0.000 A 
ATOM     15  C   UNL     1      -3.683   5.522   1.109  0.00  0.00    +0.000 A 
ATOM     16  C   UNL     1      -3.051   4.278   1.106  0.00  0.00    +0.000 A 
ENDBRANCH  10  11
ENDBRANCH   9  10
ENDBRANCH   6   9
TORSDOF 4
