MODEL 1
REMARK VINA RESULT:      -4.9      0.000      0.000
REMARK  Name = *****
REMARK  4 active torsions:
REMARK  status: ('A' for Active; 'I' for Inactive)
REMARK    1  A    between atoms: C_2  and  C_3
REMARK    2  A    between atoms: C_3  and  C_4
REMARK    3  A    between atoms: C_3  and  C_11
REMARK    4  A    between atoms: C_4  and  C_5
REMARK                            x       y       z     vdW  Elec       q    Type
REMARK                         _______ _______ _______ _____ _____    ______ ____
ROOT
ATOM      1  C   UNL     1     102.918 126.791  81.231  0.00  0.00    +0.000 C 
ENDROOT
BRANCH   1   2
ATOM      2  C   UNL     1     103.570 125.425  81.433  0.00  0.00    +0.000 A 
ATOM      3  C   UNL     1     103.606 124.848  82.712  0.00  0.00    +0.000 A 
ATOM      4  C   UNL     1     104.201 123.601  82.913  0.00  0.00    +0.000 A 
ATOM      5  C   UNL     1     104.767 122.916  81.841  0.00  0.00    +0.000 A 
ATOM      6  C   UNL     1     104.738 123.475  80.566  0.00  0.00    +0.000 A 
ATOM      7  C   UNL     1     104.144 124.722  80.361  0.00  0.00    +0.000 A 
ENDBRANCH   1   2
BRANCH   1   9
ATOM      8  C   UNL     1     104.589 128.640  80.585  0.00  0.00    +0.000 C 
ATOM      9  C   UNL     1     103.757 127.636  80.280  0.00  0.00    +0.000 C 
ENDBRANCH   1   9
BRANCH   1  10
ATOM     10  C   UNL     1     102.570 127.475  82.579  0.00  0.00    +0.000 C 
BRANCH  10  11
ATOM     11  C   UNL     1     101.085 127.639  82.828  0.00  0.00    +0.000 A 
ATOM     12  C   UNL     1     100.179 126.674  82.368  0.00  0.00    +0.000 A 
ATOM     13  C   UNL     1      98.810 126.821  82.595  0.00  0.00    +0.000 A 
ATOM     14  C   UNL     1      98.333 127.936  83.282  0.00  0.00    +0.000 A 
ATOM     15  C   UNL     1      99.224 128.902  83.743  0.00  0.00    +0.000 A 
ATOM     16  C   UNL     1     100.594 128.754  83.520  0.00  0.00    +0.000 A 
ENDBRANCH  10  11
ENDBRANCH   1  10
TORSDOF 4
ENDMDL
