MODEL 1
REMARK VINA RESULT:      -3.7      0.000      0.000
REMARK  Name = *****
REMARK  6 active torsions:
REMARK  status: ('A' for Active; 'I' for Inactive)
REMARK    1  A    between atoms: C_1  and  C_2
REMARK    2  A    between atoms: C_2  and  C_4
REMARK    3  A    between atoms: C_6  and  C_8
REMARK    4  A    between atoms: C_8  and  O_9
REMARK    5  A    between atoms: O_9  and  C_10
REMARK    6  A    between atoms: C_10  and  C_11
REMARK                            x       y       z     vdW  Elec       q    Type
REMARK                         _______ _______ _______ _____ _____    ______ ____
ROOT
ATOM      1  C   UNL     1      89.843  68.751  84.050  0.00  0.00    +0.000 C 
ENDROOT
BRANCH   1   4
ATOM      2  C   UNL     1      88.755  66.757  86.375  0.00  0.00    +0.000 C 
ATOM      3  C   UNL     1      89.956  67.341  86.205  0.00  0.00    +0.000 C 
ATOM      4  C   UNL     1      89.850  67.367  84.690  0.00  0.00    +0.000 C 
ATOM      5  C   UNL     1      88.463  66.708  84.886  0.00  0.00    +0.000 C 
BRANCH   2   7
ATOM      6  C   UNL     1      86.943  67.264  88.101  0.00  0.00    +0.000 C 
ATOM      7  C   UNL     1      87.984  66.320  87.575  0.00  0.00    +0.000 C 
ATOM      8  C   UNL     1      88.225  65.132  88.148  0.00  0.00    +0.000 C 
ENDBRANCH   2   7
ENDBRANCH   1   4
BRANCH   1   9
ATOM      9  O   UNL     1      90.109  69.716  85.069  0.00  0.00    +0.000 OA
BRANCH   9  10
ATOM     10  C   UNL     1      89.099  70.726  85.112  0.00  0.00    +0.000 C 
BRANCH  10  11
ATOM     11  C   UNL     1      88.427  70.739  86.464  0.00  0.00    +0.000 A 
ATOM     12  C   UNL     1      89.148  70.486  87.639  0.00  0.00    +0.000 A 
ATOM     13  C   UNL     1      88.522  70.542  88.886  0.00  0.00    +0.000 A 
ATOM     14  C   UNL     1      87.171  70.866  88.973  0.00  0.00    +0.000 A 
ATOM     15  C   UNL     1      86.444  71.135  87.815  0.00  0.00    +0.000 A 
ATOM     16  C   UNL     1      87.069  71.078  86.568  0.00  0.00    +0.000 A 
ENDBRANCH  10  11
ENDBRANCH   9  10
ENDBRANCH   1   9
TORSDOF 5
ENDMDL
