MODEL 1
REMARK VINA RESULT:      -4.4      0.000      0.000
REMARK  Name = *****
REMARK  5 active torsions:
REMARK  status: ('A' for Active; 'I' for Inactive)
REMARK    1  A    between atoms: C_1  and  C_2
REMARK    2  A    between atoms: C_5  and  S_8
REMARK    3  A    between atoms: S_8  and  O_10
REMARK    4  A    between atoms: O_10  and  C_11
REMARK    5  A    between atoms: C_11  and  C_12
REMARK                            x       y       z     vdW  Elec       q    Type
REMARK                         _______ _______ _______ _____ _____    ______ ____
ROOT
ATOM      1  S   UNL     1     105.324 124.997  80.124  0.00  0.00    +0.000 S 
ATOM      2  O   UNL     1     105.744 124.469  78.784  0.00  0.00    +0.000 OA
ENDROOT
BRANCH   1   7
ATOM      3  C   UNL     1     104.078 120.131  83.627  0.00  0.00    +0.000 C 
ATOM      4  C   UNL     1     104.407 121.315  82.768  0.00  0.00    +0.000 A 
ATOM      5  C   UNL     1     104.449 122.600  83.322  0.00  0.00    +0.000 A 
ATOM      6  C   UNL     1     104.721 123.710  82.518  0.00  0.00    +0.000 A 
ATOM      7  C   UNL     1     104.945 123.551  81.145  0.00  0.00    +0.000 A 
ATOM      8  C   UNL     1     104.894 122.269  80.588  0.00  0.00    +0.000 A 
ATOM      9  C   UNL     1     104.619 121.160  81.392  0.00  0.00    +0.000 A 
ENDBRANCH   1   7
BRANCH   1  10
ATOM     10  O   UNL     1     103.776 125.426  80.010  0.00  0.00    +0.000 OA
BRANCH  10  11
ATOM     11  C   UNL     1     103.537 126.819  80.170  0.00  0.00    +0.000 C 
BRANCH  11  12
ATOM     12  C   UNL     1     102.882 127.024  81.507  0.00  0.00    +0.000 A 
ATOM     13  C   UNL     1     101.966 126.088  82.008  0.00  0.00    +0.000 A 
ATOM     14  C   UNL     1     101.379 126.277  83.262  0.00  0.00    +0.000 A 
ATOM     15  C   UNL     1     101.708 127.394  84.029  0.00  0.00    +0.000 A 
ATOM     16  C   UNL     1     102.628 128.322  83.545  0.00  0.00    +0.000 A 
ATOM     17  C   UNL     1     103.208 128.129  82.295  0.00  0.00    +0.000 A 
ATOM     18  F   UNL     1     104.097 129.030  81.848  0.00  0.00    +0.000 F 
ENDBRANCH  11  12
ENDBRANCH  10  11
ENDBRANCH   1  10
TORSDOF 4
ENDMDL
