MODEL 1
REMARK VINA RESULT:      -5.1      0.000      0.000
REMARK  Name = *****
REMARK  1 active torsions:
REMARK  status: ('A' for Active; 'I' for Inactive)
REMARK    1  A    between atoms: C_4  and  N_7
REMARK                            x       y       z     vdW  Elec       q    Type
REMARK                         _______ _______ _______ _____ _____    ______ ____
ROOT
ATOM      1  N   UNL     1     102.870 125.672  82.043  0.00  0.00    +0.000 N 
ATOM      2  C   UNL     1     103.182 125.657  80.697  0.00  0.00    +0.000 A 
ATOM      3  N   UNL     1     103.943 124.801  80.096  0.00  0.00    +0.000 NA
ATOM      4  C   UNL     1     104.523 123.796  80.870  0.00  0.00    +0.000 A 
ATOM      5  C   UNL     1     104.306 123.699  82.243  0.00  0.00    +0.000 A 
ATOM      6  C   UNL     1     103.409 124.686  82.879  0.00  0.00    +0.000 A 
ATOM      7  O   UNL     1     103.173 124.533  84.077  0.00  0.00    +0.000 OA
ATOM      8  C   UNL     1     104.908 122.681  82.996  0.00  0.00    +0.000 A 
ATOM      9  C   UNL     1     105.735 121.760  82.361  0.00  0.00    +0.000 A 
ATOM     10  C   UNL     1     105.964 121.846  80.988  0.00  0.00    +0.000 A 
ATOM     11  C   UNL     1     105.357 122.864  80.247  0.00  0.00    +0.000 A 
ATOM     12 CL   UNL     1     106.481 120.507  83.272  0.00  0.00    +0.000 Cl
ENDROOT
BRANCH   1  16
ATOM     13  C   UNL     1     100.243 128.688  83.553  0.00  0.00    +0.000 A 
ATOM     14  C   UNL     1     101.620 128.839  83.668  0.00  0.00    +0.000 A 
ATOM     15  C   UNL     1     102.480 127.849  83.179  0.00  0.00    +0.000 A 
ATOM     16  C   UNL     1     101.986 126.688  82.562  0.00  0.00    +0.000 A 
ATOM     17  C   UNL     1     100.588 126.559  82.461  0.00  0.00    +0.000 A 
ATOM     18  C   UNL     1      99.726 127.548  82.951  0.00  0.00    +0.000 A 
ENDBRANCH   1  16
TORSDOF 1
ENDMDL
