REMARK  Name = *****
REMARK  3 active torsions:
REMARK  status: ('A' for Active; 'I' for Inactive)
REMARK    1  A    between atoms: C_1  and  C_2
REMARK    2  A    between atoms: C_2  and  C_3
REMARK    3  A    between atoms: C_2  and  N_10
REMARK                            x       y       z     vdW  Elec       q    Type
REMARK                         _______ _______ _______ _____ _____    ______ ____
ROOT
ATOM      1  C   UNL     1       0.898   0.116  -0.069  0.00  0.00    +0.000 C 
ATOM      2  C   UNL     1       2.420  -0.063  -0.114  0.00  0.00    +0.000 C 
ENDROOT
BRANCH   2   3
ATOM      3  N   UNL     1       2.971  -0.066  -1.467  0.00  0.00    +0.000 N 
ATOM      4  C   UNL     1       4.204   0.386  -1.871  0.00  0.00    +0.000 A 
ATOM      5  C   UNL     1       5.303   0.943  -1.207  0.00  0.00    +0.000 A 
ATOM      6  C   UNL     1       6.410   1.282  -1.995  0.00  0.00    +0.000 A 
ATOM      7  C   UNL     1       6.412   1.071  -3.376  0.00  0.00    +0.000 A 
ATOM      8  C   UNL     1       5.301   0.508  -4.017  0.00  0.00    +0.000 A 
ATOM      9  C   UNL     1       4.184   0.163  -3.243  0.00  0.00    +0.000 A 
ATOM     10  N   UNL     1       2.987  -0.392  -3.604  0.00  0.00    +0.000 NA
ATOM     11  N   UNL     1       2.249  -0.529  -2.511  0.00  0.00    +0.000 NA
ENDBRANCH   2   3
BRANCH   2  12
ATOM     12  C   UNL     1       2.865  -1.301   0.654  0.00  0.00    +0.000 A 
ATOM     13  C   UNL     1       2.538  -2.595   0.212  0.00  0.00    +0.000 A 
ATOM     14  C   UNL     1       2.948  -3.720   0.932  0.00  0.00    +0.000 A 
ATOM     15  C   UNL     1       3.685  -3.562   2.102  0.00  0.00    +0.000 A 
ATOM     16  C   UNL     1       4.016  -2.289   2.559  0.00  0.00    +0.000 A 
ATOM     17  C   UNL     1       3.606  -1.163   1.840  0.00  0.00    +0.000 A 
ATOM     18 CL   UNL     1       4.189  -4.946   2.990  0.00  0.00    +0.000 Cl
ENDBRANCH   2  12
TORSDOF 2
