MODEL 1
REMARK VINA RESULT:      -4.3      0.000      0.000
REMARK  Name = *****
REMARK  3 active torsions:
REMARK  status: ('A' for Active; 'I' for Inactive)
REMARK    1  A    between atoms: C_1  and  C_2
REMARK    2  A    between atoms: C_5  and  C_8
REMARK    3  A    between atoms: N_10  and  C_11
REMARK                            x       y       z     vdW  Elec       q    Type
REMARK                         _______ _______ _______ _____ _____    ______ ____
ROOT
ATOM      1  C   UNL     1      87.697  63.803  86.616  0.00  0.00    +0.000 C 
ATOM      2  C   UNL     1      86.321  63.411  87.079  0.00  0.00    +0.000 C 
ATOM      3  N   UNL     1      87.502  62.942  87.801  0.00  0.00    +0.000 N 
ENDROOT
BRANCH   1   8
ATOM      4  C   UNL     1      89.586  69.334  86.780  0.00  0.00    +0.000 C 
ATOM      5  C   UNL     1      89.106  67.913  86.768  0.00  0.00    +0.000 A 
ATOM      6  C   UNL     1      89.953  66.885  86.346  0.00  0.00    +0.000 A 
ATOM      7  C   UNL     1      89.496  65.565  86.304  0.00  0.00    +0.000 A 
ATOM      8  C   UNL     1      88.188  65.224  86.685  0.00  0.00    +0.000 A 
ATOM      9  C   UNL     1      87.342  66.276  87.077  0.00  0.00    +0.000 A 
ATOM     10  C   UNL     1      87.791  67.601  87.119  0.00  0.00    +0.000 A 
ENDBRANCH   1   8
BRANCH   3  11
ATOM     11  C   UNL     1      87.751  63.382  89.126  0.00  0.00    +0.000 A 
ATOM     12  C   UNL     1      89.009  63.552  89.719  0.00  0.00    +0.000 A 
ATOM     13  C   UNL     1      89.130  64.002  91.039  0.00  0.00    +0.000 A 
ATOM     14  C   UNL     1      87.994  64.299  91.787  0.00  0.00    +0.000 A 
ATOM     15  C   UNL     1      86.735  64.145  91.216  0.00  0.00    +0.000 A 
ATOM     16  C   UNL     1      86.620  63.694  89.899  0.00  0.00    +0.000 A 
ENDBRANCH   3  11
TORSDOF 2
ENDMDL
