REMARK  Name = *****
REMARK  5 active torsions:
REMARK  status: ('A' for Active; 'I' for Inactive)
REMARK    1  A    between atoms: C_1  and  C_2
REMARK    2  A    between atoms: C_5  and  C_8
REMARK    3  A    between atoms: C_8  and  C_9
REMARK    4  A    between atoms: C_9  and  C_10
REMARK    5  A    between atoms: C_10  and  C_12
REMARK                            x       y       z     vdW  Elec       q    Type
REMARK                         _______ _______ _______ _____ _____    ______ ____
ROOT
ATOM      1  C   UNL     1      -3.866   1.440  -0.051  0.00  0.00    +0.000 C 
ENDROOT
BRANCH   1   2
ATOM      2  C   UNL     1      -5.383   1.453  -0.067  0.00  0.00    +0.000 C 
ATOM      3  O   UNL     1      -6.049   0.419  -0.062  0.00  0.00    +0.000 OA
BRANCH   2   4
ATOM      4  C   UNL     1      -6.088   2.772  -0.089  0.00  0.00    +0.000 A 
ATOM      5  C   UNL     1      -5.397   3.993  -0.086  0.00  0.00    +0.000 A 
ATOM      6  C   UNL     1      -6.105   5.199  -0.108  0.00  0.00    +0.000 A 
ATOM      7  C   UNL     1      -7.495   5.184  -0.133  0.00  0.00    +0.000 A 
ATOM      8  C   UNL     1      -8.195   3.984  -0.137  0.00  0.00    +0.000 A 
ATOM      9  C   UNL     1      -7.493   2.778  -0.115  0.00  0.00    +0.000 A 
ATOM     10  F   UNL     1      -8.166   6.342  -0.154  0.00  0.00    +0.000 F 
ENDBRANCH   2   4
ENDBRANCH   1   2
BRANCH   1  11
ATOM     11  C   UNL     1      -3.311   0.016  -0.038  0.00  0.00    +0.000 C 
BRANCH  11  16
ATOM     12  C   UNL     1       2.514   0.127  -0.017  0.00  0.00    +0.000 C 
ATOM     13  C   UNL     1       1.014   0.091  -0.012  0.00  0.00    +0.000 A 
ATOM     14  C   UNL     1       0.298   0.077   1.190  0.00  0.00    +0.000 A 
ATOM     15  C   UNL     1      -1.099   0.044   1.181  0.00  0.00    +0.000 A 
ATOM     16  C   UNL     1      -1.802   0.021  -0.029  0.00  0.00    +0.000 A 
ATOM     17  C   UNL     1      -1.084   0.039  -1.231  0.00  0.00    +0.000 A 
ATOM     18  C   UNL     1       0.312   0.072  -1.222  0.00  0.00    +0.000 A 
ENDBRANCH  11  16
ENDBRANCH   1  11
TORSDOF 4
