REMARK  Name = *****
REMARK  5 active torsions:
REMARK  status: ('A' for Active; 'I' for Inactive)
REMARK    1  A    between atoms: C_4  and  C_6
REMARK    2  A    between atoms: C_6  and  C_7
REMARK    3  A    between atoms: C_7  and  C_8
REMARK    4  A    between atoms: C_8  and  O_10
REMARK    5  A    between atoms: O_10  and  C_11
REMARK                            x       y       z     vdW  Elec       q    Type
REMARK                         _______ _______ _______ _____ _____    ______ ____
ROOT
ATOM      1  C   UNL     1      -3.565   1.581   2.928  0.00  0.00    +0.000 C 
ATOM      2  O   UNL     1      -3.002   2.281   3.757  0.00  0.00    +0.000 OA
ENDROOT
BRANCH   1   3
ATOM      3  C   UNL     1      -2.888   0.860   1.783  0.00  0.00    +0.000 C 
BRANCH   3   4
ATOM      4  C   UNL     1      -1.395   1.183   1.711  0.00  0.00    +0.000 C 
BRANCH   4   8
ATOM      5  C   UNL     1       1.367  -0.202  -0.484  0.00  0.00    +0.000 C 
ATOM      6  C   UNL     1       0.400  -1.384  -0.437  0.00  0.00    +0.000 C 
ATOM      7  C   UNL     1      -0.682  -1.003   0.566  0.00  0.00    +0.000 C 
ATOM      8  C   UNL     1      -0.708   0.523   0.515  0.00  0.00    +0.000 C 
ATOM      9  C   UNL     1       0.778   0.867   0.432  0.00  0.00    +0.000 C 
ENDBRANCH   4   8
ENDBRANCH   3   4
ENDBRANCH   1   3
BRANCH   1  10
ATOM     10  O   UNL     1      -4.928   1.294   2.873  0.00  0.00    +0.000 OA
BRANCH  10  11
ATOM     11  C   UNL     1      -5.656   1.906   3.893  0.00  0.00    +0.000 A 
ATOM     12  C   UNL     1      -6.239   3.148   3.660  0.00  0.00    +0.000 A 
ATOM     13  C   UNL     1      -7.000   3.722   4.670  0.00  0.00    +0.000 A 
ATOM     14  C   UNL     1      -7.194   3.071   5.886  0.00  0.00    +0.000 A 
ATOM     15  C   UNL     1      -6.619   1.816   6.100  0.00  0.00    +0.000 A 
ATOM     16  C   UNL     1      -5.851   1.225   5.096  0.00  0.00    +0.000 A 
ATOM     17  F   UNL     1      -7.565   4.920   4.469  0.00  0.00    +0.000 F 
ENDBRANCH  10  11
ENDBRANCH   1  10
TORSDOF 5
