MODEL 1
REMARK VINA RESULT:      -4.5      0.000      0.000
REMARK  Name = *****
REMARK  4 active torsions:
REMARK  status: ('A' for Active; 'I' for Inactive)
REMARK    1  A    between atoms: C_5  and  C_7
REMARK    2  A    between atoms: C_7  and  O_8
REMARK    3  A    between atoms: O_8  and  C_9
REMARK    4  A    between atoms: C_9  and  C_11
REMARK                            x       y       z     vdW  Elec       q    Type
REMARK                         _______ _______ _______ _____ _____    ______ ____
ROOT
ATOM      1  O   UNL     1     103.624 124.914  80.190  0.00  0.00    +0.000 OA
ENDROOT
BRANCH   1   2
ATOM      2  C   UNL     1     104.848 124.368  80.381  0.00  0.00    +0.000 C 
ATOM      3  O   UNL     1     105.914 124.750  79.933  0.00  0.00    +0.000 OA
BRANCH   2   4
ATOM      4  C   UNL     1     104.688 123.187  81.242  0.00  0.00    +0.000 A 
ATOM      5  C   UNL     1     104.592 121.924  80.638  0.00  0.00    +0.000 A 
ATOM      6  C   UNL     1     104.465 120.782  81.429  0.00  0.00    +0.000 A 
ATOM      7  C   UNL     1     104.434 120.898  82.819  0.00  0.00    +0.000 A 
ATOM      8  C   UNL     1     104.530 122.156  83.420  0.00  0.00    +0.000 A 
ATOM      9  C   UNL     1     104.659 123.305  82.635  0.00  0.00    +0.000 A 
ATOM     10 CL   UNL     1     104.730 124.829  83.441  0.00  0.00    +0.000 Cl
ENDBRANCH   2   4
ENDBRANCH   1   2
BRANCH   1  11
ATOM     11  C   UNL     1     103.581 126.353  80.223  0.00  0.00    +0.000 C 
BRANCH  11  16
ATOM     12  C   UNL     1     101.054 126.551  83.082  0.00  0.00    +0.000 A 
ATOM     13  C   UNL     1     101.441 127.718  83.733  0.00  0.00    +0.000 A 
ATOM     14  C   UNL     1     102.530 128.447  83.259  0.00  0.00    +0.000 A 
ATOM     15  C   UNL     1     103.228 128.017  82.124  0.00  0.00    +0.000 A 
ATOM     16  C   UNL     1     102.833 126.859  81.436  0.00  0.00    +0.000 A 
ATOM     17  C   UNL     1     101.748 126.122  81.949  0.00  0.00    +0.000 A 
ATOM     18 CL   UNL     1     104.595 128.955  81.637  0.00  0.00    +0.000 Cl
ENDBRANCH  11  16
ENDBRANCH   1  11
TORSDOF 4
ENDMDL
