MODEL 1
REMARK VINA RESULT:      -4.1      0.000      0.000
REMARK  Name = *****
REMARK  3 active torsions:
REMARK  status: ('A' for Active; 'I' for Inactive)
REMARK    1  A    between atoms: N_5  and  N_8
REMARK    2  A    between atoms: N_8  and  C_9
REMARK    3  A    between atoms: C_9  and  C_10
REMARK                            x       y       z     vdW  Elec       q    Type
REMARK                         _______ _______ _______ _____ _____    ______ ____
ROOT
ATOM      1  C   UNL     1      88.809  64.562  86.956  0.00  0.00    +0.000 C 
ENDROOT
BRANCH   1   2
ATOM      2  C   UNL     1      88.869  66.040  86.914  0.00  0.00    +0.000 A 
ATOM      3  C   UNL     1      89.923  66.715  86.285  0.00  0.00    +0.000 A 
ATOM      4  C   UNL     1      89.941  68.115  86.267  0.00  0.00    +0.000 A 
ATOM      5  C   UNL     1      88.913  68.841  86.874  0.00  0.00    +0.000 A 
ATOM      6  C   UNL     1      87.867  68.166  87.500  0.00  0.00    +0.000 A 
ATOM      7  C   UNL     1      87.840  66.774  87.524  0.00  0.00    +0.000 A 
ATOM      8 CL   UNL     1      86.603  69.063  88.247  0.00  0.00    +0.000 Cl
ATOM      9 CL   UNL     1      91.239  65.903  85.514  0.00  0.00    +0.000 Cl
ENDBRANCH   1   2
BRANCH   1  10
ATOM     10  N   UNL     1      87.722  63.942  87.304  0.00  0.00    +0.000 NA
BRANCH  10  15
ATOM     11  C   UNL     1      86.635  64.818  90.472  0.00  0.00    +0.000 C 
ATOM     12  C   UNL     1      85.426  63.914  90.249  0.00  0.00    +0.000 C 
ATOM     13  C   UNL     1      85.448  63.097  88.961  0.00  0.00    +0.000 C 
ATOM     14  C   UNL     1      86.723  62.282  88.712  0.00  0.00    +0.000 C 
ATOM     15  N   UNL     1      87.898  63.084  88.345  0.00  0.00    +0.000 NA
ATOM     16  C   UNL     1      88.666  63.566  89.502  0.00  0.00    +0.000 C 
ATOM     17  C   UNL     1      87.904  64.019  90.749  0.00  0.00    +0.000 C 
ENDBRANCH  10  15
ENDBRANCH   1  10
TORSDOF 3
ENDMDL
