REMARK  Name = *****
REMARK  4 active torsions:
REMARK  status: ('A' for Active; 'I' for Inactive)
REMARK    1  A    between atoms: C_1  and  C_2
REMARK    2  A    between atoms: C_2  and  C_3
REMARK    3  A    between atoms: C_2  and  S_9
REMARK    4  A    between atoms: S_9  and  C_10
REMARK                            x       y       z     vdW  Elec       q    Type
REMARK                         _______ _______ _______ _____ _____    ______ ____
ROOT
ATOM      1  C   UNL     1       0.858   0.011  -0.136  0.00  0.00    +0.000 C 
ATOM      2  C   UNL     1       2.388  -0.031  -0.132  0.00  0.00    +0.000 C 
ENDROOT
BRANCH   2   3
ATOM      3  C   UNL     1       2.923  -1.390   0.293  0.00  0.00    +0.000 A 
ATOM      4  C   UNL     1       2.511  -2.580  -0.331  0.00  0.00    +0.000 A 
ATOM      5  C   UNL     1       3.018  -3.815   0.080  0.00  0.00    +0.000 A 
ATOM      6  C   UNL     1       3.945  -3.880   1.117  0.00  0.00    +0.000 A 
ATOM      7  C   UNL     1       4.370  -2.710   1.741  0.00  0.00    +0.000 A 
ATOM      8  C   UNL     1       3.865  -1.474   1.332  0.00  0.00    +0.000 A 
ENDBRANCH   2   3
BRANCH   2   9
ATOM      9  S   UNL     1       3.061   0.426  -1.788  0.00  0.00    +0.000 S 
BRANCH   9  10
ATOM     10  C   UNL     1       2.688   2.168  -1.824  0.00  0.00    +0.000 A 
ATOM     11  C   UNL     1       3.301   3.060  -0.939  0.00  0.00    +0.000 A 
ATOM     12  C   UNL     1       3.000   4.423  -0.991  0.00  0.00    +0.000 A 
ATOM     13  C   UNL     1       2.092   4.901  -1.934  0.00  0.00    +0.000 A 
ATOM     14  C   UNL     1       1.489   4.020  -2.829  0.00  0.00    +0.000 A 
ATOM     15  C   UNL     1       1.790   2.657  -2.778  0.00  0.00    +0.000 A 
ENDBRANCH   9  10
ENDBRANCH   2   9
TORSDOF 3
