REMARK  Name = *****
REMARK  3 active torsions:
REMARK  status: ('A' for Active; 'I' for Inactive)
REMARK    1  A    between atoms: C_1  and  C_2
REMARK    2  A    between atoms: C_5  and  C_8
REMARK    3  A    between atoms: C_9  and  C_10
REMARK                            x       y       z     vdW  Elec       q    Type
REMARK                         _______ _______ _______ _____ _____    ______ ____
ROOT
ATOM      1  C   UNL     1      -3.261   0.216   0.124  0.00  0.00    +0.000 C 
ATOM      2  C   UNL     1      -4.040   1.190  -0.376  0.00  0.00    +0.000 C 
ATOM      3 CL   UNL     1      -3.417   2.583  -1.194  0.00  0.00    +0.000 Cl
ENDROOT
BRANCH   1   8
ATOM      4  C   UNL     1       2.510  -0.076  -0.018  0.00  0.00    +0.000 C 
ATOM      5  C   UNL     1       1.013   0.024  -0.001  0.00  0.00    +0.000 A 
ATOM      6  C   UNL     1       0.376   1.022   0.745  0.00  0.00    +0.000 A 
ATOM      7  C   UNL     1      -1.019   1.096   0.783  0.00  0.00    +0.000 A 
ATOM      8  C   UNL     1      -1.796   0.171   0.078  0.00  0.00    +0.000 A 
ATOM      9  C   UNL     1      -1.162  -0.841  -0.649  0.00  0.00    +0.000 A 
ATOM     10  C   UNL     1       0.234  -0.915  -0.687  0.00  0.00    +0.000 A 
ENDBRANCH   1   8
BRANCH   2  11
ATOM     11  C   UNL     1      -5.505   1.111  -0.266  0.00  0.00    +0.000 A 
ATOM     12  C   UNL     1      -6.215   2.073   0.467  0.00  0.00    +0.000 A 
ATOM     13  C   UNL     1      -7.605   1.996   0.579  0.00  0.00    +0.000 A 
ATOM     14  C   UNL     1      -8.298   0.958  -0.042  0.00  0.00    +0.000 A 
ATOM     15  C   UNL     1      -7.604  -0.003  -0.775  0.00  0.00    +0.000 A 
ATOM     16  C   UNL     1      -6.214   0.073  -0.887  0.00  0.00    +0.000 A 
ENDBRANCH   2  11
TORSDOF 2
