MODEL 1
REMARK VINA RESULT:      -4.6      0.000      0.000
REMARK  Name = *****
REMARK  2 active torsions:
REMARK  status: ('A' for Active; 'I' for Inactive)
REMARK    1  A    between atoms: C_1  and  C_2
REMARK    2  A    between atoms: C_5  and  C_7
REMARK                            x       y       z     vdW  Elec       q    Type
REMARK                         _______ _______ _______ _____ _____    ______ ____
ROOT
ATOM      1  C   UNL     1     102.186 126.639  82.439  0.00  0.00    +0.000 C 
ATOM      2  C   UNL     1     102.687 127.712  83.088  0.00  0.00    +0.000 C 
ATOM      3  C   UNL     1     101.587 128.551  83.535  0.00  0.00    +0.000 A 
ATOM      4  C   UNL     1     101.612 129.743  84.234  0.00  0.00    +0.000 A 
ATOM      5  C   UNL     1     100.390 130.351  84.543  0.00  0.00    +0.000 A 
ATOM      6  C   UNL     1      99.176 129.763  84.149  0.00  0.00    +0.000 A 
ATOM      7  C   UNL     1      99.164 128.559  83.443  0.00  0.00    +0.000 A 
ATOM      8  C   UNL     1     100.380 127.967  83.144  0.00  0.00    +0.000 A 
ATOM      9  C   UNL     1     100.657 126.693  82.408  0.00  0.00    +0.000 C 
ENDROOT
BRANCH   1  14
ATOM     10  C   UNL     1     105.432 122.491  81.922  0.00  0.00    +0.000 C 
ATOM     11  C   UNL     1     104.574 123.678  81.646  0.00  0.00    +0.000 A 
ATOM     12  C   UNL     1     104.315 124.286  80.439  0.00  0.00    +0.000 A 
ATOM     13  C   UNL     1     103.440 125.403  80.578  0.00  0.00    +0.000 A 
ATOM     14  C   UNL     1     103.043 125.634  81.887  0.00  0.00    +0.000 A 
ATOM     15  S   UNL     1     103.762 124.458  82.928  0.00  0.00    +0.000 S 
ENDBRANCH   1  14
TORSDOF 1
ENDMDL
