MODEL 1
REMARK VINA RESULT:      -5.1      0.000      0.000
REMARK  Name = *****
REMARK  3 active torsions:
REMARK  status: ('A' for Active; 'I' for Inactive)
REMARK    1  A    between atoms: C_1  and  C_2
REMARK    2  A    between atoms: C_5  and  C_8
REMARK    3  A    between atoms: C_12  and  C_13
REMARK                            x       y       z     vdW  Elec       q    Type
REMARK                         _______ _______ _______ _____ _____    ______ ____
ROOT
ATOM      1  C   UNL     1      88.662  70.267  86.336  0.00  0.00    +0.000 C 
ATOM      2  O   UNL     1      89.719  70.866  86.519  0.00  0.00    +0.000 OA
ATOM      3  N   UNL     1      88.571  68.948  85.905  0.00  0.00    +0.000 N 
ATOM      4  C   UNL     1      89.523  68.413  84.982  0.00  0.00    +0.000 C 
ATOM      5  C   UNL     1      89.499  67.965  86.405  0.00  0.00    +0.000 C 
ENDROOT
BRANCH   1  10
ATOM      6  C   UNL     1      83.557  72.797  87.466  0.00  0.00    +0.000 C 
ATOM      7  C   UNL     1      84.890  72.176  87.165  0.00  0.00    +0.000 A 
ATOM      8  C   UNL     1      85.676  71.651  88.197  0.00  0.00    +0.000 A 
ATOM      9  C   UNL     1      86.901  71.042  87.914  0.00  0.00    +0.000 A 
ATOM     10  C   UNL     1      87.352  70.938  86.592  0.00  0.00    +0.000 A 
ATOM     11  C   UNL     1      86.562  71.452  85.556  0.00  0.00    +0.000 A 
ATOM     12  C   UNL     1      85.336  72.061  85.842  0.00  0.00    +0.000 A 
ENDBRANCH   1  10
BRANCH   5  13
ATOM     13  C   UNL     1      88.935  66.620  86.781  0.00  0.00    +0.000 A 
ATOM     14  C   UNL     1      87.764  66.515  87.552  0.00  0.00    +0.000 A 
ATOM     15  C   UNL     1      87.224  65.272  87.894  0.00  0.00    +0.000 A 
ATOM     16  C   UNL     1      87.850  64.106  87.464  0.00  0.00    +0.000 A 
ATOM     17  C   UNL     1      89.005  64.175  86.692  0.00  0.00    +0.000 A 
ATOM     18  C   UNL     1      89.537  65.423  86.353  0.00  0.00    +0.000 A 
ATOM     19 CL   UNL     1      87.190  62.574  87.885  0.00  0.00    +0.000 Cl
ENDBRANCH   5  13
TORSDOF 2
ENDMDL
