REMARK  Name = *****
REMARK  3 active torsions:
REMARK  status: ('A' for Active; 'I' for Inactive)
REMARK    1  A    between atoms: C_1  and  C_2
REMARK    2  A    between atoms: C_2  and  C_9
REMARK    3  A    between atoms: C_4  and  C_5
REMARK                            x       y       z     vdW  Elec       q    Type
REMARK                         _______ _______ _______ _____ _____    ______ ____
ROOT
ATOM      1  C   UNL     1       2.832  -0.536   1.542  0.00  0.00    +0.000 C 
ATOM      2  C   UNL     1       2.397  -0.136   0.152  0.00  0.00    +0.000 C 
ATOM      3  C   UNL     1       3.303   0.809  -0.622  0.00  0.00    +0.000 C 
ATOM      4  C   UNL     1       3.198  -0.624  -1.051  0.00  0.00    +0.000 C 
ENDROOT
BRANCH   2   5
ATOM      5  C   UNL     1       0.888  -0.007  -0.017  0.00  0.00    +0.000 A 
ATOM      6  C   UNL     1       0.098  -1.115  -0.369  0.00  0.00    +0.000 A 
ATOM      7  C   UNL     1      -1.288  -1.007  -0.512  0.00  0.00    +0.000 A 
ATOM      8  C   UNL     1      -1.916   0.217  -0.300  0.00  0.00    +0.000 A 
ATOM      9  C   UNL     1      -1.159   1.328   0.057  0.00  0.00    +0.000 A 
ATOM     10  C   UNL     1       0.227   1.214   0.199  0.00  0.00    +0.000 A 
ENDBRANCH   2   5
BRANCH   4  11
ATOM     11  C   UNL     1       4.346  -1.602  -0.976  0.00  0.00    +0.000 C 
ATOM     12  C   UNL     1       5.154  -1.911  -2.269  0.00  0.00    +0.000 C 
ATOM     13  C   UNL     1       5.315  -3.351  -1.743  0.00  0.00    +0.000 C 
ATOM     14  C   UNL     1       4.025  -3.122  -0.932  0.00  0.00    +0.000 C 
ENDBRANCH   4  11
TORSDOF 2
