MODEL 1
REMARK VINA RESULT:      -4.4      0.000      0.000
REMARK  Name = *****
REMARK  3 active torsions:
REMARK  status: ('A' for Active; 'I' for Inactive)
REMARK    1  A    between atoms: C_1  and  N_2
REMARK    2  A    between atoms: N_2  and  C_3
REMARK    3  A    between atoms: C_9  and  C_11
REMARK                            x       y       z     vdW  Elec       q    Type
REMARK                         _______ _______ _______ _____ _____    ______ ____
ROOT
ATOM      1  C   UNL     1     102.426 127.524  84.513  0.00  0.00    +0.000 C 
ATOM      2  N   UNL     1     101.779 127.254  83.226  0.00  0.00    +0.000 N 
ATOM      3  C   UNL     1     100.391 127.441  83.083  0.00  0.00    +0.000 C 
ATOM      4  O   UNL     1      99.650 126.829  82.317  0.00  0.00    +0.000 OA
ENDROOT
BRANCH   3   5
ATOM      5  C   UNL     1      99.732 128.474  83.922  0.00  0.00    +0.000 A 
ATOM      6  C   UNL     1      99.891 129.835  83.632  0.00  0.00    +0.000 A 
ATOM      7  C   UNL     1      99.240 130.790  84.416  0.00  0.00    +0.000 A 
ATOM      8  C   UNL     1      98.425 130.383  85.473  0.00  0.00    +0.000 A 
ATOM      9  C   UNL     1      98.245 129.026  85.749  0.00  0.00    +0.000 A 
ATOM     10  C   UNL     1      98.893 128.068  84.967  0.00  0.00    +0.000 A 
ATOM     11 CL   UNL     1      97.627 131.561  86.437  0.00  0.00    +0.000 Cl
ENDBRANCH   3   5
BRANCH   2  12
ATOM     12  C   UNL     1     102.584 126.654  82.182  0.00  0.00    +0.000 A 
ATOM     13  C   UNL     1     103.090 127.405  81.109  0.00  0.00    +0.000 A 
ATOM     14  C   UNL     1     103.886 126.824  80.115  0.00  0.00    +0.000 A 
ATOM     15  C   UNL     1     104.208 125.475  80.173  0.00  0.00    +0.000 A 
ATOM     16  C   UNL     1     103.740 124.710  81.232  0.00  0.00    +0.000 A 
ATOM     17  C   UNL     1     102.943 125.293  82.226  0.00  0.00    +0.000 A 
ENDBRANCH   2  12
TORSDOF 2
ENDMDL
