MODEL 1
REMARK VINA RESULT:      -4.9      0.000      0.000
REMARK  Name = *****
REMARK  4 active torsions:
REMARK  status: ('A' for Active; 'I' for Inactive)
REMARK    1  A    between atoms: C_4  and  C_16
REMARK    2  A    between atoms: C_5  and  C_7
REMARK    3  A    between atoms: C_7  and  C_8
REMARK    4  A    between atoms: C_8  and  C_9
REMARK                            x       y       z     vdW  Elec       q    Type
REMARK                         _______ _______ _______ _____ _____    ______ ____
ROOT
ATOM      1  C   UNL     1     101.532 126.871  82.975  0.00  0.00    +0.000 C 
ENDROOT
BRANCH   1   6
ATOM      2  C   UNL     1     101.602 130.350  84.523  0.00  0.00    +0.000 A 
ATOM      3  C   UNL     1     100.279 130.764  84.393  0.00  0.00    +0.000 A 
ATOM      4  C   UNL     1      99.341 129.918  83.802  0.00  0.00    +0.000 A 
ATOM      5  C   UNL     1      99.720 128.649  83.340  0.00  0.00    +0.000 A 
ATOM      6  C   UNL     1     101.056 128.222  83.471  0.00  0.00    +0.000 A 
ATOM      7  C   UNL     1     101.990 129.090  84.064  0.00  0.00    +0.000 A 
BRANCH   5   8
ATOM      8  C   UNL     1      98.718 127.813  82.738  0.00  0.00    +0.000 C 
ATOM      9  N   UNL     1      97.907 127.147  82.243  0.00  0.00    +0.000 NA
ENDBRANCH   5   8
ENDBRANCH   1   6
BRANCH   1  10
ATOM     10  C   UNL     1     102.515 127.000  81.807  0.00  0.00    +0.000 C 
BRANCH  10  11
ATOM     11  C   UNL     1     103.306 125.732  81.592  0.00  0.00    +0.000 A 
ATOM     12  C   UNL     1     103.529 124.845  82.656  0.00  0.00    +0.000 A 
ATOM     13  C   UNL     1     104.270 123.677  82.460  0.00  0.00    +0.000 A 
ATOM     14  C   UNL     1     104.786 123.388  81.200  0.00  0.00    +0.000 A 
ATOM     15  C   UNL     1     104.571 124.258  80.133  0.00  0.00    +0.000 A 
ATOM     16  C   UNL     1     103.834 125.429  80.329  0.00  0.00    +0.000 A 
ATOM     17 CL   UNL     1     105.698 121.949  80.958  0.00  0.00    +0.000 Cl
ENDBRANCH  10  11
ENDBRANCH   1  10
TORSDOF 4
ENDMDL
