MODEL 1
REMARK VINA RESULT:      -4.1      0.000      0.000
REMARK  Name = *****
REMARK  3 active torsions:
REMARK  status: ('A' for Active; 'I' for Inactive)
REMARK    1  A    between atoms: C_1  and  C_2
REMARK    2  A    between atoms: C_4  and  N_8
REMARK    3  A    between atoms: C_9  and  C_10
REMARK                            x       y       z     vdW  Elec       q    Type
REMARK                         _______ _______ _______ _____ _____    ______ ____
ROOT
ATOM      1  C   UNL     1     101.542 130.314  84.577  0.00  0.00    +0.000 C 
ATOM      2  C   UNL     1     100.808 129.235  83.840  0.00  0.00    +0.000 A 
ATOM      3  C   UNL     1     101.497 128.117  83.350  0.00  0.00    +0.000 A 
ATOM      4  C   UNL     1     100.818 127.090  82.687  0.00  0.00    +0.000 A 
ATOM      5  C   UNL     1      99.431 127.166  82.547  0.00  0.00    +0.000 A 
ATOM      6  C   UNL     1      98.731 128.266  83.044  0.00  0.00    +0.000 A 
ATOM      7  C   UNL     1      99.417 129.296  83.689  0.00  0.00    +0.000 A 
ENDROOT
BRANCH   4   8
ATOM      8  N   UNL     1     101.513 125.975  82.199  0.00  0.00    +0.000 NA
ATOM      9  C   UNL     1     102.806 126.051  82.262  0.00  0.00    +0.000 C 
BRANCH   9  10
ATOM     10  C   UNL     1     103.629 124.964  81.792  0.00  0.00    +0.000 A 
ATOM     11  C   UNL     1     104.044 124.683  80.506  0.00  0.00    +0.000 A 
ATOM     12  C   UNL     1     104.853 123.511  80.444  0.00  0.00    +0.000 A 
ATOM     13  C   UNL     1     105.023 122.937  81.684  0.00  0.00    +0.000 A 
ATOM     14  S   UNL     1     104.214 123.812  82.912  0.00  0.00    +0.000 S 
ENDBRANCH   9  10
ENDBRANCH   4   8
TORSDOF 2
ENDMDL
