REMARK  Name = *****
REMARK  2 active torsions:
REMARK  status: ('A' for Active; 'I' for Inactive)
REMARK    1  A    between atoms: C_4  and  C_7
REMARK    2  A    between atoms: C_8  and  C_9
REMARK                            x       y       z     vdW  Elec       q    Type
REMARK                         _______ _______ _______ _____ _____    ______ ____
ROOT
ATOM      1  C   UNL     1      -5.204  -0.303  -0.579  0.00  0.00    +0.000 A 
ATOM      2  C   UNL     1      -5.701   0.777  -1.336  0.00  0.00    +0.000 A 
ATOM      3  C   UNL     1      -7.089   0.930  -1.456  0.00  0.00    +0.000 A 
ATOM      4  C   UNL     1      -7.923   0.011  -0.840  0.00  0.00    +0.000 A 
ATOM      5  C   UNL     1      -7.488  -1.077  -0.098  0.00  0.00    +0.000 A 
ATOM      6  C   UNL     1      -6.097  -1.216   0.014  0.00  0.00    +0.000 A 
ATOM      7  O   UNL     1      -9.212   0.375  -1.103  0.00  0.00    +0.000 OA
ATOM      8  C   UNL     1      -9.077   1.496  -1.868  0.00  0.00    +0.000 A 
ATOM      9  N   UNL     1      -7.841   1.873  -2.112  0.00  0.00    +0.000 NA
ENDROOT
BRANCH   1  11
ATOM     10  C   UNL     1      -2.849   0.436  -0.291  0.00  0.00    +0.000 C 
ATOM     11  C   UNL     1      -3.759  -0.542  -0.434  0.00  0.00    +0.000 C 
BRANCH  10  15
ATOM     12  C   UNL     1       1.361  -0.157   0.188  0.00  0.00    +0.000 A 
ATOM     13  C   UNL     1       0.645  -0.987  -0.672  0.00  0.00    +0.000 A 
ATOM     14  C   UNL     1      -0.732  -0.809  -0.833  0.00  0.00    +0.000 A 
ATOM     15  C   UNL     1      -1.409   0.194  -0.127  0.00  0.00    +0.000 A 
ATOM     16  C   UNL     1      -0.674   1.034   0.721  0.00  0.00    +0.000 A 
ATOM     17  C   UNL     1       0.702   0.856   0.883  0.00  0.00    +0.000 A 
ENDBRANCH  10  15
ENDBRANCH   1  11
TORSDOF 2
