REMARK  Name = *****
REMARK  2 active torsions:
REMARK  status: ('A' for Active; 'I' for Inactive)
REMARK    1  A    between atoms: C_3  and  C_8
REMARK    2  A    between atoms: C_9  and  C_10
REMARK                            x       y       z     vdW  Elec       q    Type
REMARK                         _______ _______ _______ _____ _____    ______ ____
ROOT
ATOM      1  C   UNL     1      -1.937   2.502   0.029  0.00  0.00    +0.000 C 
ATOM      2  C   UNL     1      -1.359   3.715   0.051  0.00  0.00    +0.000 C 
ENDROOT
BRANCH   2   3
ATOM      3  C   UNL     1      -2.108   4.979   0.072  0.00  0.00    +0.000 A 
ATOM      4  C   UNL     1      -3.298   5.132   0.797  0.00  0.00    +0.000 A 
ATOM      5  C   UNL     1      -3.955   6.360   0.809  0.00  0.00    +0.000 A 
ATOM      6  C   UNL     1      -3.435   7.445   0.116  0.00  0.00    +0.000 A 
ATOM      7  C   UNL     1      -2.248   7.318  -0.595  0.00  0.00    +0.000 A 
ATOM      8  C   UNL     1      -1.583   6.088  -0.612  0.00  0.00    +0.000 A 
ATOM      9  F   UNL     1      -4.071   8.625   0.131  0.00  0.00    +0.000 F 
ATOM     10  F   UNL     1      -5.094   6.487   1.503  0.00  0.00    +0.000 F 
ENDBRANCH   2   3
BRANCH   1  13
ATOM     11  C   UNL     1      -1.051  -1.071  -0.777  0.00  0.00    +0.000 A 
ATOM     12  C   UNL     1      -1.716   0.159  -0.735  0.00  0.00    +0.000 A 
ATOM     13  C   UNL     1      -1.187   1.238  -0.011  0.00  0.00    +0.000 A 
ATOM     14  C   UNL     1       0.007   1.054   0.696  0.00  0.00    +0.000 A 
ATOM     15  C   UNL     1       0.661  -0.174   0.647  0.00  0.00    +0.000 A 
ATOM     16  C   UNL     1       0.145  -1.237  -0.084  0.00  0.00    +0.000 A 
ATOM     17  F   UNL     1       1.806  -0.336   1.324  0.00  0.00    +0.000 F 
ENDBRANCH   1  13
TORSDOF 2
