MODEL 1
REMARK VINA RESULT:      -4.9      0.000      0.000
REMARK  Name = *****
REMARK  3 active torsions:
REMARK  status: ('A' for Active; 'I' for Inactive)
REMARK    1  A    between atoms: C_1  and  C_2
REMARK    2  A    between atoms: C_5  and  C_8
REMARK    3  A    between atoms: C_9  and  C_10
REMARK                            x       y       z     vdW  Elec       q    Type
REMARK                         _______ _______ _______ _____ _____    ______ ____
ROOT
ATOM      1  C   UNL     1      97.525 117.553  79.971  0.00  0.00    +0.000 C 
ATOM      2  C   UNL     1      98.002 118.465  80.589  0.00  0.00    +0.000 C 
ENDROOT
BRANCH   2   3
ATOM      3  C   UNL     1      98.589 119.591  81.343  0.00  0.00    +0.000 C 
ATOM      4  C   UNL     1      98.961 119.159  82.768  0.00  0.00    +0.000 C 
ATOM      5  C   UNL     1      97.739 118.938  83.661  0.00  0.00    +0.000 C 
ATOM      6  C   UNL     1      96.819 120.146  83.651  0.00  0.00    +0.000 C 
ATOM      7  C   UNL     1      96.411 120.571  82.252  0.00  0.00    +0.000 C 
ATOM      8  C   UNL     1      97.632 120.793  81.356  0.00  0.00    +0.000 C 
ATOM      9  F   UNL     1      95.712 119.882  84.387  0.00  0.00    +0.000 F 
ATOM     10  F   UNL     1      97.448 121.185  84.262  0.00  0.00    +0.000 F 
ENDBRANCH   2   3
BRANCH   1  15
ATOM     11  C   UNL     1      95.211 113.239  76.981  0.00  0.00    +0.000 C 
ATOM     12  C   UNL     1      95.839 114.349  77.769  0.00  0.00    +0.000 A 
ATOM     13  C   UNL     1      95.596 114.472  79.144  0.00  0.00    +0.000 A 
ATOM     14  C   UNL     1      96.155 115.526  79.870  0.00  0.00    +0.000 A 
ATOM     15  C   UNL     1      96.955 116.472  79.228  0.00  0.00    +0.000 A 
ATOM     16  C   UNL     1      97.191 116.365  77.857  0.00  0.00    +0.000 A 
ATOM     17  C   UNL     1      96.631 115.311  77.130  0.00  0.00    +0.000 A 
ENDBRANCH   1  15
TORSDOF 2
ENDMDL
