MODEL 1
REMARK VINA RESULT:      -4.7      0.000      0.000
REMARK  Name = *****
REMARK  3 active torsions:
REMARK  status: ('A' for Active; 'I' for Inactive)
REMARK    1  A    between atoms: C_1  and  C_2
REMARK    2  A    between atoms: C_8  and  C_9
REMARK    3  A    between atoms: C_9  and  C_10
REMARK                            x       y       z     vdW  Elec       q    Type
REMARK                         _______ _______ _______ _____ _____    ______ ____
ROOT
ATOM      1  C   UNL     1      89.369  67.841  84.253  0.00  0.00    +0.000 C 
ATOM      2  C   UNL     1      89.965  67.817  85.664  0.00  0.00    +0.000 C 
ATOM      3  C   UNL     1      90.423  66.407  86.072  0.00  0.00    +0.000 C 
ATOM      4  C   UNL     1      89.263  65.468  86.403  0.00  0.00    +0.000 C 
ATOM      5  C   UNL     1      88.338  66.076  87.454  0.00  0.00    +0.000 C 
ATOM      6  C   UNL     1      87.836  67.459  87.039  0.00  0.00    +0.000 C 
ATOM      7  C   UNL     1      88.985  68.377  86.687  0.00  0.00    +0.000 C 
ATOM      8  C   UNL     1      89.172  69.606  87.212  0.00  0.00    +0.000 C 
ENDROOT
BRANCH   8   9
ATOM      9  C   UNL     1      88.332  70.302  88.248  0.00  0.00    +0.000 C 
BRANCH   9  10
ATOM     10  C   UNL     1      87.109  70.975  87.673  0.00  0.00    +0.000 A 
ATOM     11  C   UNL     1      86.982  71.154  86.287  0.00  0.00    +0.000 A 
ATOM     12  C   UNL     1      85.851  71.772  85.752  0.00  0.00    +0.000 A 
ATOM     13  C   UNL     1      84.834  72.218  86.593  0.00  0.00    +0.000 A 
ATOM     14  C   UNL     1      84.947  72.046  87.972  0.00  0.00    +0.000 A 
ATOM     15  C   UNL     1      86.076  71.426  88.509  0.00  0.00    +0.000 A 
ENDBRANCH   9  10
ENDBRANCH   8   9
TORSDOF 2
ENDMDL
