MODEL 1
REMARK VINA RESULT:      -4.6      0.000      0.000
REMARK  Name = *****
REMARK  5 active torsions:
REMARK  status: ('A' for Active; 'I' for Inactive)
REMARK    1  A    between atoms: C_1  and  C_2
REMARK    2  A    between atoms: C_6  and  C_7
REMARK    3  A    between atoms: C_6  and  C_8
REMARK    4  A    between atoms: C_8  and  C_9
REMARK    5  A    between atoms: C_10  and  C_11
REMARK                            x       y       z     vdW  Elec       q    Type
REMARK                         _______ _______ _______ _____ _____    ______ ____
ROOT
ATOM      1  C   UNL     1      88.692  64.603  87.390  0.00  0.00    +0.000 C 
ENDROOT
BRANCH   1   7
ATOM      2  C   UNL     1      89.181  63.753  90.359  0.00  0.00    +0.000 C 
ATOM      3  C   UNL     1      87.897  64.258  89.795  0.00  0.00    +0.000 C 
ATOM      4  C   UNL     1      86.899  64.811  90.500  0.00  0.00    +0.000 C 
ATOM      5  C   UNL     1      85.730  65.152  89.643  0.00  0.00    +0.000 C 
ATOM      6  C   UNL     1      86.319  65.080  88.235  0.00  0.00    +0.000 C 
ATOM      7  C   UNL     1      87.544  64.134  88.319  0.00  0.00    +0.000 C 
ATOM      8  C   UNL     1      87.132  62.684  88.005  0.00  0.00    +0.000 C 
ENDBRANCH   1   7
BRANCH   1   9
ATOM      9  C   UNL     1      88.669  66.073  87.055  0.00  0.00    +0.000 C 
ATOM     10  C   UNL     1      89.704  66.723  86.499  0.00  0.00    +0.000 C 
BRANCH  10  11
ATOM     11  C   UNL     1      89.697  68.153  86.160  0.00  0.00    +0.000 A 
ATOM     12  C   UNL     1      89.515  69.153  87.125  0.00  0.00    +0.000 A 
ATOM     13  C   UNL     1      89.546  70.503  86.766  0.00  0.00    +0.000 A 
ATOM     14  C   UNL     1      89.768  70.869  85.440  0.00  0.00    +0.000 A 
ATOM     15  C   UNL     1      89.966  69.885  84.474  0.00  0.00    +0.000 A 
ATOM     16  C   UNL     1      89.936  68.535  84.833  0.00  0.00    +0.000 A 
ENDBRANCH  10  11
ENDBRANCH   1   9
TORSDOF 3
ENDMDL
