MODEL 1
REMARK VINA RESULT:      -4.2      0.000      0.000
REMARK  Name = *****
REMARK  4 active torsions:
REMARK  status: ('A' for Active; 'I' for Inactive)
REMARK    1  A    between atoms: C_1  and  C_2
REMARK    2  A    between atoms: C_5  and  C_8
REMARK    3  A    between atoms: C_9  and  C_10
REMARK    4  A    between atoms: C_13  and  C_15
REMARK                            x       y       z     vdW  Elec       q    Type
REMARK                         _______ _______ _______ _____ _____    ______ ____
ROOT
ATOM      1  C   UNL     1     102.890 125.337  82.174  0.00  0.00    +0.000 C 
ATOM      2  C   UNL     1     102.020 126.123  82.434  0.00  0.00    +0.000 C 
ENDROOT
BRANCH   1   7
ATOM      3  C   UNL     1     106.925 121.476  80.863  0.00  0.00    +0.000 C 
ATOM      4  C   UNL     1     105.888 122.498  81.221  0.00  0.00    +0.000 A 
ATOM      5  C   UNL     1     105.403 122.604  82.530  0.00  0.00    +0.000 A 
ATOM      6  C   UNL     1     104.419 123.544  82.847  0.00  0.00    +0.000 A 
ATOM      7  C   UNL     1     103.907 124.383  81.856  0.00  0.00    +0.000 A 
ATOM      8  C   UNL     1     104.382 124.281  80.547  0.00  0.00    +0.000 A 
ATOM      9  C   UNL     1     105.366 123.340  80.231  0.00  0.00    +0.000 A 
ENDBRANCH   1   7
BRANCH   2  10
ATOM     10  C   UNL     1     100.972 127.039  82.740  0.00  0.00    +0.000 A 
ATOM     11  C   UNL     1      99.641 126.850  82.436  0.00  0.00    +0.000 A 
ATOM     12  C   UNL     1      98.833 127.948  82.859  0.00  0.00    +0.000 A 
ATOM     13  C   UNL     1      99.579 128.934  83.472  0.00  0.00    +0.000 A 
ATOM     14  S   UNL     1     101.237 128.528  83.535  0.00  0.00    +0.000 S 
BRANCH  13  15
ATOM     15  C   UNL     1      99.124 130.188  84.024  0.00  0.00    +0.000 C 
ATOM     16  O   UNL     1      99.540 131.293  83.681  0.00  0.00    +0.000 OA
ENDBRANCH  13  15
ENDBRANCH   2  10
TORSDOF 3
ENDMDL
