MODEL 1
REMARK VINA RESULT:      -4.5      0.000      0.000
REMARK  Name = *****
REMARK  3 active torsions:
REMARK  status: ('A' for Active; 'I' for Inactive)
REMARK    1  A    between atoms: C_4  and  C_7
REMARK    2  A    between atoms: C_7  and  C_16
REMARK    3  A    between atoms: C_8  and  C_9
REMARK                            x       y       z     vdW  Elec       q    Type
REMARK                         _______ _______ _______ _____ _____    ______ ____
ROOT
ATOM      1  C   UNL     1     100.408 128.155  83.380  0.00  0.00    +0.000 C 
ATOM      2  C   UNL     1     101.753 128.046  83.303  0.00  0.00    +0.000 C 
ATOM      3 CL   UNL     1     102.838 129.107  84.153  0.00  0.00    +0.000 Cl
ENDROOT
BRANCH   1   7
ATOM      4  C   UNL     1      98.516 131.147  85.780  0.00  0.00    +0.000 A 
ATOM      5  C   UNL     1      99.108 131.497  84.568  0.00  0.00    +0.000 A 
ATOM      6  C   UNL     1      99.728 130.522  83.785  0.00  0.00    +0.000 A 
ATOM      7  C   UNL     1      99.756 129.187  84.211  0.00  0.00    +0.000 A 
ATOM      8  C   UNL     1      99.156 128.843  85.430  0.00  0.00    +0.000 A 
ATOM      9  C   UNL     1      98.538 129.822  86.211  0.00  0.00    +0.000 A 
ENDBRANCH   1   7
BRANCH   2  10
ATOM     10  C   UNL     1     102.440 127.034  82.482  0.00  0.00    +0.000 A 
ATOM     11  C   UNL     1     102.690 125.757  83.001  0.00  0.00    +0.000 A 
ATOM     12  C   UNL     1     103.350 124.799  82.228  0.00  0.00    +0.000 A 
ATOM     13  C   UNL     1     103.764 125.113  80.934  0.00  0.00    +0.000 A 
ATOM     14  C   UNL     1     103.517 126.380  80.409  0.00  0.00    +0.000 A 
ATOM     15  C   UNL     1     102.856 127.339  81.180  0.00  0.00    +0.000 A 
ENDBRANCH   2  10
BRANCH   1  16
ATOM     16  C   UNL     1      99.548 127.282  82.641  0.00  0.00    +0.000 C 
ATOM     17  N   UNL     1      98.844 126.582  82.040  0.00  0.00    +0.000 NA
ENDBRANCH   1  16
TORSDOF 3
ENDMDL
