MODEL 1
REMARK VINA RESULT:      -4.3      0.000      0.000
REMARK  Name = *****
REMARK  4 active torsions:
REMARK  status: ('A' for Active; 'I' for Inactive)
REMARK    1  A    between atoms: N_2  and  C_3
REMARK    2  A    between atoms: C_6  and  C_9
REMARK    3  A    between atoms: C_9  and  O_11
REMARK    4  A    between atoms: O_11  and  C_12
REMARK                            x       y       z     vdW  Elec       q    Type
REMARK                         _______ _______ _______ _____ _____    ______ ____
ROOT
ATOM      1  C   UNL     1     102.576 125.317  82.629  0.00  0.00    +0.000 C 
ATOM      2  O   UNL     1     102.739 124.974  83.789  0.00  0.00    +0.000 OA
ENDROOT
BRANCH   1   6
ATOM      3  C   UNL     1     105.482 124.802  79.538  0.00  0.00    +0.000 A 
ATOM      4  C   UNL     1     105.143 123.701  80.322  0.00  0.00    +0.000 A 
ATOM      5  C   UNL     1     104.194 123.852  81.337  0.00  0.00    +0.000 A 
ATOM      6  C   UNL     1     103.591 125.100  81.561  0.00  0.00    +0.000 A 
ATOM      7  C   UNL     1     103.950 126.196  80.759  0.00  0.00    +0.000 A 
ATOM      8  C   UNL     1     104.898 126.049  79.744  0.00  0.00    +0.000 A 
BRANCH   3  10
ATOM      9  C   UNL     1     107.220 124.524  77.678  0.00  0.00    +0.000 C 
ATOM     10  N   UNL     1     106.425 124.652  78.530  0.00  0.00    +0.000 NA
ENDBRANCH   3  10
ENDBRANCH   1   6
BRANCH   1  11
ATOM     11  O   UNL     1     101.482 125.935  82.125  0.00  0.00    +0.000 OA
BRANCH  11  12
ATOM     12  C   UNL     1     100.766 126.796  83.030  0.00  0.00    +0.000 C 
ATOM     13  C   UNL     1      99.338 127.012  82.519  0.00  0.00    +0.000 C 
ATOM     14  C   UNL     1      98.590 128.045  83.356  0.00  0.00    +0.000 C 
ATOM     15  C   UNL     1      99.355 129.364  83.437  0.00  0.00    +0.000 C 
ATOM     16  C   UNL     1     100.782 129.159  83.935  0.00  0.00    +0.000 C 
ATOM     17  C   UNL     1     101.525 128.124  83.096  0.00  0.00    +0.000 C 
ENDBRANCH  11  12
ENDBRANCH   1  11
TORSDOF 4
ENDMDL
