MODEL 1
REMARK VINA RESULT:      -4.3      0.000      0.000
REMARK  Name = *****
REMARK  7 active torsions:
REMARK  status: ('A' for Active; 'I' for Inactive)
REMARK    1  A    between atoms: C_1  and  C_2
REMARK    2  A    between atoms: C_3  and  O_9
REMARK    3  A    between atoms: C_4  and  C_8
REMARK    4  A    between atoms: O_9  and  C_10
REMARK    5  A    between atoms: C_10  and  C_11
REMARK    6  A    between atoms: C_11  and  C_12
REMARK    7  A    between atoms: C_12  and  C_13
REMARK                            x       y       z     vdW  Elec       q    Type
REMARK                         _______ _______ _______ _____ _____    ______ ____
ROOT
ATOM      1  O   UNL     1      90.002  68.092  86.569  0.00  0.00    +0.000 OA
ENDROOT
BRANCH   1   4
ATOM      2  C   UNL     1      87.437  67.141  87.927  0.00  0.00    +0.000 C 
ATOM      3  C   UNL     1      87.878  66.874  86.494  0.00  0.00    +0.000 C 
ATOM      4  C   UNL     1      89.369  66.898  86.311  0.00  0.00    +0.000 C 
ATOM      5  C   UNL     1      89.967  65.807  85.807  0.00  0.00    +0.000 C 
ATOM      6  C   UNL     1      89.001  64.716  85.581  0.00  0.00    +0.000 C 
ATOM      7  O   UNL     1      89.294  63.609  85.159  0.00  0.00    +0.000 OA
ATOM      8  S   UNL     1      87.373  65.197  85.996  0.00  0.00    +0.000 S 
ATOM      9  C   UNL     1      91.387  65.603  85.421  0.00  0.00    +0.000 C 
ENDBRANCH   1   4
BRANCH   1  10
ATOM     10  C   UNL     1      89.897  69.019  85.480  0.00  0.00    +0.000 C 
BRANCH  10  11
ATOM     11  C   UNL     1      89.667  70.408  86.065  0.00  0.00    +0.000 C 
BRANCH  11  12
ATOM     12  C   UNL     1      89.192  70.330  87.513  0.00  0.00    +0.000 C 
BRANCH  12  13
ATOM     13  C   UNL     1      87.789  70.859  87.670  0.00  0.00    +0.000 A 
ATOM     14  C   UNL     1      87.000  71.124  86.542  0.00  0.00    +0.000 A 
ATOM     15  C   UNL     1      85.707  71.629  86.687  0.00  0.00    +0.000 A 
ATOM     16  C   UNL     1      85.192  71.877  87.957  0.00  0.00    +0.000 A 
ATOM     17  C   UNL     1      85.970  71.621  89.085  0.00  0.00    +0.000 A 
ATOM     18  C   UNL     1      87.263  71.116  88.943  0.00  0.00    +0.000 A 
ENDBRANCH  12  13
ENDBRANCH  11  12
ENDBRANCH  10  11
ENDBRANCH   1  10
TORSDOF 5
ENDMDL
