MODEL 1
REMARK VINA RESULT:      -4.5      0.000      0.000
REMARK  Name = *****
REMARK  6 active torsions:
REMARK  status: ('A' for Active; 'I' for Inactive)
REMARK    1  A    between atoms: C_1  and  C_2
REMARK    2  A    between atoms: C_5  and  C_8
REMARK    3  A    between atoms: C_8  and  N_9
REMARK    4  A    between atoms: N_9  and  C_10
REMARK    5  A    between atoms: C_10  and  C_11
REMARK    6  A    between atoms: C_14  and  C_17
REMARK                            x       y       z     vdW  Elec       q    Type
REMARK                         _______ _______ _______ _____ _____    ______ ____
ROOT
ATOM      1  N   UNL     1     103.679 125.141  80.010  0.00  0.00    +0.000 NA
ENDROOT
BRANCH   1   2
ATOM      2  C   UNL     1     103.851 126.536  80.444  0.00  0.00    +0.000 C 
BRANCH   2   7
ATOM      3  C   UNL     1     100.334 128.069  84.835  0.00  0.00    +0.000 C 
ATOM      4  C   UNL     1     101.261 127.665  83.727  0.00  0.00    +0.000 A 
ATOM      5  C   UNL     1     102.325 128.490  83.347  0.00  0.00    +0.000 A 
ATOM      6  C   UNL     1     103.167 128.121  82.294  0.00  0.00    +0.000 A 
ATOM      7  C   UNL     1     102.960 126.922  81.601  0.00  0.00    +0.000 A 
ATOM      8  C   UNL     1     101.880 126.109  81.971  0.00  0.00    +0.000 A 
ATOM      9  C   UNL     1     101.038 126.477  83.023  0.00  0.00    +0.000 A 
ENDBRANCH   2   7
ENDBRANCH   1   2
BRANCH   1  10
ATOM     10  C   UNL     1     104.698 124.390  80.257  0.00  0.00    +0.000 C 
BRANCH  10  11
ATOM     11  C   UNL     1     104.613 123.232  81.168  0.00  0.00    +0.000 A 
ATOM     12  C   UNL     1     104.663 121.926  80.673  0.00  0.00    +0.000 A 
ATOM     13  C   UNL     1     104.581 120.845  81.553  0.00  0.00    +0.000 A 
ATOM     14  C   UNL     1     104.441 121.060  82.930  0.00  0.00    +0.000 A 
ATOM     15  C   UNL     1     104.408 122.374  83.418  0.00  0.00    +0.000 A 
ATOM     16  C   UNL     1     104.487 123.458  82.540  0.00  0.00    +0.000 A 
ATOM     17  C   UNL     1     104.390 119.895  83.875  0.00  0.00    +0.000 C 
ENDBRANCH  10  11
ENDBRANCH   1  10
TORSDOF 4
ENDMDL
