MODEL 1
REMARK VINA RESULT:      -4.5      0.000      0.000
REMARK  Name = *****
REMARK  4 active torsions:
REMARK  status: ('A' for Active; 'I' for Inactive)
REMARK    1  A    between atoms: C_2  and  C_4
REMARK    2  A    between atoms: C_7  and  S_10
REMARK    3  A    between atoms: S_10  and  C_11
REMARK    4  A    between atoms: C_11  and  C_12
REMARK                            x       y       z     vdW  Elec       q    Type
REMARK                         _______ _______ _______ _____ _____    ______ ____
ROOT
ATOM      1  C   UNL     1      88.930  65.712  86.807  0.00  0.00    +0.000 A 
ATOM      2  C   UNL     1      87.896  66.479  87.366  0.00  0.00    +0.000 A 
ATOM      3  C   UNL     1      87.941  67.878  87.370  0.00  0.00    +0.000 A 
ATOM      4  C   UNL     1      89.036  68.549  86.824  0.00  0.00    +0.000 A 
ATOM      5  C   UNL     1      90.069  67.803  86.254  0.00  0.00    +0.000 A 
ATOM      6  C   UNL     1      90.017  66.405  86.252  0.00  0.00    +0.000 A 
ENDROOT
BRANCH   1   8
ATOM      7  C   UNL     1      88.082  63.478  85.758  0.00  0.00    +0.000 C 
ATOM      8  C   UNL     1      88.887  64.207  86.809  0.00  0.00    +0.000 C 
ATOM      9  O   UNL     1      87.632  63.569  87.113  0.00  0.00    +0.000 OA
ENDBRANCH   1   8
BRANCH   4  10
ATOM     10  S   UNL     1      89.135  70.327  86.794  0.00  0.00    +0.000 S 
BRANCH  10  11
ATOM     11  C   UNL     1      87.803  70.701  85.605  0.00  0.00    +0.000 C 
BRANCH  11  12
ATOM     12  C   UNL     1      86.598  71.290  86.294  0.00  0.00    +0.000 A 
ATOM     13  C   UNL     1      85.560  71.867  85.547  0.00  0.00    +0.000 A 
ATOM     14  C   UNL     1      84.449  72.419  86.186  0.00  0.00    +0.000 A 
ATOM     15  C   UNL     1      84.366  72.406  87.578  0.00  0.00    +0.000 A 
ATOM     16  C   UNL     1      85.396  71.845  88.331  0.00  0.00    +0.000 A 
ATOM     17  C   UNL     1      86.507  71.293  87.693  0.00  0.00    +0.000 A 
ENDBRANCH  11  12
ENDBRANCH  10  11
ENDBRANCH   4  10
TORSDOF 4
ENDMDL
