REMARK  Name = *****
REMARK  3 active torsions:
REMARK  status: ('A' for Active; 'I' for Inactive)
REMARK    1  A    between atoms: C_1  and  C_2
REMARK    2  A    between atoms: C_7  and  C_8
REMARK    3  A    between atoms: C_9  and  C_10
REMARK                            x       y       z     vdW  Elec       q    Type
REMARK                         _______ _______ _______ _____ _____    ______ ____
ROOT
ATOM      1  C   UNL     1       1.037   0.334   0.327  0.00  0.00    +0.000 C 
ATOM      2  C   UNL     1       2.548   0.232   0.094  0.00  0.00    +0.000 C 
ATOM      3  C   UNL     1       3.008   1.147  -1.055  0.00  0.00    +0.000 C 
ATOM      4  C   UNL     1       2.597   0.626  -2.435  0.00  0.00    +0.000 C 
ATOM      5  C   UNL     1       3.038  -0.821  -2.655  0.00  0.00    +0.000 C 
ATOM      6  C   UNL     1       2.561  -1.707  -1.527  0.00  0.00    +0.000 C 
ATOM      7  C   UNL     1       1.818  -2.802  -1.769  0.00  0.00    +0.000 C 
ATOM      8  C   UNL     1       2.984  -1.223  -0.157  0.00  0.00    +0.000 C 
ENDROOT
BRANCH   7   9
ATOM      9  C   UNL     1       1.324  -3.662  -0.751  0.00  0.00    +0.000 C 
ATOM     10  C   UNL     1       0.901  -4.386   0.109  0.00  0.00    +0.000 C 
BRANCH  10  11
ATOM     11  C   UNL     1       0.400  -5.240   1.141  0.00  0.00    +0.000 A 
ATOM     12  C   UNL     1      -0.909  -5.723   1.076  0.00  0.00    +0.000 A 
ATOM     13  C   UNL     1      -1.398  -6.554   2.087  0.00  0.00    +0.000 A 
ATOM     14  C   UNL     1      -0.579  -6.901   3.162  0.00  0.00    +0.000 A 
ATOM     15  C   UNL     1       0.728  -6.418   3.228  0.00  0.00    +0.000 A 
ATOM     16  C   UNL     1       1.218  -5.588   2.218  0.00  0.00    +0.000 A 
ENDBRANCH  10  11
ENDBRANCH   7   9
TORSDOF 2
