MODEL 1
REMARK VINA RESULT:      -4.4      0.000      0.000
REMARK  Name = *****
REMARK  4 active torsions:
REMARK  status: ('A' for Active; 'I' for Inactive)
REMARK    1  A    between atoms: C_4  and  C_7
REMARK    2  A    between atoms: C_7  and  O_8
REMARK    3  A    between atoms: O_8  and  C_9
REMARK    4  A    between atoms: C_9  and  C_11
REMARK                            x       y       z     vdW  Elec       q    Type
REMARK                         _______ _______ _______ _____ _____    ______ ____
ROOT
ATOM      1  C   UNL     1     104.740 124.239  80.180  0.00  0.00    +0.000 C 
ATOM      2  O   UNL     1     105.729 124.430  79.492  0.00  0.00    +0.000 OA
ENDROOT
BRANCH   1   3
ATOM      3  C   UNL     1     104.651 123.138  81.162  0.00  0.00    +0.000 A 
ATOM      4  C   UNL     1     104.593 123.366  82.537  0.00  0.00    +0.000 A 
ATOM      5  C   UNL     1     104.505 122.287  83.417  0.00  0.00    +0.000 A 
ATOM      6  C   UNL     1     104.467 120.979  82.932  0.00  0.00    +0.000 A 
ATOM      7  C   UNL     1     104.508 120.747  81.556  0.00  0.00    +0.000 A 
ATOM      8  C   UNL     1     104.595 121.824  80.672  0.00  0.00    +0.000 A 
ATOM      9 CL   UNL     1     104.435 122.550  85.119  0.00  0.00    +0.000 Cl
ATOM     10  F   UNL     1     104.589 124.617  83.027  0.00  0.00    +0.000 F 
ENDBRANCH   1   3
BRANCH   1  11
ATOM     11  O   UNL     1     103.627 125.005  80.228  0.00  0.00    +0.000 OA
BRANCH  11  12
ATOM     12  C   UNL     1     103.813 126.430  80.241  0.00  0.00    +0.000 C 
BRANCH  12  16
ATOM     13  C   UNL     1     101.752 127.367  83.985  0.00  0.00    +0.000 C 
ATOM     14  C   UNL     1     102.620 128.451  83.355  0.00  0.00    +0.000 C 
ATOM     15  C   UNL     1     103.579 127.875  82.316  0.00  0.00    +0.000 C 
ATOM     16  C   UNL     1     102.836 127.061  81.242  0.00  0.00    +0.000 C 
ATOM     17  C   UNL     1     101.960 125.979  81.887  0.00  0.00    +0.000 C 
ATOM     18  C   UNL     1     101.005 126.564  82.925  0.00  0.00    +0.000 C 
ENDBRANCH  12  16
ENDBRANCH  11  12
ENDBRANCH   1  11
TORSDOF 4
ENDMDL
