REMARK  Name = *****
REMARK  7 active torsions:
REMARK  status: ('A' for Active; 'I' for Inactive)
REMARK    1  A    between atoms: C_1  and  C_2
REMARK    2  A    between atoms: C_5  and  S_8
REMARK    3  A    between atoms: S_8  and  C_9
REMARK    4  A    between atoms: C_9  and  C_10
REMARK    5  A    between atoms: C_12  and  C_16
REMARK    6  A    between atoms: C_12  and  O_17
REMARK    7  A    between atoms: O_17  and  C_18
REMARK                            x       y       z     vdW  Elec       q    Type
REMARK                         _______ _______ _______ _____ _____    ______ ____
ROOT
ATOM      1  C   UNL     1      -6.246   2.021   1.388  0.00  0.00    +0.000 C 
ENDROOT
BRANCH   1   2
ATOM      2  C   UNL     1      -5.564   2.176   0.011  0.00  0.00    +0.000 C 
ATOM      3  C   UNL     1      -5.565   0.850  -0.786  0.00  0.00    +0.000 C 
ATOM      4  C   UNL     1      -6.771   0.642  -1.731  0.00  0.00    +0.000 C 
ATOM      5  C   UNL     1      -6.929   1.857  -2.677  0.00  0.00    +0.000 C 
ATOM      6  C   UNL     1      -6.724   3.181  -1.997  0.00  0.00    +0.000 C 
ATOM      7  C   UNL     1      -6.133   3.320  -0.800  0.00  0.00    +0.000 C 
ATOM      8  C   UNL     1      -8.075   0.454  -0.932  0.00  0.00    +0.000 C 
BRANCH   4   9
ATOM      9  O   UNL     1      -6.667  -0.586  -2.483  0.00  0.00    +0.000 OA
ATOM     10  C   UNL     1      -5.448  -0.845  -3.161  0.00  0.00    +0.000 C 
ENDBRANCH   4   9
ENDBRANCH   1   2
BRANCH   1  11
ATOM     11  S   UNL     1      -5.761   3.362   2.545  0.00  0.00    +0.000 S 
BRANCH  11  16
ATOM     12  C   UNL     1      -9.652   2.405   7.142  0.00  0.00    +0.000 C 
ATOM     13  C   UNL     1      -8.713   2.621   5.992  0.00  0.00    +0.000 A 
ATOM     14  C   UNL     1      -7.853   1.599   5.577  0.00  0.00    +0.000 A 
ATOM     15  C   UNL     1      -6.954   1.810   4.527  0.00  0.00    +0.000 A 
ATOM     16  C   UNL     1      -6.901   3.047   3.880  0.00  0.00    +0.000 A 
ATOM     17  C   UNL     1      -7.738   4.079   4.313  0.00  0.00    +0.000 A 
ATOM     18  C   UNL     1      -8.638   3.868   5.362  0.00  0.00    +0.000 A 
ENDBRANCH  11  16
ENDBRANCH   1  11
TORSDOF 4
