MODEL 1
REMARK VINA RESULT:      -4.5      0.000      0.000
REMARK  Name = *****
REMARK  6 active torsions:
REMARK  status: ('A' for Active; 'I' for Inactive)
REMARK    1  A    between atoms: C_1  and  C_2
REMARK    2  A    between atoms: C_4  and  O_17
REMARK    3  A    between atoms: C_6  and  C_16
REMARK    4  A    between atoms: C_7  and  C_8
REMARK    5  A    between atoms: C_9  and  C_10
REMARK    6  A    between atoms: O_17  and  C_18
REMARK                            x       y       z     vdW  Elec       q    Type
REMARK                         _______ _______ _______ _____ _____    ______ ____
ROOT
ATOM      1  C   UNL     1      86.920  68.862  87.582  0.00  0.00    +0.000 C 
ATOM      2  C   UNL     1      87.748  67.618  87.396  0.00  0.00    +0.000 A 
ATOM      3  C   UNL     1      87.392  66.449  88.093  0.00  0.00    +0.000 A 
ATOM      4  C   UNL     1      88.133  65.277  87.946  0.00  0.00    +0.000 A 
ATOM      5  C   UNL     1      89.240  65.272  87.096  0.00  0.00    +0.000 A 
ATOM      6  C   UNL     1      89.621  66.422  86.387  0.00  0.00    +0.000 A 
ATOM      7  C   UNL     1      88.866  67.601  86.539  0.00  0.00    +0.000 A 
ATOM      8  C   UNL     1      90.822  66.361  85.481  0.00  0.00    +0.000 C 
ENDROOT
BRANCH   7   9
ATOM      9  C   UNL     1      89.232  68.784  85.810  0.00  0.00    +0.000 C 
ATOM     10  C   UNL     1      89.523  69.780  85.204  0.00  0.00    +0.000 C 
BRANCH  10  11
ATOM     11  C   UNL     1      89.850  70.974  84.489  0.00  0.00    +0.000 A 
ATOM     12  C   UNL     1      91.107  71.111  83.895  0.00  0.00    +0.000 A 
ATOM     13  C   UNL     1      91.432  72.284  83.211  0.00  0.00    +0.000 A 
ATOM     14  C   UNL     1      90.501  73.318  83.117  0.00  0.00    +0.000 A 
ATOM     15  C   UNL     1      89.245  73.181  83.707  0.00  0.00    +0.000 A 
ATOM     16  C   UNL     1      88.918  72.010  84.393  0.00  0.00    +0.000 A 
ENDBRANCH  10  11
ENDBRANCH   7   9
BRANCH   4  17
ATOM     17  O   UNL     1      87.885  64.083  88.565  0.00  0.00    +0.000 OA
ATOM     18  C   UNL     1      88.679  63.770  89.702  0.00  0.00    +0.000 C 
ENDBRANCH   4  17
TORSDOF 3
ENDMDL
