MODEL 1
REMARK VINA RESULT:      -5.0      0.000      0.000
REMARK  Name = *****
REMARK  2 active torsions:
REMARK  status: ('A' for Active; 'I' for Inactive)
REMARK    1  A    between atoms: C_1  and  C_2
REMARK    2  A    between atoms: C_9  and  C_11
REMARK                            x       y       z     vdW  Elec       q    Type
REMARK                         _______ _______ _______ _____ _____    ______ ____
ROOT
ATOM      1  C   UNL     1     106.321 121.987  81.672  0.00  0.00    +0.000 C 
ATOM      2  C   UNL     1     105.345 123.113  81.481  0.00  0.00    +0.000 A 
ATOM      3  C   UNL     1     104.496 123.505  82.535  0.00  0.00    +0.000 A 
ATOM      4  C   UNL     1     103.603 124.563  82.318  0.00  0.00    +0.000 A 
ATOM      5  C   UNL     1     103.585 125.183  81.083  0.00  0.00    +0.000 A 
ATOM      6  C   UNL     1     104.398 124.838  80.011  0.00  0.00    +0.000 A 
ATOM      7  C   UNL     1     105.288 123.779  80.242  0.00  0.00    +0.000 A 
ATOM      8  O   UNL     1     102.643 126.167  81.123  0.00  0.00    +0.000 OA
ATOM      9  C   UNL     1     102.137 126.096  82.402  0.00  0.00    +0.000 A 
ATOM     10  N   UNL     1     102.676 125.145  83.144  0.00  0.00    +0.000 NA
ENDROOT
BRANCH   9  11
ATOM     11  C   UNL     1     101.085 127.060  82.724  0.00  0.00    +0.000 A 
ATOM     12  C   UNL     1      99.747 126.751  82.400  0.00  0.00    +0.000 A 
ATOM     13  C   UNL     1      98.703 127.630  82.699  0.00  0.00    +0.000 A 
ATOM     14  C   UNL     1      98.974 128.839  83.328  0.00  0.00    +0.000 A 
ATOM     15  C   UNL     1     100.289 129.169  83.655  0.00  0.00    +0.000 A 
ATOM     16  C   UNL     1     101.340 128.289  83.356  0.00  0.00    +0.000 A 
ATOM     17 CL   UNL     1     102.931 128.830  83.770  0.00  0.00    +0.000 Cl
ENDBRANCH   9  11
TORSDOF 1
ENDMDL
