MODEL 1
REMARK VINA RESULT:      -4.6      0.000      0.000
REMARK  Name = *****
REMARK  3 active torsions:
REMARK  status: ('A' for Active; 'I' for Inactive)
REMARK    1  A    between atoms: C_1  and  C_2
REMARK    2  A    between atoms: C_5  and  S_8
REMARK    3  A    between atoms: S_8  and  C_10
REMARK                            x       y       z     vdW  Elec       q    Type
REMARK                         _______ _______ _______ _____ _____    ______ ____
ROOT
ATOM      1  S   UNL     1      89.091  70.523  86.746  0.00  0.00    +0.000 S 
ATOM      2  O   UNL     1      90.149  70.811  85.722  0.00  0.00    +0.000 OA
ENDROOT
BRANCH   1   7
ATOM      3  C   UNL     1      88.692  64.423  87.096  0.00  0.00    +0.000 C 
ATOM      4  C   UNL     1      88.777  65.917  86.981  0.00  0.00    +0.000 A 
ATOM      5  C   UNL     1      87.784  66.730  87.538  0.00  0.00    +0.000 A 
ATOM      6  C   UNL     1      87.881  68.122  87.461  0.00  0.00    +0.000 A 
ATOM      7  C   UNL     1      88.978  68.718  86.830  0.00  0.00    +0.000 A 
ATOM      8  C   UNL     1      89.983  67.909  86.293  0.00  0.00    +0.000 A 
ATOM      9  C   UNL     1      89.885  66.517  86.370  0.00  0.00    +0.000 A 
ENDBRANCH   1   7
BRANCH   1  10
ATOM     10  C   UNL     1      87.490  70.886  86.042  0.00  0.00    +0.000 C 
ATOM     11  C   UNL     1      86.412  71.307  86.726  0.00  0.00    +0.000 C 
ATOM     12  C   UNL     1      85.082  71.646  86.090  0.00  0.00    +0.000 C 
ATOM     13  C   UNL     1      84.384  72.490  87.147  0.00  0.00    +0.000 C 
ATOM     14  C   UNL     1      84.846  71.871  88.452  0.00  0.00    +0.000 C 
ATOM     15  C   UNL     1      86.320  71.561  88.213  0.00  0.00    +0.000 C 
ATOM     16 CL   UNL     1      87.432  70.592  84.334  0.00  0.00    +0.000 Cl
ENDBRANCH   1  10
TORSDOF 2
ENDMDL
