MODEL 1
REMARK VINA RESULT:      -4.4      0.000      0.000
REMARK  Name = *****
REMARK  4 active torsions:
REMARK  status: ('A' for Active; 'I' for Inactive)
REMARK    1  A    between atoms: C_4  and  C_7
REMARK    2  A    between atoms: C_7  and  C_8
REMARK    3  A    between atoms: C_8  and  C_9
REMARK    4  A    between atoms: C_8  and  P_15
REMARK                            x       y       z     vdW  Elec       q    Type
REMARK                         _______ _______ _______ _____ _____    ______ ____
ROOT
ATOM      1  C   UNL     1      88.776  69.803  86.093  0.00  0.00    +0.000 C 
ENDROOT
BRANCH   1   2
ATOM      2  C   UNL     1      89.176  70.884  85.098  0.00  0.00    +0.000 A 
ATOM      3  C   UNL     1      88.282  71.867  84.630  0.00  0.00    +0.000 A 
ATOM      4  C   UNL     1      88.692  72.827  83.702  0.00  0.00    +0.000 A 
ATOM      5  C   UNL     1      89.999  72.822  83.221  0.00  0.00    +0.000 A 
ATOM      6  C   UNL     1      90.897  71.856  83.664  0.00  0.00    +0.000 A 
ATOM      7  C   UNL     1      90.490  70.895  84.592  0.00  0.00    +0.000 A 
ENDBRANCH   1   2
BRANCH   1   8
ATOM      8  P   UNL     1      89.517  68.248  85.308  0.00  0.00    +0.000 P 
ATOM      9  O   UNL     1      90.377  67.823  86.567  0.00  0.00    +0.000 OA
ENDBRANCH   1   8
BRANCH   1  10
ATOM     10  C   UNL     1      89.249  70.008  87.542  0.00  0.00    +0.000 C 
BRANCH  10  14
ATOM     11  C   UNL     1      86.279  72.020  89.945  0.00  0.00    +0.000 A 
ATOM     12  C   UNL     1      85.936  71.504  88.696  0.00  0.00    +0.000 A 
ATOM     13  C   UNL     1      86.896  70.848  87.925  0.00  0.00    +0.000 A 
ATOM     14  C   UNL     1      88.209  70.701  88.395  0.00  0.00    +0.000 A 
ATOM     15  C   UNL     1      88.542  71.225  89.651  0.00  0.00    +0.000 A 
ATOM     16  C   UNL     1      87.581  71.881  90.421  0.00  0.00    +0.000 A 
ENDBRANCH  10  14
ENDBRANCH   1  10
TORSDOF 4
ENDMDL
