MODEL 1
REMARK VINA RESULT:      -3.6      0.000      0.000
REMARK  Name = *****
REMARK  3 active torsions:
REMARK  status: ('A' for Active; 'I' for Inactive)
REMARK    1  A    between atoms: C_5  and  C_6
REMARK    2  A    between atoms: C_5  and  S_8
REMARK    3  A    between atoms: S_8  and  C_10
REMARK                            x       y       z     vdW  Elec       q    Type
REMARK                         _______ _______ _______ _____ _____    ______ ____
ROOT
ATOM      1  C   UNL     1      87.385  70.861  87.497  0.00  0.00    +0.000 C 
ATOM      2  C   UNL     1      86.328  70.212  88.367  0.00  0.00    +0.000 C 
ATOM      3  S   UNL     1      86.086  68.514  87.763  0.00  0.00    +0.000 S 
ATOM      4  C   UNL     1      87.755  68.234  87.293  0.00  0.00    +0.000 C 
ATOM      5  C   UNL     1      88.243  67.032  86.923  0.00  0.00    +0.000 C 
ATOM      6  S   UNL     1      88.754  69.680  87.340  0.00  0.00    +0.000 S 
ENDROOT
BRANCH   5   7
ATOM      7  C   UNL     1      89.597  66.828  86.526  0.00  0.00    +0.000 C 
ATOM      8  N   UNL     1      90.694  66.672  86.175  0.00  0.00    +0.000 NA
ENDBRANCH   5   7
BRANCH   5   9
ATOM      9  S   UNL     1      87.194  65.578  86.882  0.00  0.00    +0.000 S 
ATOM     10  O   UNL     1      87.880  64.586  85.988  0.00  0.00    +0.000 OA
BRANCH   9  11
ATOM     11  C   UNL     1      87.486  64.978  88.568  0.00  0.00    +0.000 A 
ATOM     12  C   UNL     1      86.551  65.257  89.572  0.00  0.00    +0.000 A 
ATOM     13  C   UNL     1      86.768  64.811  90.877  0.00  0.00    +0.000 A 
ATOM     14  C   UNL     1      87.915  64.081  91.183  0.00  0.00    +0.000 A 
ATOM     15  C   UNL     1      88.846  63.793  90.186  0.00  0.00    +0.000 A 
ATOM     16  C   UNL     1      88.631  64.238  88.880  0.00  0.00    +0.000 A 
ENDBRANCH   9  11
ENDBRANCH   5   9
TORSDOF 3
ENDMDL
