MODEL 1
REMARK VINA RESULT:      -4.7      0.000      0.000
REMARK  Name = *****
REMARK  5 active torsions:
REMARK  status: ('A' for Active; 'I' for Inactive)
REMARK    1  A    between atoms: C_2  and  C_16
REMARK    2  A    between atoms: C_4  and  O_8
REMARK    3  A    between atoms: C_6  and  C_7
REMARK    4  A    between atoms: O_8  and  C_9
REMARK    5  A    between atoms: C_9  and  C_10
REMARK                            x       y       z     vdW  Elec       q    Type
REMARK                         _______ _______ _______ _____ _____    ______ ____
ROOT
ATOM      1  C   UNL     1      89.046  65.806  86.832  0.00  0.00    +0.000 A 
ATOM      2  C   UNL     1      90.022  66.580  86.192  0.00  0.00    +0.000 A 
ATOM      3  C   UNL     1      89.914  67.980  86.213  0.00  0.00    +0.000 A 
ATOM      4  C   UNL     1      88.846  68.598  86.865  0.00  0.00    +0.000 A 
ATOM      5  C   UNL     1      87.881  67.810  87.499  0.00  0.00    +0.000 A 
ATOM      6  C   UNL     1      87.970  66.413  87.488  0.00  0.00    +0.000 A 
ATOM      7  C   UNL     1      86.933  65.569  88.171  0.00  0.00    +0.000 C 
ATOM      8  C   UNL     1      91.177  65.932  85.487  0.00  0.00    +0.000 C 
ENDROOT
BRANCH   4   9
ATOM      9  O   UNL     1      88.626  69.945  86.957  0.00  0.00    +0.000 OA
BRANCH   9  10
ATOM     10  C   UNL     1      87.917  70.563  85.885  0.00  0.00    +0.000 C 
BRANCH  10  11
ATOM     11  C   UNL     1      86.680  71.226  86.444  0.00  0.00    +0.000 A 
ATOM     12  C   UNL     1      85.699  71.753  85.591  0.00  0.00    +0.000 A 
ATOM     13  C   UNL     1      84.551  72.350  86.116  0.00  0.00    +0.000 A 
ATOM     14  C   UNL     1      84.371  72.425  87.495  0.00  0.00    +0.000 A 
ATOM     15  C   UNL     1      85.338  71.904  88.353  0.00  0.00    +0.000 A 
ATOM     16  C   UNL     1      86.486  71.307  87.831  0.00  0.00    +0.000 A 
ENDBRANCH  10  11
ENDBRANCH   9  10
ENDBRANCH   4   9
TORSDOF 3
ENDMDL
