MODEL 1
REMARK VINA RESULT:      -4.5      0.000      0.000
REMARK  Name = *****
REMARK  7 active torsions:
REMARK  status: ('A' for Active; 'I' for Inactive)
REMARK    1  A    between atoms: C_1  and  C_2
REMARK    2  A    between atoms: C_3  and  C_17
REMARK    3  A    between atoms: C_4  and  C_16
REMARK    4  A    between atoms: C_5  and  C_15
REMARK    5  A    between atoms: C_6  and  C_7
REMARK    6  A    between atoms: C_7  and  O_8
REMARK    7  A    between atoms: O_8  and  C_9
REMARK                            x       y       z     vdW  Elec       q    Type
REMARK                         _______ _______ _______ _____ _____    ______ ____
ROOT
ATOM      1  C   UNL     1      87.077  71.073  89.668  0.00  0.00    +0.000 C 
ATOM      2  C   UNL     1      86.415  71.378  88.370  0.00  0.00    +0.000 C 
ATOM      3  C   UNL     1      85.218  71.954  88.135  0.00  0.00    +0.000 C 
ATOM      4  C   UNL     1      85.026  72.094  86.696  0.00  0.00    +0.000 C 
ATOM      5  C   UNL     1      86.102  71.605  86.050  0.00  0.00    +0.000 C 
ATOM      6  C   UNL     1      87.109  71.069  87.053  0.00  0.00    +0.000 C 
ATOM      7  C   UNL     1      86.397  71.592  84.590  0.00  0.00    +0.000 C 
ATOM      8  C   UNL     1      83.801  72.723  86.123  0.00  0.00    +0.000 C 
ATOM      9  C   UNL     1      84.202  72.421  89.120  0.00  0.00    +0.000 C 
ENDROOT
BRANCH   6  10
ATOM     10  C   UNL     1      87.406  69.568  86.871  0.00  0.00    +0.000 C 
BRANCH  10  11
ATOM     11  O   UNL     1      88.823  69.391  86.752  0.00  0.00    +0.000 OA
BRANCH  11  12
ATOM     12  C   UNL     1      89.399  69.750  85.564  0.00  0.00    +0.000 A 
ATOM     13  C   UNL     1      90.187  70.879  85.340  0.00  0.00    +0.000 A 
ATOM     14  C   UNL     1      90.716  71.124  84.068  0.00  0.00    +0.000 A 
ATOM     15  C   UNL     1      90.460  70.243  83.019  0.00  0.00    +0.000 A 
ATOM     16  C   UNL     1      89.675  69.114  83.238  0.00  0.00    +0.000 A 
ATOM     17  C   UNL     1      89.149  68.869  84.507  0.00  0.00    +0.000 A 
ENDBRANCH  11  12
ENDBRANCH  10  11
ENDBRANCH   6  10
TORSDOF 3
ENDMDL
