MODEL 1
REMARK VINA RESULT:      -4.7      0.000      0.000
REMARK  Name = *****
REMARK  3 active torsions:
REMARK  status: ('A' for Active; 'I' for Inactive)
REMARK    1  A    between atoms: C_4  and  C_7
REMARK    2  A    between atoms: C_8  and  C_9
REMARK    3  A    between atoms: C_12  and  C_14
REMARK                            x       y       z     vdW  Elec       q    Type
REMARK                         _______ _______ _______ _____ _____    ______ ____
ROOT
ATOM      1  C   UNL     1     102.031 125.988  82.115  0.00  0.00    +0.000 C 
ATOM      2  C   UNL     1     102.928 126.245  81.151  0.00  0.00    +0.000 C 
ENDROOT
BRANCH   1   6
ATOM      3  C   UNL     1      99.147 128.850  83.456  0.00  0.00    +0.000 A 
ATOM      4  C   UNL     1     100.502 129.081  83.687  0.00  0.00    +0.000 A 
ATOM      5  C   UNL     1     101.455 128.151  83.262  0.00  0.00    +0.000 A 
ATOM      6  C   UNL     1     101.061 126.976  82.609  0.00  0.00    +0.000 A 
ATOM      7  C   UNL     1      99.697 126.764  82.367  0.00  0.00    +0.000 A 
ATOM      8  C   UNL     1      98.745 127.693  82.793  0.00  0.00    +0.000 A 
ENDBRANCH   1   6
BRANCH   2   9
ATOM      9  C   UNL     1     103.852 125.261  80.709  0.00  0.00    +0.000 A 
ATOM     10  N   UNL     1     104.770 125.425  79.767  0.00  0.00    +0.000 NA
ATOM     11  N   UNL     1     105.461 124.242  79.628  0.00  0.00    +0.000 NA
ATOM     12  C   UNL     1     104.933 123.406  80.493  0.00  0.00    +0.000 A 
ATOM     13  O   UNL     1     103.915 123.972  81.213  0.00  0.00    +0.000 OA
BRANCH  12  14
ATOM     14  C   UNL     1     105.292 121.994  80.766  0.00  0.00    +0.000 C 
ATOM     15 CL   UNL     1     107.060 121.767  80.754  0.00  0.00    +0.000 Cl
ATOM     16 CL   UNL     1     104.621 121.449  82.324  0.00  0.00    +0.000 Cl
ENDBRANCH  12  14
ENDBRANCH   2   9
TORSDOF 3
ENDMDL
