MODEL 1
REMARK VINA RESULT:      -5.0      0.000      0.000
REMARK  Name = *****
REMARK  3 active torsions:
REMARK  status: ('A' for Active; 'I' for Inactive)
REMARK    1  A    between atoms: C_1  and  C_2
REMARK    2  A    between atoms: C_5  and  C_8
REMARK    3  A    between atoms: C_9  and  C_10
REMARK                            x       y       z     vdW  Elec       q    Type
REMARK                         _______ _______ _______ _____ _____    ______ ____
ROOT
ATOM      1  C   UNL     1     101.939 125.897  82.137  0.00  0.00    +0.000 C 
ATOM      2  C   UNL     1     103.141 125.507  82.592  0.00  0.00    +0.000 C 
ENDROOT
BRANCH   1   7
ATOM      3  C   UNL     1      99.170 130.484  84.334  0.00  0.00    +0.000 C 
ATOM      4  C   UNL     1      99.879 129.308  83.732  0.00  0.00    +0.000 A 
ATOM      5  C   UNL     1      99.156 128.272  83.131  0.00  0.00    +0.000 A 
ATOM      6  C   UNL     1      99.816 127.161  82.597  0.00  0.00    +0.000 A 
ATOM      7  C   UNL     1     101.211 127.065  82.656  0.00  0.00    +0.000 A 
ATOM      8  C   UNL     1     101.930 128.087  83.286  0.00  0.00    +0.000 A 
ATOM      9  C   UNL     1     101.271 129.198  83.818  0.00  0.00    +0.000 A 
ENDBRANCH   1   7
BRANCH   2  10
ATOM     10  C   UNL     1     103.903 124.372  82.095  0.00  0.00    +0.000 C 
ATOM     11  C   UNL     1     104.292 124.244  80.812  0.00  0.00    +0.000 C 
ATOM     12  C   UNL     1     105.028 123.068  80.246  0.00  0.00    +0.000 C 
ATOM     13  C   UNL     1     104.904 121.828  81.121  0.00  0.00    +0.000 C 
ATOM     14  C   UNL     1     105.162 122.160  82.579  0.00  0.00    +0.000 C 
ATOM     15  C   UNL     1     104.234 123.257  83.055  0.00  0.00    +0.000 C 
ATOM     16  O   UNL     1     103.820 123.277  84.214  0.00  0.00    +0.000 OA
ENDBRANCH   2  10
TORSDOF 2
ENDMDL
