MODEL 1
REMARK VINA RESULT:      -4.6      0.000      0.000
REMARK  Name = *****
REMARK  1 active torsions:
REMARK  status: ('A' for Active; 'I' for Inactive)
REMARK    1  A    between atoms: C_10  and  C_11
REMARK                            x       y       z     vdW  Elec       q    Type
REMARK                         _______ _______ _______ _____ _____    ______ ____
ROOT
ATOM      1  C   UNL     1     103.567 127.775  80.142  0.00  0.00    +0.000 C 
ATOM      2  C   UNL     1     104.638 128.456  80.933  0.00  0.00    +0.000 C 
ATOM      3  C   UNL     1     105.650 127.639  81.247  0.00  0.00    +0.000 C 
ATOM      4  C   UNL     1     105.427 126.258  80.732  0.00  0.00    +0.000 C 
ATOM      5  C   UNL     1     104.013 126.315  80.102  0.00  0.00    +0.000 C 
ATOM      6  C   UNL     1     103.242 125.219  80.885  0.00  0.00    +0.000 C 
ATOM      7  C   UNL     1     104.356 124.159  81.002  0.00  0.00    +0.000 C 
ATOM      8  C   UNL     1     105.301 125.106  81.750  0.00  0.00    +0.000 C 
ATOM      9  C   UNL     1     104.439 125.513  82.965  0.00  0.00    +0.000 C 
ATOM     10  C   UNL     1     102.998 125.502  82.398  0.00  0.00    +0.000 C 
ENDROOT
BRANCH  10  11
ATOM     11  C   UNL     1     102.016 126.591  82.758  0.00  0.00    +0.000 A 
ATOM     12  C   UNL     1     102.350 127.707  83.535  0.00  0.00    +0.000 A 
ATOM     13  C   UNL     1     101.390 128.671  83.859  0.00  0.00    +0.000 A 
ATOM     14  C   UNL     1     100.076 128.529  83.427  0.00  0.00    +0.000 A 
ATOM     15  C   UNL     1      99.717 127.417  82.672  0.00  0.00    +0.000 A 
ATOM     16  C   UNL     1     100.676 126.455  82.347  0.00  0.00    +0.000 A 
ENDBRANCH  10  11
TORSDOF 1
ENDMDL
