MODEL 1
REMARK VINA RESULT:      -4.7      0.000      0.000
REMARK  Name = *****
REMARK  3 active torsions:
REMARK  status: ('A' for Active; 'I' for Inactive)
REMARK    1  A    between atoms: C_1  and  C_2
REMARK    2  A    between atoms: C_4  and  C_8
REMARK    3  A    between atoms: C_9  and  C_10
REMARK                            x       y       z     vdW  Elec       q    Type
REMARK                         _______ _______ _______ _____ _____    ______ ____
ROOT
ATOM      1  C   UNL     1     102.936 125.688  81.404  0.00  0.00    +0.000 C 
ATOM      2  C   UNL     1     102.054 126.325  81.914  0.00  0.00    +0.000 C 
ENDROOT
BRANCH   1   6
ATOM      3  C   UNL     1     105.192 121.482  81.207  0.00  0.00    +0.000 C 
ATOM      4  C   UNL     1     105.069 122.891  80.709  0.00  0.00    +0.000 A 
ATOM      5  N   UNL     1     104.094 123.658  81.252  0.00  0.00    +0.000 NA
ATOM      6  C   UNL     1     103.981 124.925  80.800  0.00  0.00    +0.000 A 
ATOM      7  C   UNL     1     104.798 125.476  79.826  0.00  0.00    +0.000 A 
ATOM      8  C   UNL     1     105.794 124.675  79.279  0.00  0.00    +0.000 A 
ATOM      9  C   UNL     1     105.934 123.364  79.724  0.00  0.00    +0.000 A 
ENDBRANCH   1   6
BRANCH   2  10
ATOM     10  C   UNL     1     101.003 127.083  82.517  0.00  0.00    +0.000 A 
ATOM     11  C   UNL     1      99.669 126.734  82.292  0.00  0.00    +0.000 A 
ATOM     12  C   UNL     1      98.643 127.478  82.880  0.00  0.00    +0.000 A 
ATOM     13  C   UNL     1      98.950 128.568  83.694  0.00  0.00    +0.000 A 
ATOM     14  C   UNL     1     100.281 128.918  83.921  0.00  0.00    +0.000 A 
ATOM     15  C   UNL     1     101.308 128.176  83.334  0.00  0.00    +0.000 A 
ENDBRANCH   2  10
TORSDOF 2
ENDMDL
