MODEL 1
REMARK VINA RESULT:      -4.7      0.000      0.000
REMARK  Name = *****
REMARK  2 active torsions:
REMARK  status: ('A' for Active; 'I' for Inactive)
REMARK    1  A    between atoms: C_4  and  C_7
REMARK    2  A    between atoms: C_8  and  C_9
REMARK                            x       y       z     vdW  Elec       q    Type
REMARK                         _______ _______ _______ _____ _____    ______ ____
ROOT
ATOM      1  C   UNL     1     103.585 124.947  81.047  0.00  0.00    +0.000 C 
ATOM      2  C   UNL     1     104.830 125.007  80.541  0.00  0.00    +0.000 C 
ATOM      3  C   UNL     1     105.659 123.879  80.147  0.00  0.00    +0.000 C 
ATOM      4  C   UNL     1     106.870 124.185  79.665  0.00  0.00    +0.000 C 
ATOM      5  C   UNL     1     107.111 125.641  79.636  0.00  0.00    +0.000 C 
ATOM      6  O   UNL     1     108.123 126.200  79.246  0.00  0.00    +0.000 OA
ATOM      7  S   UNL     1     105.705 126.491  80.256  0.00  0.00    +0.000 S 
ATOM      8 CL   UNL     1     108.072 123.106  79.118  0.00  0.00    +0.000 Cl
ATOM      9 CL   UNL     1     105.099 122.255  80.297  0.00  0.00    +0.000 Cl
ENDROOT
BRANCH   1  11
ATOM     10  C   UNL     1     101.711 125.922  82.289  0.00  0.00    +0.000 C 
ATOM     11  C   UNL     1     102.746 126.063  81.445  0.00  0.00    +0.000 C 
BRANCH  10  15
ATOM     12  C   UNL     1      99.142 129.147  83.433  0.00  0.00    +0.000 A 
ATOM     13  C   UNL     1     100.508 129.233  83.693  0.00  0.00    +0.000 A 
ATOM     14  C   UNL     1     101.357 128.184  83.331  0.00  0.00    +0.000 A 
ATOM     15  C   UNL     1     100.847 127.033  82.715  0.00  0.00    +0.000 A 
ATOM     16  C   UNL     1      99.474 126.967  82.444  0.00  0.00    +0.000 A 
ATOM     17  C   UNL     1      98.625 128.016  82.806  0.00  0.00    +0.000 A 
ENDBRANCH  10  15
ENDBRANCH   1  11
TORSDOF 2
ENDMDL
