MODEL 1
REMARK VINA RESULT:      -3.2      0.000      0.000
REMARK  Name = *****
REMARK  1 active torsions:
REMARK  status: ('A' for Active; 'I' for Inactive)
REMARK    1  A    between atoms: C_4  and  C_6
REMARK                            x       y       z     vdW  Elec       q    Type
REMARK                         _______ _______ _______ _____ _____    ______ ____
ROOT
ATOM      1  C   UNL     1     102.405 127.016  83.711  0.00  0.00    +0.000 C 
ATOM      2  S   UNL     1     102.919 127.209  81.944  0.00  0.00    +0.000 S 
ATOM      3  C   UNL     1     103.587 125.628  81.778  0.00  0.00    +0.000 A 
ATOM      4  C   UNL     1     103.736 124.875  82.873  0.00  0.00    +0.000 A 
ATOM      5  S   UNL     1     103.252 125.520  84.399  0.00  0.00    +0.000 S 
ATOM      6  S   UNL     1     104.421 123.302  82.679  0.00  0.00    +0.000 S 
ATOM      7  C   UNL     1     104.626 123.421  80.935  0.00  0.00    +0.000 A 
ATOM      8  O   UNL     1     105.098 122.525  80.253  0.00  0.00    +0.000 OA
ATOM      9  S   UNL     1     104.090 124.960  80.269  0.00  0.00    +0.000 S 
ENDROOT
BRANCH   1  13
ATOM     10  C   UNL     1      99.268 129.104  83.393  0.00  0.00    +0.000 C 
ATOM     11  C   UNL     1      98.587 127.910  82.761  0.00  0.00    +0.000 C 
ATOM     12  S   UNL     1      99.845 126.644  82.456  0.00  0.00    +0.000 S 
ATOM     13  C   UNL     1     100.871 126.964  83.953  0.00  0.00    +0.000 C 
ATOM     14  S   UNL     1     100.258 128.489  84.779  0.00  0.00    +0.000 S 
ENDBRANCH   1  13
TORSDOF 1
ENDMDL
