MODEL 1
REMARK VINA RESULT:      -3.6      0.000      0.000
REMARK  Name = *****
REMARK  3 active torsions:
REMARK  status: ('A' for Active; 'I' for Inactive)
REMARK    1  A    between atoms: C_4  and  C_7
REMARK    2  A    between atoms: C_7  and  S_9
REMARK    3  A    between atoms: S_9  and  C_10
REMARK                            x       y       z     vdW  Elec       q    Type
REMARK                         _______ _______ _______ _____ _____    ______ ____
ROOT
ATOM      1  C   UNL     1      97.123 116.610  78.705  0.00  0.00    +0.000 C 
ATOM      2  O   UNL     1      98.295 116.348  78.452  0.00  0.00    +0.000 OA
ENDROOT
BRANCH   1   6
ATOM      3  C   UNL     1      95.263 114.189  76.338  0.00  0.00    +0.000 C 
ATOM      4  C   UNL     1      96.605 114.807  75.973  0.00  0.00    +0.000 C 
ATOM      5  S   UNL     1      96.586 116.623  75.969  0.00  0.00    +0.000 S 
ATOM      6  C   UNL     1      96.053 116.968  77.673  0.00  0.00    +0.000 C 
ATOM      7  S   UNL     1      94.448 116.213  78.073  0.00  0.00    +0.000 S 
ATOM      8  C   UNL     1      94.820 114.462  77.767  0.00  0.00    +0.000 C 
ENDBRANCH   1   6
BRANCH   1   9
ATOM      9  S   UNL     1      96.554 116.539  80.381  0.00  0.00    +0.000 S 
BRANCH   9  10
ATOM     10  C   UNL     1      96.785 118.243  80.849  0.00  0.00    +0.000 A 
ATOM     11  C   UNL     1      95.668 119.028  81.156  0.00  0.00    +0.000 A 
ATOM     12  C   UNL     1      95.828 120.367  81.518  0.00  0.00    +0.000 A 
ATOM     13  C   UNL     1      97.104 120.925  81.580  0.00  0.00    +0.000 A 
ATOM     14  C   UNL     1      98.220 120.146  81.286  0.00  0.00    +0.000 A 
ATOM     15  C   UNL     1      98.063 118.806  80.926  0.00  0.00    +0.000 A 
ENDBRANCH   9  10
ENDBRANCH   1   9
TORSDOF 3
ENDMDL
