MODEL 1
REMARK VINA RESULT:      -4.6      0.000      0.000
REMARK  Name = *****
REMARK  3 active torsions:
REMARK  status: ('A' for Active; 'I' for Inactive)
REMARK    1  A    between atoms: C_5  and  C_7
REMARK    2  A    between atoms: C_7  and  S_8
REMARK    3  A    between atoms: S_8  and  C_10
REMARK                            x       y       z     vdW  Elec       q    Type
REMARK                         _______ _______ _______ _____ _____    ______ ____
ROOT
ATOM      1  C   UNL     1     103.280 126.304  81.383  0.00  0.00    +0.000 C 
ATOM      2 CL   UNL     1     103.493 127.474  80.032  0.00  0.00    +0.000 Cl
ENDROOT
BRANCH   1   7
ATOM      3  C   UNL     1     105.470 123.292  80.150  0.00  0.00    +0.000 C 
ATOM      4  C   UNL     1     104.865 122.271  81.110  0.00  0.00    +0.000 C 
ATOM      5  C   UNL     1     104.404 122.902  82.386  0.00  0.00    +0.000 C 
ATOM      6  C   UNL     1     104.233 124.224  82.539  0.00  0.00    +0.000 C 
ATOM      7  C   UNL     1     104.432 125.253  81.428  0.00  0.00    +0.000 C 
ATOM      8  C   UNL     1     104.601 124.543  80.059  0.00  0.00    +0.000 C 
ENDBRANCH   1   7
BRANCH   1   9
ATOM      9  S   UNL     1     103.146 127.181  83.005  0.00  0.00    +0.000 S 
ATOM     10  O   UNL     1     103.845 128.505  82.899  0.00  0.00    +0.000 OA
BRANCH   9  11
ATOM     11  C   UNL     1     101.374 127.521  82.989  0.00  0.00    +0.000 A 
ATOM     12  C   UNL     1     100.892 128.724  83.517  0.00  0.00    +0.000 A 
ATOM     13  C   UNL     1      99.523 129.002  83.502  0.00  0.00    +0.000 A 
ATOM     14  C   UNL     1      98.632 128.082  82.952  0.00  0.00    +0.000 A 
ATOM     15  C   UNL     1      99.106 126.888  82.412  0.00  0.00    +0.000 A 
ATOM     16  C   UNL     1     100.474 126.610  82.427  0.00  0.00    +0.000 A 
ENDBRANCH   9  11
ENDBRANCH   1   9
TORSDOF 3
ENDMDL
