MODEL 1
REMARK VINA RESULT:      -4.4      0.000      0.000
REMARK  Name = *****
REMARK  6 active torsions:
REMARK  status: ('A' for Active; 'I' for Inactive)
REMARK    1  A    between atoms: C_1  and  C_2
REMARK    2  A    between atoms: C_3  and  O_9
REMARK    3  A    between atoms: C_4  and  C_8
REMARK    4  A    between atoms: O_9  and  C_10
REMARK    5  A    between atoms: C_10  and  C_12
REMARK    6  A    between atoms: C_12  and  C_13
REMARK                            x       y       z     vdW  Elec       q    Type
REMARK                         _______ _______ _______ _____ _____    ______ ____
ROOT
ATOM      1  O   UNL     1      89.951  67.656  86.618  0.00  0.00    +0.000 OA
ENDROOT
BRANCH   1   4
ATOM      2  C   UNL     1      91.433  65.584  85.282  0.00  0.00    +0.000 C 
ATOM      3  C   UNL     1      90.106  65.338  85.940  0.00  0.00    +0.000 A 
ATOM      4  C   UNL     1      89.387  66.376  86.555  0.00  0.00    +0.000 A 
ATOM      5  C   UNL     1      88.153  66.151  87.187  0.00  0.00    +0.000 A 
ATOM      6  C   UNL     1      87.606  64.864  87.139  0.00  0.00    +0.000 A 
ATOM      7  C   UNL     1      88.291  63.829  86.501  0.00  0.00    +0.000 A 
ATOM      8  C   UNL     1      89.532  64.063  85.906  0.00  0.00    +0.000 A 
ATOM      9  C   UNL     1      87.407  67.264  87.865  0.00  0.00    +0.000 C 
ENDBRANCH   1   4
BRANCH   1  10
ATOM     10  C   UNL     1      89.545  68.490  85.580  0.00  0.00    +0.000 C 
ATOM     11  O   UNL     1      89.068  68.151  84.504  0.00  0.00    +0.000 OA
BRANCH  10  12
ATOM     12  C   UNL     1      89.774  69.927  85.986  0.00  0.00    +0.000 C 
BRANCH  12  13
ATOM     13  C   UNL     1      88.659  70.466  86.845  0.00  0.00    +0.000 A 
ATOM     14  C   UNL     1      88.818  70.584  88.232  0.00  0.00    +0.000 A 
ATOM     15  C   UNL     1      87.770  71.054  89.025  0.00  0.00    +0.000 A 
ATOM     16  C   UNL     1      86.556  71.406  88.441  0.00  0.00    +0.000 A 
ATOM     17  C   UNL     1      86.385  71.286  87.063  0.00  0.00    +0.000 A 
ATOM     18  C   UNL     1      87.431  70.816  86.267  0.00  0.00    +0.000 A 
ENDBRANCH  12  13
ENDBRANCH  10  12
ENDBRANCH   1  10
TORSDOF 4
ENDMDL
