REMARK  Name = *****
REMARK  4 active torsions:
REMARK  status: ('A' for Active; 'I' for Inactive)
REMARK    1  A    between atoms: C_1  and  C_2
REMARK    2  A    between atoms: C_5  and  C_8
REMARK    3  A    between atoms: C_8  and  O_10
REMARK    4  A    between atoms: O_10  and  C_11
REMARK                            x       y       z     vdW  Elec       q    Type
REMARK                         _______ _______ _______ _____ _____    ______ ____
ROOT
ATOM      1  C   UNL     1      -3.357  -0.157  -0.213  0.00  0.00    +0.000 C 
ATOM      2  O   UNL     1      -3.944  -1.186  -0.505  0.00  0.00    +0.000 OA
ENDROOT
BRANCH   1   7
ATOM      3  C   UNL     1       2.415   0.024   0.347  0.00  0.00    +0.000 C 
ATOM      4  C   UNL     1       0.925  -0.002   0.176  0.00  0.00    +0.000 A 
ATOM      5  C   UNL     1       0.169   1.161   0.368  0.00  0.00    +0.000 A 
ATOM      6  C   UNL     1      -1.223   1.132   0.242  0.00  0.00    +0.000 A 
ATOM      7  C   UNL     1      -1.878  -0.067  -0.067  0.00  0.00    +0.000 A 
ATOM      8  C   UNL     1      -1.124  -1.234  -0.245  0.00  0.00    +0.000 A 
ATOM      9  C   UNL     1       0.267  -1.202  -0.118  0.00  0.00    +0.000 A 
ENDBRANCH   1   7
BRANCH   1  10
ATOM     10  O   UNL     1      -3.932   1.049   0.024  0.00  0.00    +0.000 OA
BRANCH  10  11
ATOM     11  C   UNL     1      -5.366   1.099  -0.089  0.00  0.00    +0.000 C 
ATOM     12  C   UNL     1      -5.765   1.299  -1.554  0.00  0.00    +0.000 C 
ATOM     13  C   UNL     1      -7.266   1.521  -1.705  0.00  0.00    +0.000 C 
ATOM     14  C   UNL     1      -7.753   2.677  -0.836  0.00  0.00    +0.000 C 
ATOM     15  C   UNL     1      -7.352   2.493   0.625  0.00  0.00    +0.000 C 
ATOM     16  C   UNL     1      -5.851   2.271   0.769  0.00  0.00    +0.000 C 
ENDBRANCH  10  11
ENDBRANCH   1  10
TORSDOF 3
