MODEL 1
REMARK VINA RESULT:      -4.5      0.000      0.000
REMARK  Name = *****
REMARK  3 active torsions:
REMARK  status: ('A' for Active; 'I' for Inactive)
REMARK    1  A    between atoms: C_2  and  C_3
REMARK    2  A    between atoms: C_6  and  C_9
REMARK    3  A    between atoms: C_10  and  C_11
REMARK                            x       y       z     vdW  Elec       q    Type
REMARK                         _______ _______ _______ _____ _____    ______ ____
ROOT
ATOM      1  C   UNL     1     105.929 122.439  81.463  0.00  0.00    +0.000 A 
ATOM      2  C   UNL     1     105.377 123.183  80.417  0.00  0.00    +0.000 A 
ATOM      3  C   UNL     1     104.374 124.121  80.679  0.00  0.00    +0.000 A 
ATOM      4  C   UNL     1     103.923 124.317  81.986  0.00  0.00    +0.000 A 
ATOM      5  C   UNL     1     104.474 123.573  83.031  0.00  0.00    +0.000 A 
ATOM      6  C   UNL     1     105.477 122.634  82.770  0.00  0.00    +0.000 A 
ENDROOT
BRANCH   1   8
ATOM      7  C   UNL     1     107.818 120.675  80.971  0.00  0.00    +0.000 C 
ATOM      8  C   UNL     1     106.956 121.480  81.195  0.00  0.00    +0.000 C 
ENDBRANCH   1   8
BRANCH   4   9
ATOM      9  C   UNL     1     102.900 125.280  82.253  0.00  0.00    +0.000 C 
ATOM     10  C   UNL     1     102.039 126.087  82.478  0.00  0.00    +0.000 C 
BRANCH  10  11
ATOM     11  C   UNL     1     101.012 127.046  82.747  0.00  0.00    +0.000 A 
ATOM     12  C   UNL     1     101.327 128.250  83.383  0.00  0.00    +0.000 A 
ATOM     13  C   UNL     1     100.324 129.184  83.647  0.00  0.00    +0.000 A 
ATOM     14  C   UNL     1      99.006 128.917  83.276  0.00  0.00    +0.000 A 
ATOM     15  C   UNL     1      98.690 127.716  82.640  0.00  0.00    +0.000 A 
ATOM     16  C   UNL     1      99.691 126.780  82.376  0.00  0.00    +0.000 A 
ENDBRANCH  10  11
ENDBRANCH   4   9
TORSDOF 3
ENDMDL
