MODEL 1
REMARK VINA RESULT:      -4.7      0.000      0.000
REMARK  Name = *****
REMARK  5 active torsions:
REMARK  status: ('A' for Active; 'I' for Inactive)
REMARK    1  A    between atoms: C_1  and  C_2
REMARK    2  A    between atoms: C_1  and  O_9
REMARK    3  A    between atoms: C_5  and  C_8
REMARK    4  A    between atoms: O_9  and  C_10
REMARK    5  A    between atoms: C_10  and  C_12
REMARK                            x       y       z     vdW  Elec       q    Type
REMARK                         _______ _______ _______ _____ _____    ______ ____
ROOT
ATOM      1  O   UNL     1     100.433 126.726  83.342  0.00  0.00    +0.000 OA
ENDROOT
BRANCH   1   2
ATOM      2  C   UNL     1      99.299 127.364  82.968  0.00  0.00    +0.000 C 
ATOM      3  O   UNL     1      98.557 127.025  82.060  0.00  0.00    +0.000 OA
BRANCH   2   4
ATOM      4  C   UNL     1      99.070 128.564  83.818  0.00  0.00    +0.000 A 
ATOM      5  C   UNL     1      99.546 129.801  83.360  0.00  0.00    +0.000 A 
ATOM      6  C   UNL     1      99.357 130.954  84.123  0.00  0.00    +0.000 A 
ATOM      7  C   UNL     1      98.691 130.880  85.346  0.00  0.00    +0.000 A 
ATOM      8  C   UNL     1      98.214 129.654  85.809  0.00  0.00    +0.000 A 
ATOM      9  C   UNL     1      98.401 128.497  85.049  0.00  0.00    +0.000 A 
ENDBRANCH   2   4
ENDBRANCH   1   2
BRANCH   1  10
ATOM     10  C   UNL     1     101.217 126.252  82.245  0.00  0.00    +0.000 C 
BRANCH  10  11
ATOM     11  C   UNL     1     102.387 127.186  82.068  0.00  0.00    +0.000 A 
ATOM     12  C   UNL     1     102.781 128.048  83.100  0.00  0.00    +0.000 A 
ATOM     13  C   UNL     1     103.867 128.909  82.929  0.00  0.00    +0.000 A 
ATOM     14  C   UNL     1     104.570 128.936  81.720  0.00  0.00    +0.000 A 
ATOM     15  C   UNL     1     104.186 128.069  80.691  0.00  0.00    +0.000 A 
ATOM     16  C   UNL     1     103.100 127.205  80.862  0.00  0.00    +0.000 A 
ATOM     17  C   UNL     1     105.758 129.836  81.549  0.00  0.00    +0.000 C 
ENDBRANCH  10  11
ENDBRANCH   1  10
TORSDOF 4
ENDMDL
