REMARK  Name = *****
REMARK  3 active torsions:
REMARK  status: ('A' for Active; 'I' for Inactive)
REMARK    1  A    between atoms: C_7  and  C_8
REMARK    2  A    between atoms: C_8  and  C_9
REMARK    3  A    between atoms: C_9  and  C_10
REMARK                            x       y       z     vdW  Elec       q    Type
REMARK                         _______ _______ _______ _____ _____    ______ ____
ROOT
ATOM      1  C   UNL     1       0.019   1.271  -2.046  0.00  0.00    +0.000 C 
ENDROOT
BRANCH   1   8
ATOM      2  C   UNL     1      -2.262   0.003   0.329  0.00  0.00    +0.000 C 
ATOM      3  C   UNL     1      -0.997  -0.061  -0.120  0.00  0.00    +0.000 C 
ATOM      4  C   UNL     1      -0.247  -1.368  -0.206  0.00  0.00    +0.000 C 
ATOM      5  C   UNL     1       1.069  -1.292   0.567  0.00  0.00    +0.000 C 
ATOM      6  C   UNL     1       1.910  -0.086   0.150  0.00  0.00    +0.000 C 
ATOM      7  C   UNL     1       1.113   1.217   0.254  0.00  0.00    +0.000 C 
ATOM      8  C   UNL     1      -0.218   1.179  -0.523  0.00  0.00    +0.000 C 
ENDBRANCH   1   8
BRANCH   1   9
ATOM      9  C   UNL     1      -1.283   1.390  -2.847  0.00  0.00    +0.000 C 
BRANCH   9  10
ATOM     10  C   UNL     1      -1.010   1.569  -4.321  0.00  0.00    +0.000 A 
ATOM     11  C   UNL     1      -0.825   0.453  -5.148  0.00  0.00    +0.000 A 
ATOM     12  C   UNL     1      -0.554   0.617  -6.507  0.00  0.00    +0.000 A 
ATOM     13  C   UNL     1      -0.461   1.897  -7.051  0.00  0.00    +0.000 A 
ATOM     14  C   UNL     1      -0.638   3.014  -6.236  0.00  0.00    +0.000 A 
ATOM     15  C   UNL     1      -0.908   2.852  -4.876  0.00  0.00    +0.000 A 
ENDBRANCH   9  10
ENDBRANCH   1   9
TORSDOF 3
