REMARK  Name = *****
REMARK  2 active torsions:
REMARK  status: ('A' for Active; 'I' for Inactive)
REMARK    1  A    between atoms: C_4  and  S_5
REMARK    2  A    between atoms: S_5  and  C_6
REMARK                            x       y       z     vdW  Elec       q    Type
REMARK                         _______ _______ _______ _____ _____    ______ ____
ROOT
ATOM      1  S   UNL     1       2.672   2.950  -0.574  0.00  0.00    +0.000 S 
ENDROOT
BRANCH   1   5
ATOM      2  C   UNL     1      -0.399  -1.061   0.016  0.00  0.00    +0.000 C 
ATOM      3  C   UNL     1       0.927  -0.614   0.625  0.00  0.00    +0.000 C 
ATOM      4  C   UNL     1       1.131   0.798   0.142  0.00  0.00    +0.000 C 
ATOM      5  C   UNL     1       2.350   1.345   0.002  0.00  0.00    +0.000 C 
ATOM      6  S   UNL     1      -0.386   1.567  -0.260  0.00  0.00    +0.000 S 
ATOM      7  C   UNL     1      -1.374   0.098   0.158  0.00  0.00    +0.000 C 
ENDBRANCH   1   5
BRANCH   1   8
ATOM      8  C   UNL     1       4.453   2.893  -0.599  0.00  0.00    +0.000 A 
ATOM      9  C   UNL     1       5.127   2.388  -1.715  0.00  0.00    +0.000 A 
ATOM     10  C   UNL     1       6.523   2.345  -1.733  0.00  0.00    +0.000 A 
ATOM     11  C   UNL     1       7.249   2.813  -0.639  0.00  0.00    +0.000 A 
ATOM     12  C   UNL     1       6.582   3.326   0.473  0.00  0.00    +0.000 A 
ATOM     13  C   UNL     1       5.186   3.368   0.492  0.00  0.00    +0.000 A 
ENDBRANCH   1   8
TORSDOF 2
