REMARK  Name = *****
REMARK  5 active torsions:
REMARK  status: ('A' for Active; 'I' for Inactive)
REMARK    1  A    between atoms: C_1  and  C_2
REMARK    2  A    between atoms: C_4  and  C_8
REMARK    3  A    between atoms: C_8  and  O_9
REMARK    4  A    between atoms: O_9  and  C_10
REMARK    5  A    between atoms: C_10  and  C_12
REMARK                            x       y       z     vdW  Elec       q    Type
REMARK                         _______ _______ _______ _____ _____    ______ ____
ROOT
ATOM      1  O   UNL     1      -0.972   3.613  -0.010  0.00  0.00    +0.000 OA
ENDROOT
BRANCH   1   2
ATOM      2  C   UNL     1      -0.759   4.098  -1.255  0.00  0.00    +0.000 C 
ATOM      3  O   UNL     1      -1.313   3.732  -2.280  0.00  0.00    +0.000 OA
BRANCH   2   4
ATOM      4  C   UNL     1       0.266   5.176  -1.224  0.00  0.00    +0.000 A 
ATOM      5  C   UNL     1       0.915   5.560  -0.043  0.00  0.00    +0.000 A 
ATOM      6  C   UNL     1       1.867   6.579  -0.079  0.00  0.00    +0.000 A 
ATOM      7  C   UNL     1       2.182   7.219  -1.277  0.00  0.00    +0.000 A 
ATOM      8  C   UNL     1       1.540   6.838  -2.455  0.00  0.00    +0.000 A 
ATOM      9  C   UNL     1       0.585   5.820  -2.429  0.00  0.00    +0.000 A 
ATOM     10 CL   UNL     1       2.662   7.053   1.372  0.00  0.00    +0.000 Cl
ENDBRANCH   2   4
ENDBRANCH   1   2
BRANCH   1  11
ATOM     11  C   UNL     1      -1.901   2.527   0.085  0.00  0.00    +0.000 C 
BRANCH  11  15
ATOM     12  C   UNL     1      -0.062  -1.497  -2.328  0.00  0.00    +0.000 C 
ATOM     13  C   UNL     1      -0.262  -0.727  -1.056  0.00  0.00    +0.000 A 
ATOM     14  C   UNL     1      -0.976   0.479  -1.065  0.00  0.00    +0.000 A 
ATOM     15  C   UNL     1      -1.145   1.224   0.112  0.00  0.00    +0.000 A 
ATOM     16  C   UNL     1      -0.562   0.764   1.299  0.00  0.00    +0.000 A 
ATOM     17  C   UNL     1       0.163  -0.427   1.312  0.00  0.00    +0.000 A 
ATOM     18  C   UNL     1       0.314  -1.168   0.140  0.00  0.00    +0.000 A 
ENDBRANCH  11  15
ENDBRANCH   1  11
TORSDOF 4
