MODEL 1
REMARK VINA RESULT:      -4.4      0.000      0.000
REMARK  Name = *****
REMARK  5 active torsions:
REMARK  status: ('A' for Active; 'I' for Inactive)
REMARK    1  A    between atoms: C_1  and  O_2
REMARK    2  A    between atoms: O_2  and  C_3
REMARK    3  A    between atoms: C_6  and  N_9
REMARK    4  A    between atoms: N_9  and  O_10
REMARK    5  A    between atoms: O_10  and  C_11
REMARK                            x       y       z     vdW  Elec       q    Type
REMARK                         _______ _______ _______ _____ _____    ______ ____
ROOT
ATOM      1  N   UNL     1     102.383 126.342  81.357  0.00  0.00    +0.000 N 
ATOM      2  H   UNL     1     102.391 127.256  80.990  0.00  0.00    +0.000 HD
ENDROOT
BRANCH   1   6
ATOM      3  C   UNL     1     105.487 123.564  80.607  0.00  0.00    +0.000 A 
ATOM      4  C   UNL     1     104.766 123.519  81.799  0.00  0.00    +0.000 A 
ATOM      5  C   UNL     1     103.750 124.454  82.044  0.00  0.00    +0.000 A 
ATOM      6  C   UNL     1     103.458 125.462  81.117  0.00  0.00    +0.000 A 
ATOM      7  C   UNL     1     104.159 125.474  79.908  0.00  0.00    +0.000 A 
ATOM      8  C   UNL     1     105.173 124.542  79.662  0.00  0.00    +0.000 A 
BRANCH   3  10
ATOM      9  C   UNL     1     106.678 121.553  81.039  0.00  0.00    +0.000 C 
ATOM     10  O   UNL     1     106.496 122.717  80.243  0.00  0.00    +0.000 OA
ENDBRANCH   3  10
ENDBRANCH   1   6
BRANCH   1  11
ATOM     11  O   UNL     1     101.304 125.894  82.125  0.00  0.00    +0.000 OA
BRANCH  11  12
ATOM     12  C   UNL     1     100.584 126.962  82.611  0.00  0.00    +0.000 A 
ATOM     13  C   UNL     1     101.314 127.976  83.233  0.00  0.00    +0.000 A 
ATOM     14  C   UNL     1     100.657 129.105  83.727  0.00  0.00    +0.000 A 
ATOM     15  C   UNL     1      99.274 129.224  83.587  0.00  0.00    +0.000 A 
ATOM     16  C   UNL     1      98.547 128.219  82.948  0.00  0.00    +0.000 A 
ATOM     17  C   UNL     1      99.202 127.090  82.453  0.00  0.00    +0.000 A 
ENDBRANCH  11  12
ENDBRANCH   1  11
TORSDOF 4
ENDMDL
