MODEL 1
REMARK VINA RESULT:      -4.5      0.000      0.000
REMARK  Name = *****
REMARK  4 active torsions:
REMARK  status: ('A' for Active; 'I' for Inactive)
REMARK    1  A    between atoms: C_4  and  O_7
REMARK    2  A    between atoms: O_7  and  C_8
REMARK    3  A    between atoms: C_8  and  C_9
REMARK    4  A    between atoms: C_12  and  C_15
REMARK                            x       y       z     vdW  Elec       q    Type
REMARK                         _______ _______ _______ _____ _____    ______ ____
ROOT
ATOM      1  C   UNL     1     103.192 127.531  81.896  0.00  0.00    +0.000 C 
ENDROOT
BRANCH   1   2
ATOM      2  C   UNL     1     103.723 126.169  81.521  0.00  0.00    +0.000 A 
ATOM      3  C   UNL     1     104.176 125.918  80.219  0.00  0.00    +0.000 A 
ATOM      4  C   UNL     1     104.671 124.658  79.870  0.00  0.00    +0.000 A 
ATOM      5  C   UNL     1     104.706 123.621  80.812  0.00  0.00    +0.000 A 
ATOM      6  C   UNL     1     104.243 123.871  82.111  0.00  0.00    +0.000 A 
ATOM      7  C   UNL     1     103.749 125.130  82.460  0.00  0.00    +0.000 A 
BRANCH   5   8
ATOM      8  C   UNL     1     105.255 122.272  80.442  0.00  0.00    +0.000 C 
ATOM      9 CL   UNL     1     104.293 120.982  81.189  0.00  0.00    +0.000 Cl
ENDBRANCH   5   8
ENDBRANCH   1   2
BRANCH   1  10
ATOM     10  O   UNL     1     102.470 127.409  83.119  0.00  0.00    +0.000 OA
BRANCH  10  14
ATOM     11  C   UNL     1      98.353 127.990  82.860  0.00  0.00    +0.000 A 
ATOM     12  C   UNL     1      99.126 128.995  83.439  0.00  0.00    +0.000 A 
ATOM     13  C   UNL     1     100.513 128.843  83.548  0.00  0.00    +0.000 A 
ATOM     14  C   UNL     1     101.131 127.684  83.076  0.00  0.00    +0.000 A 
ATOM     15  C   UNL     1     100.348 126.681  82.497  0.00  0.00    +0.000 A 
ATOM     16  C   UNL     1      98.964 126.831  82.388  0.00  0.00    +0.000 A 
ENDBRANCH  10  14
ENDBRANCH   1  10
TORSDOF 4
ENDMDL
