MODEL 1
REMARK VINA RESULT:      -4.9      0.000      0.000
REMARK  Name = *****
REMARK  4 active torsions:
REMARK  status: ('A' for Active; 'I' for Inactive)
REMARK    1  A    between atoms: C_1  and  C_2
REMARK    2  A    between atoms: C_5  and  C_8
REMARK    3  A    between atoms: C_8  and  C_9
REMARK    4  A    between atoms: C_9  and  C_11
REMARK                            x       y       z     vdW  Elec       q    Type
REMARK                         _______ _______ _______ _____ _____    ______ ____
ROOT
ATOM      1  C   UNL     1      88.835  70.135  86.598  0.00  0.00    +0.000 C 
ATOM      2  O   UNL     1      89.653  70.820  87.214  0.00  0.00    +0.000 OA
ENDROOT
BRANCH   1   3
ATOM      3  C   UNL     1      88.896  68.643  86.724  0.00  0.00    +0.000 A 
ATOM      4  C   UNL     1      89.962  67.880  86.230  0.00  0.00    +0.000 A 
ATOM      5  C   UNL     1      89.957  66.488  86.372  0.00  0.00    +0.000 A 
ATOM      6  C   UNL     1      88.893  65.855  87.011  0.00  0.00    +0.000 A 
ATOM      7  C   UNL     1      87.829  66.601  87.510  0.00  0.00    +0.000 A 
ATOM      8  C   UNL     1      87.831  67.991  87.366  0.00  0.00    +0.000 A 
ATOM      9 CL   UNL     1      88.893  64.144  87.182  0.00  0.00    +0.000 Cl
ENDBRANCH   1   3
BRANCH   1  10
ATOM     10  C   UNL     1      87.783  70.785  85.719  0.00  0.00    +0.000 C 
BRANCH  10  15
ATOM     11  C   UNL     1      83.166  72.951  88.547  0.00  0.00    +0.000 C 
ATOM     12  C   UNL     1      84.341  72.366  87.820  0.00  0.00    +0.000 A 
ATOM     13  C   UNL     1      85.411  71.818  88.534  0.00  0.00    +0.000 A 
ATOM     14  C   UNL     1      86.524  71.304  87.863  0.00  0.00    +0.000 A 
ATOM     15  C   UNL     1      86.582  71.320  86.463  0.00  0.00    +0.000 A 
ATOM     16  C   UNL     1      85.525  71.904  85.752  0.00  0.00    +0.000 A 
ATOM     17  C   UNL     1      84.415  72.423  86.425  0.00  0.00    +0.000 A 
ENDBRANCH  10  15
ENDBRANCH   1  10
TORSDOF 3
ENDMDL
