MODEL 1
REMARK VINA RESULT:      -3.7      0.000      0.000
REMARK  Name = *****
REMARK  5 active torsions:
REMARK  status: ('A' for Active; 'I' for Inactive)
REMARK    1  A    between atoms: C_6  and  O_7
REMARK    2  A    between atoms: O_7  and  C_8
REMARK    3  A    between atoms: C_8  and  O_10
REMARK    4  A    between atoms: O_10  and  C_11
REMARK    5  A    between atoms: C_11  and  C_12
REMARK                            x       y       z     vdW  Elec       q    Type
REMARK                         _______ _______ _______ _____ _____    ______ ____
ROOT
ATOM      1  O   UNL     1     103.414 126.373  81.895  0.00  0.00    +0.000 OA
ENDROOT
BRANCH   1   7
ATOM      2  C   UNL     1     101.030 126.454  82.330  0.00  0.00    +0.000 A 
ATOM      3  C   UNL     1      99.944 127.099  82.922  0.00  0.00    +0.000 A 
ATOM      4  C   UNL     1     100.144 128.288  83.625  0.00  0.00    +0.000 A 
ATOM      5  C   UNL     1     101.421 128.838  83.748  0.00  0.00    +0.000 A 
ATOM      6  C   UNL     1     102.510 128.198  83.155  0.00  0.00    +0.000 A 
ATOM      7  C   UNL     1     102.301 127.022  82.436  0.00  0.00    +0.000 A 
ATOM      8 CL   UNL     1      98.802 129.080  84.359  0.00  0.00    +0.000 Cl
ENDBRANCH   1   7
BRANCH   1   9
ATOM      9  C   UNL     1     103.479 126.430  80.515  0.00  0.00    +0.000 C 
ATOM     10  O   UNL     1     103.509 127.433  79.816  0.00  0.00    +0.000 OA
BRANCH   9  11
ATOM     11  O   UNL     1     103.499 125.155  80.047  0.00  0.00    +0.000 OA
BRANCH  11  12
ATOM     12  C   UNL     1     104.264 124.203  80.819  0.00  0.00    +0.000 C 
BRANCH  12  13
ATOM     13  C   UNL     1     105.723 124.083  80.340  0.00  0.00    +0.000 C 
ATOM     14 CL   UNL     1     106.277 122.380  80.450  0.00  0.00    +0.000 Cl
ATOM     15 CL   UNL     1     105.917 124.634  78.649  0.00  0.00    +0.000 Cl
ATOM     16 CL   UNL     1     106.778 125.084  81.390  0.00  0.00    +0.000 Cl
ENDBRANCH  12  13
ENDBRANCH  11  12
ENDBRANCH   9  11
ENDBRANCH   1   9
TORSDOF 5
ENDMDL
