MODEL 1
REMARK VINA RESULT:      -4.4      0.000      0.000
REMARK  Name = *****
REMARK  6 active torsions:
REMARK  status: ('A' for Active; 'I' for Inactive)
REMARK    1  A    between atoms: C_1  and  C_2
REMARK    2  A    between atoms: C_4  and  N_9
REMARK    3  A    between atoms: C_5  and  C_8
REMARK    4  A    between atoms: N_9  and  C_10
REMARK    5  A    between atoms: N_9  and  C_11
REMARK    6  A    between atoms: C_11  and  C_12
REMARK                            x       y       z     vdW  Elec       q    Type
REMARK                         _______ _______ _______ _____ _____    ______ ____
ROOT
ATOM      1  N   UNL     1      87.327  64.105  86.645  0.00  0.00    +0.000 N 
ATOM      2  C   UNL     1      86.503  63.778  85.485  0.00  0.00    +0.000 C 
ENDROOT
BRANCH   1   6
ATOM      3  C   UNL     1      91.788  64.296  84.635  0.00  0.00    +0.000 C 
ATOM      4  C   UNL     1      90.686  64.991  85.374  0.00  0.00    +0.000 A 
ATOM      5  C   UNL     1      89.504  64.310  85.689  0.00  0.00    +0.000 A 
ATOM      6  C   UNL     1      88.456  64.913  86.415  0.00  0.00    +0.000 A 
ATOM      7  C   UNL     1      88.608  66.254  86.819  0.00  0.00    +0.000 A 
ATOM      8  C   UNL     1      89.813  66.924  86.529  0.00  0.00    +0.000 A 
ATOM      9  C   UNL     1      90.840  66.302  85.819  0.00  0.00    +0.000 A 
ATOM     10  C   UNL     1      87.555  67.022  87.566  0.00  0.00    +0.000 C 
ENDBRANCH   1   6
BRANCH   1  11
ATOM     11  C   UNL     1      87.609  63.003  87.580  0.00  0.00    +0.000 C 
BRANCH  11  12
ATOM     12  C   UNL     1      87.744  63.499  89.006  0.00  0.00    +0.000 A 
ATOM     13  C   UNL     1      88.999  63.541  89.634  0.00  0.00    +0.000 A 
ATOM     14  C   UNL     1      89.119  63.967  90.957  0.00  0.00    +0.000 A 
ATOM     15  C   UNL     1      87.984  64.348  91.671  0.00  0.00    +0.000 A 
ATOM     16  C   UNL     1      86.731  64.300  91.064  0.00  0.00    +0.000 A 
ATOM     17  C   UNL     1      86.610  63.876  89.739  0.00  0.00    +0.000 A 
ENDBRANCH  11  12
ENDBRANCH   1  11
TORSDOF 3
ENDMDL
