MODEL 1
REMARK VINA RESULT:      -4.8      0.000      0.000
REMARK  Name = *****
REMARK  5 active torsions:
REMARK  status: ('A' for Active; 'I' for Inactive)
REMARK    1  A    between atoms: C_1  and  N_2
REMARK    2  A    between atoms: N_2  and  C_3
REMARK    3  A    between atoms: N_2  and  C_4
REMARK    4  A    between atoms: C_4  and  C_12
REMARK    5  A    between atoms: C_5  and  C_6
REMARK                            x       y       z     vdW  Elec       q    Type
REMARK                         _______ _______ _______ _____ _____    ______ ____
ROOT
ATOM      1  C   UNL     1     103.149 125.909  81.939  0.00  0.00    +0.000 C 
ATOM      2  C   UNL     1     101.902 125.839  82.450  0.00  0.00    +0.000 C 
ENDROOT
BRANCH   2   3
ATOM      3  C   UNL     1     100.991 126.950  82.748  0.00  0.00    +0.000 A 
ATOM      4  C   UNL     1      99.640 126.850  82.395  0.00  0.00    +0.000 A 
ATOM      5  C   UNL     1      98.754 127.884  82.701  0.00  0.00    +0.000 A 
ATOM      6  C   UNL     1      99.208 129.018  83.373  0.00  0.00    +0.000 A 
ATOM      7  C   UNL     1     100.550 129.119  83.741  0.00  0.00    +0.000 A 
ATOM      8  C   UNL     1     101.437 128.085  83.434  0.00  0.00    +0.000 A 
ENDBRANCH   2   3
BRANCH   1   9
ATOM      9  C   UNL     1     103.846 124.599  81.855  0.00  0.00    +0.000 A 
ATOM     10  C   UNL     1     104.310 124.130  80.617  0.00  0.00    +0.000 A 
ATOM     11  C   UNL     1     104.960 122.898  80.528  0.00  0.00    +0.000 A 
ATOM     12  C   UNL     1     105.151 122.126  81.673  0.00  0.00    +0.000 A 
ATOM     13  C   UNL     1     104.693 122.583  82.909  0.00  0.00    +0.000 A 
ATOM     14  C   UNL     1     104.042 123.815  82.999  0.00  0.00    +0.000 A 
ENDBRANCH   1   9
BRANCH   1  16
ATOM     15  C   UNL     1     103.587 127.598  80.135  0.00  0.00    +0.000 C 
ATOM     16  N   UNL     1     103.840 127.027  81.458  0.00  0.00    +0.000 N 
ATOM     17  C   UNL     1     105.038 127.556  82.116  0.00  0.00    +0.000 C 
ENDBRANCH   1  16
TORSDOF 3
ENDMDL
