MODEL 1
REMARK VINA RESULT:      -4.5      0.000      0.000
REMARK  Name = *****
REMARK  2 active torsions:
REMARK  status: ('A' for Active; 'I' for Inactive)
REMARK    1  A    between atoms: C_4  and  C_7
REMARK    2  A    between atoms: C_7  and  N_8
REMARK                            x       y       z     vdW  Elec       q    Type
REMARK                         _______ _______ _______ _____ _____    ______ ____
ROOT
ATOM      1  N   UNL     1     103.166 126.134  82.510  0.00  0.00    +0.000 NA
ATOM      2  S   UNL     1     103.874 125.724  81.054  0.00  0.00    +0.000 S 
ATOM      3  C   UNL     1     104.303 124.051  81.432  0.00  0.00    +0.000 A 
ATOM      4  C   UNL     1     104.766 123.103  80.527  0.00  0.00    +0.000 A 
ATOM      5  C   UNL     1     105.069 121.819  80.987  0.00  0.00    +0.000 A 
ATOM      6  C   UNL     1     104.911 121.499  82.341  0.00  0.00    +0.000 A 
ATOM      7  C   UNL     1     104.450 122.461  83.243  0.00  0.00    +0.000 A 
ATOM      8  C   UNL     1     104.148 123.734  82.774  0.00  0.00    +0.000 A 
ATOM      9  S   UNL     1     103.563 125.087  83.750  0.00  0.00    +0.000 S 
ENDROOT
BRANCH   1  10
ATOM     10  C   UNL     1     102.701 127.502  82.779  0.00  0.00    +0.000 C 
BRANCH  10  14
ATOM     11  C   UNL     1      98.411 127.931  83.083  0.00  0.00    +0.000 A 
ATOM     12  C   UNL     1      99.249 128.911  83.612  0.00  0.00    +0.000 A 
ATOM     13  C   UNL     1     100.634 128.772  83.515  0.00  0.00    +0.000 A 
ATOM     14  C   UNL     1     101.197 127.653  82.884  0.00  0.00    +0.000 A 
ATOM     15  C   UNL     1     100.341 126.671  82.362  0.00  0.00    +0.000 A 
ATOM     16  C   UNL     1      98.957 126.811  82.460  0.00  0.00    +0.000 A 
ENDBRANCH  10  14
ENDBRANCH   1  10
TORSDOF 2
ENDMDL
