MODEL 1
REMARK VINA RESULT:      -4.7      0.000      0.000
REMARK  Name = *****
REMARK  1 active torsions:
REMARK  status: ('A' for Active; 'I' for Inactive)
REMARK    1  A    between atoms: C_5  and  C_6
REMARK                            x       y       z     vdW  Elec       q    Type
REMARK                         _______ _______ _______ _____ _____    ______ ____
ROOT
ATOM      1  C   UNL     1     103.000 125.603  81.389  0.00  0.00    +0.000 C 
ATOM      2  C   UNL     1     103.511 125.106  82.762  0.00  0.00    +0.000 C 
ATOM      3  C   UNL     1     104.135 123.796  82.389  0.00  0.00    +0.000 A 
ATOM      4  C   UNL     1     104.499 122.759  83.232  0.00  0.00    +0.000 A 
ATOM      5  C   UNL     1     105.110 121.635  82.673  0.00  0.00    +0.000 A 
ATOM      6  C   UNL     1     105.358 121.567  81.293  0.00  0.00    +0.000 A 
ATOM      7  C   UNL     1     104.999 122.623  80.453  0.00  0.00    +0.000 A 
ATOM      8  C   UNL     1     104.382 123.728  81.015  0.00  0.00    +0.000 A 
ATOM      9  C   UNL     1     103.944 124.984  80.329  0.00  0.00    +0.000 C 
ENDROOT
BRANCH   1  14
ATOM     10  C   UNL     1     103.123 127.875  82.558  0.00  0.00    +0.000 C 
ATOM     11  C   UNL     1     104.389 128.614  82.279  0.00  0.00    +0.000 C 
ATOM     12  C   UNL     1     104.722 128.567  80.987  0.00  0.00    +0.000 C 
ATOM     13  C   UNL     1     103.740 127.783  80.181  0.00  0.00    +0.000 C 
ATOM     14  C   UNL     1     102.829 127.130  81.240  0.00  0.00    +0.000 C 
ENDBRANCH   1  14
TORSDOF 1
ENDMDL
