MODEL 1
REMARK VINA RESULT:      -4.6      0.000      0.000
REMARK  Name = *****
REMARK  5 active torsions:
REMARK  status: ('A' for Active; 'I' for Inactive)
REMARK    1  A    between atoms: C_1  and  C_2
REMARK    2  A    between atoms: C_2  and  O_3
REMARK    3  A    between atoms: O_3  and  C_4
REMARK    4  A    between atoms: C_4  and  C_12
REMARK    5  A    between atoms: N_5  and  C_6
REMARK                            x       y       z     vdW  Elec       q    Type
REMARK                         _______ _______ _______ _____ _____    ______ ____
ROOT
ATOM      1  C   UNL     1     102.640 126.026  81.966  0.00  0.00    +0.000 C 
ATOM      2  N   UNL     1     101.718 125.972  82.874  0.00  0.00    +0.000 NA
ENDROOT
BRANCH   2   3
ATOM      3  C   UNL     1     100.788 127.014  82.993  0.00  0.00    +0.000 A 
ATOM      4  C   UNL     1      99.502 126.911  82.453  0.00  0.00    +0.000 A 
ATOM      5  C   UNL     1      98.580 127.948  82.611  0.00  0.00    +0.000 A 
ATOM      6  C   UNL     1      98.936 129.091  83.326  0.00  0.00    +0.000 A 
ATOM      7  C   UNL     1     100.207 129.194  83.888  0.00  0.00    +0.000 A 
ATOM      8  C   UNL     1     101.126 128.153  83.727  0.00  0.00    +0.000 A 
ENDBRANCH   2   3
BRANCH   1   9
ATOM      9  C   UNL     1     103.599 124.916  81.722  0.00  0.00    +0.000 A 
ATOM     10  C   UNL     1     104.022 124.137  82.807  0.00  0.00    +0.000 A 
ATOM     11  C   UNL     1     104.923 123.088  82.613  0.00  0.00    +0.000 A 
ATOM     12  C   UNL     1     105.405 122.809  81.335  0.00  0.00    +0.000 A 
ATOM     13  C   UNL     1     104.986 123.577  80.248  0.00  0.00    +0.000 A 
ATOM     14  C   UNL     1     104.084 124.627  80.439  0.00  0.00    +0.000 A 
ENDBRANCH   1   9
BRANCH   1  15
ATOM     15  O   UNL     1     102.845 127.067  81.120  0.00  0.00    +0.000 OA
BRANCH  15  17
ATOM     16  C   UNL     1     104.548 128.528  80.267  0.00  0.00    +0.000 C 
ATOM     17  C   UNL     1     103.906 127.952  81.514  0.00  0.00    +0.000 C 
ENDBRANCH  15  17
ENDBRANCH   1  15
TORSDOF 4
ENDMDL
