MODEL 1
REMARK VINA RESULT:      -4.4      0.000      0.000
REMARK  Name = *****
REMARK  5 active torsions:
REMARK  status: ('A' for Active; 'I' for Inactive)
REMARK    1  A    between atoms: C_1  and  P_2
REMARK    2  A    between atoms: P_2  and  N_4
REMARK    3  A    between atoms: P_2  and  O_12
REMARK    4  A    between atoms: N_4  and  C_5
REMARK    5  A    between atoms: O_12  and  C_13
REMARK                            x       y       z     vdW  Elec       q    Type
REMARK                         _______ _______ _______ _____ _____    ______ ____
ROOT
ATOM      1  C   UNL     1     107.354 123.421  79.760  0.00  0.00    +0.000 C 
ATOM      2  P   UNL     1     105.789 124.359  79.631  0.00  0.00    +0.000 P 
ATOM      3  O   UNL     1     106.194 124.699  78.190  0.00  0.00    +0.000 OA
ENDROOT
BRANCH   2   4
ATOM      4  N   UNL     1     105.064 122.856  79.877  0.00  0.00    +0.000 N 
ATOM      5  H   UNL     1     104.776 122.354  79.081  0.00  0.00    +0.000 HD
BRANCH   4   6
ATOM      6  C   UNL     1     104.838 122.268  81.136  0.00  0.00    +0.000 A 
ATOM      7  C   UNL     1     104.776 123.095  82.268  0.00  0.00    +0.000 A 
ATOM      8  C   UNL     1     104.515 122.562  83.532  0.00  0.00    +0.000 A 
ATOM      9  C   UNL     1     104.287 121.199  83.663  0.00  0.00    +0.000 A 
ATOM     10  C   UNL     1     104.311 120.365  82.553  0.00  0.00    +0.000 A 
ATOM     11  C   UNL     1     104.579 120.900  81.289  0.00  0.00    +0.000 A 
ATOM     12  F   UNL     1     104.033 120.684  84.872  0.00  0.00    +0.000 F 
ENDBRANCH   4   6
ENDBRANCH   2   4
BRANCH   2  13
ATOM     13  O   UNL     1     104.309 125.247  79.509  0.00  0.00    +0.000 OA
BRANCH  13  14
ATOM     14  C   UNL     1     103.864 126.132  80.456  0.00  0.00    +0.000 A 
ATOM     15  C   UNL     1     102.775 125.723  81.227  0.00  0.00    +0.000 A 
ATOM     16  C   UNL     1     102.248 126.574  82.198  0.00  0.00    +0.000 A 
ATOM     17  C   UNL     1     102.827 127.825  82.403  0.00  0.00    +0.000 A 
ATOM     18  C   UNL     1     103.932 128.224  81.652  0.00  0.00    +0.000 A 
ATOM     19  C   UNL     1     104.458 127.371  80.679  0.00  0.00    +0.000 A 
ATOM     20 CL   UNL     1     102.174 128.883  83.594  0.00  0.00    +0.000 Cl
ENDBRANCH  13  14
ENDBRANCH   2  13
TORSDOF 4
ENDMDL
