MODEL 1
REMARK VINA RESULT:      -4.9      0.000      0.000
REMARK  Name = *****
REMARK  5 active torsions:
REMARK  status: ('A' for Active; 'I' for Inactive)
REMARK    1  A    between atoms: C_1  and  C_2
REMARK    2  A    between atoms: C_4  and  C_17
REMARK    3  A    between atoms: C_4  and  C_18
REMARK    4  A    between atoms: C_6  and  C_8
REMARK    5  A    between atoms: C_9  and  C_10
REMARK                            x       y       z     vdW  Elec       q    Type
REMARK                         _______ _______ _______ _____ _____    ______ ____
ROOT
ATOM      1  C   UNL     1     105.576 123.061  82.646  0.00  0.00    +0.000 C 
ATOM      2  C   UNL     1     104.705 123.112  81.399  0.00  0.00    +0.000 C 
ATOM      3  C   UNL     1     105.451 123.128  80.075  0.00  0.00    +0.000 C 
ATOM      4  C   UNL     1     105.994 124.509  79.710  0.00  0.00    +0.000 C 
ATOM      5  N   UNL     1     105.025 125.560  80.005  0.00  0.00    +0.000 NA
ATOM      6  C   UNL     1     104.065 125.357  80.826  0.00  0.00    +0.000 C 
ATOM      7  O   UNL     1     103.799 124.217  81.505  0.00  0.00    +0.000 OA
ATOM      8  C   UNL     1     107.307 124.854  80.424  0.00  0.00    +0.000 C 
ATOM      9  C   UNL     1     106.254 124.555  78.193  0.00  0.00    +0.000 C 
ENDROOT
BRANCH   6  10
ATOM     10  C   UNL     1     103.024 126.342  81.191  0.00  0.00    +0.000 C 
ATOM     11  C   UNL     1     102.139 126.063  82.159  0.00  0.00    +0.000 C 
BRANCH  11  12
ATOM     12  C   UNL     1     101.082 126.984  82.599  0.00  0.00    +0.000 A 
ATOM     13  C   UNL     1     101.364 128.189  83.259  0.00  0.00    +0.000 A 
ATOM     14  C   UNL     1     100.325 129.043  83.631  0.00  0.00    +0.000 A 
ATOM     15  C   UNL     1      99.000 128.719  83.345  0.00  0.00    +0.000 A 
ATOM     16  C   UNL     1      98.712 127.532  82.675  0.00  0.00    +0.000 A 
ATOM     17  C   UNL     1      99.749 126.673  82.299  0.00  0.00    +0.000 A 
ATOM     18 CL   UNL     1     100.684 130.517  84.447  0.00  0.00    +0.000 Cl
ENDBRANCH  11  12
ENDBRANCH   6  10
TORSDOF 2
ENDMDL
