MODEL 1
REMARK VINA RESULT:      -4.6      0.000      0.000
REMARK  Name = *****
REMARK  2 active torsions:
REMARK  status: ('A' for Active; 'I' for Inactive)
REMARK    1  A    between atoms: C_5  and  C_7
REMARK    2  A    between atoms: C_8  and  C_9
REMARK                            x       y       z     vdW  Elec       q    Type
REMARK                         _______ _______ _______ _____ _____    ______ ____
ROOT
ATOM      1  C   UNL     1      89.546  69.016  86.734  0.00  0.00    +0.000 C 
ATOM      2  C   UNL     1      88.956  67.813  86.835  0.00  0.00    +0.000 C 
ENDROOT
BRANCH   2   3
ATOM      3  C   UNL     1      89.581  66.552  86.411  0.00  0.00    +0.000 A 
ATOM      4  C   UNL     1      88.928  65.344  86.694  0.00  0.00    +0.000 A 
ATOM      5  C   UNL     1      89.478  64.127  86.282  0.00  0.00    +0.000 A 
ATOM      6  C   UNL     1      90.674  64.121  85.576  0.00  0.00    +0.000 A 
ATOM      7  C   UNL     1      91.329  65.307  85.271  0.00  0.00    +0.000 A 
ATOM      8  C   UNL     1      90.781  66.524  85.683  0.00  0.00    +0.000 A 
ATOM      9  F   UNL     1      91.199  62.955  85.179  0.00  0.00    +0.000 F 
ENDBRANCH   2   3
BRANCH   1  14
ATOM     10  C   UNL     1      87.332  71.269  88.921  0.00  0.00    +0.000 C 
ATOM     11  C   UNL     1      86.204  71.391  87.894  0.00  0.00    +0.000 C 
ATOM     12  C   UNL     1      86.683  71.251  86.480  0.00  0.00    +0.000 C 
ATOM     13  C   UNL     1      87.898  70.779  86.160  0.00  0.00    +0.000 C 
ATOM     14  C   UNL     1      88.903  70.306  87.181  0.00  0.00    +0.000 C 
ATOM     15  C   UNL     1      88.271  70.115  88.575  0.00  0.00    +0.000 C 
ENDBRANCH   1  14
TORSDOF 2
ENDMDL
