MODEL 1
REMARK VINA RESULT:      -5.0      0.000      0.000
REMARK  Name = *****
REMARK  2 active torsions:
REMARK  status: ('A' for Active; 'I' for Inactive)
REMARK    1  A    between atoms: C_4  and  C_7
REMARK    2  A    between atoms: C_8  and  C_9
REMARK                            x       y       z     vdW  Elec       q    Type
REMARK                         _______ _______ _______ _____ _____    ______ ____
ROOT
ATOM      1  C   UNL     1     103.750 124.739  81.957  0.00  0.00    +0.000 A 
ATOM      2  C   UNL     1     104.137 123.718  82.837  0.00  0.00    +0.000 A 
ATOM      3  C   UNL     1     104.915 122.642  82.413  0.00  0.00    +0.000 A 
ATOM      4  C   UNL     1     105.306 122.570  81.084  0.00  0.00    +0.000 A 
ATOM      5  C   UNL     1     104.929 123.548  80.176  0.00  0.00    +0.000 A 
ATOM      6  C   UNL     1     104.152 124.616  80.618  0.00  0.00    +0.000 A 
ATOM      7  F   UNL     1     103.793 125.546  79.719  0.00  0.00    +0.000 F 
ATOM      8  F   UNL     1     106.051 121.537  80.670  0.00  0.00    +0.000 F 
ATOM      9  F   UNL     1     103.757 123.738  84.124  0.00  0.00    +0.000 F 
ENDROOT
BRANCH   1  11
ATOM     10  C   UNL     1     101.566 125.927  82.244  0.00  0.00    +0.000 C 
ATOM     11  C   UNL     1     102.905 125.885  82.342  0.00  0.00    +0.000 C 
BRANCH  10  15
ATOM     12  C   UNL     1      99.257 129.284  83.551  0.00  0.00    +0.000 A 
ATOM     13  C   UNL     1      98.616 128.204  82.950  0.00  0.00    +0.000 A 
ATOM     14  C   UNL     1      99.358 127.104  82.511  0.00  0.00    +0.000 A 
ATOM     15  C   UNL     1     100.751 127.078  82.661  0.00  0.00    +0.000 A 
ATOM     16  C   UNL     1     101.382 128.163  83.283  0.00  0.00    +0.000 A 
ATOM     17  C   UNL     1     100.640 129.264  83.721  0.00  0.00    +0.000 A 
ENDBRANCH  10  15
ENDBRANCH   1  11
TORSDOF 2
ENDMDL
