REMARK  Name = *****
REMARK  2 active torsions:
REMARK  status: ('A' for Active; 'I' for Inactive)
REMARK    1  A    between atoms: C_3  and  C_7
REMARK    2  A    between atoms: C_8  and  C_9
REMARK                            x       y       z     vdW  Elec       q    Type
REMARK                         _______ _______ _______ _____ _____    ______ ____
ROOT
ATOM      1  C   UNL     1      -2.263   1.201  -4.075  0.00  0.00    +0.000 A 
ATOM      2  C   UNL     1      -3.461   1.028  -4.785  0.00  0.00    +0.000 A 
ATOM      3  C   UNL     1      -3.507   1.161  -6.170  0.00  0.00    +0.000 A 
ATOM      4  C   UNL     1      -2.358   1.481  -6.876  0.00  0.00    +0.000 A 
ATOM      5  C   UNL     1      -1.166   1.676  -6.196  0.00  0.00    +0.000 A 
ATOM      6  C   UNL     1      -1.118   1.544  -4.810  0.00  0.00    +0.000 A 
ATOM      7  F   UNL     1       0.049   1.771  -4.188  0.00  0.00    +0.000 F 
ATOM      8  F   UNL     1      -0.056   2.002  -6.874  0.00  0.00    +0.000 F 
ATOM      9  F   UNL     1      -2.402   1.611  -8.209  0.00  0.00    +0.000 F 
ATOM     10  F   UNL     1      -4.665   0.981  -6.821  0.00  0.00    +0.000 F 
ATOM     11  F   UNL     1      -4.592   0.725  -4.127  0.00  0.00    +0.000 F 
ENDROOT
BRANCH   1  13
ATOM     12  C   UNL     1      -1.266   0.590  -1.873  0.00  0.00    +0.000 C 
ATOM     13  C   UNL     1      -2.281   1.072  -2.609  0.00  0.00    +0.000 C 
BRANCH  12  16
ATOM     14  C   UNL     1       1.159   0.955   0.071  0.00  0.00    +0.000 C 
ATOM     15  C   UNL     1      -0.293   1.380   0.316  0.00  0.00    +0.000 C 
ATOM     16  C   UNL     1      -1.315   0.453  -0.363  0.00  0.00    +0.000 C 
ATOM     17  C   UNL     1      -1.093  -1.010   0.078  0.00  0.00    +0.000 C 
ATOM     18  C   UNL     1       0.353  -1.410   0.177  0.00  0.00    +0.000 C 
ATOM     19  C   UNL     1       1.364  -0.529   0.160  0.00  0.00    +0.000 C 
ENDBRANCH  12  16
ENDBRANCH   1  13
TORSDOF 2
