REMARK  Name = *****
REMARK  3 active torsions:
REMARK  status: ('A' for Active; 'I' for Inactive)
REMARK    1  A    between atoms: C_4  and  O_5
REMARK    2  A    between atoms: O_5  and  C_6
REMARK    3  A    between atoms: C_6  and  C_7
REMARK                            x       y       z     vdW  Elec       q    Type
REMARK                         _______ _______ _______ _____ _____    ______ ____
ROOT
ATOM      1  O   UNL     1       2.805   2.231   0.429  0.00  0.00    +0.000 OA
ENDROOT
BRANCH   1   5
ATOM      2  C   UNL     1      -1.046   1.039   0.063  0.00  0.00    +0.000 C 
ATOM      3  C   UNL     1       0.271   1.304  -0.679  0.00  0.00    +0.000 C 
ATOM      4  C   UNL     1       1.375   0.421  -0.150  0.00  0.00    +0.000 C 
ATOM      5  C   UNL     1       2.523   0.894   0.358  0.00  0.00    +0.000 C 
ATOM      6  C   UNL     1       1.067  -1.059  -0.193  0.00  0.00    +0.000 C 
ATOM      7  C   UNL     1      -0.366  -1.363   0.156  0.00  0.00    +0.000 C 
ATOM      8  C   UNL     1      -1.317  -0.424   0.286  0.00  0.00    +0.000 C 
ENDBRANCH   1   5
BRANCH   1   9
ATOM      9  C   UNL     1       4.173   2.498   0.741  0.00  0.00    +0.000 C 
BRANCH   9  10
ATOM     10  C   UNL     1       4.397   3.987   0.687  0.00  0.00    +0.000 A 
ATOM     11  C   UNL     1       4.461   4.746   1.863  0.00  0.00    +0.000 A 
ATOM     12  C   UNL     1       4.662   6.127   1.804  0.00  0.00    +0.000 A 
ATOM     13  C   UNL     1       4.793   6.762   0.570  0.00  0.00    +0.000 A 
ATOM     14  C   UNL     1       4.719   6.019  -0.606  0.00  0.00    +0.000 A 
ATOM     15  C   UNL     1       4.518   4.639  -0.549  0.00  0.00    +0.000 A 
ENDBRANCH   9  10
ENDBRANCH   1   9
TORSDOF 3
