MODEL 1
REMARK VINA RESULT:      -5.0      0.000      0.000
REMARK  Name = *****
REMARK  4 active torsions:
REMARK  status: ('A' for Active; 'I' for Inactive)
REMARK    1  A    between atoms: C_5  and  O_7
REMARK    2  A    between atoms: O_7  and  C_8
REMARK    3  A    between atoms: C_8  and  C_10
REMARK    4  A    between atoms: C_12  and  C_16
REMARK                            x       y       z     vdW  Elec       q    Type
REMARK                         _______ _______ _______ _____ _____    ______ ____
ROOT
ATOM      1  C   UNL     1     102.636 126.769  83.374  0.00  0.00    +0.000 C 
ATOM      2  O   UNL     1     103.672 127.373  83.610  0.00  0.00    +0.000 OA
ENDROOT
BRANCH   1   3
ATOM      3  C   UNL     1     101.312 127.441  83.250  0.00  0.00    +0.000 A 
ATOM      4  C   UNL     1     101.078 128.748  83.703  0.00  0.00    +0.000 A 
ATOM      5  C   UNL     1      99.808 129.339  83.568  0.00  0.00    +0.000 A 
ATOM      6  C   UNL     1      98.780 128.607  82.957  0.00  0.00    +0.000 A 
ATOM      7  C   UNL     1      99.007 127.307  82.502  0.00  0.00    +0.000 A 
ATOM      8  C   UNL     1     100.267 126.727  82.649  0.00  0.00    +0.000 A 
BRANCH   5   9
ATOM      9  C   UNL     1      99.571 130.754  84.039  0.00  0.00    +0.000 C 
ATOM     10  F   UNL     1     100.640 131.274  84.705  0.00  0.00    +0.000 F 
ATOM     11  F   UNL     1      99.319 131.606  83.010  0.00  0.00    +0.000 F 
ATOM     12  F   UNL     1      98.514 130.867  84.890  0.00  0.00    +0.000 F 
ENDBRANCH   5   9
ENDBRANCH   1   3
BRANCH   1  13
ATOM     13  O   UNL     1     102.492 125.411  83.167  0.00  0.00    +0.000 OA
BRANCH  13  18
ATOM     14  C   UNL     1     104.269 124.913  79.992  0.00  0.00    +0.000 A 
ATOM     15  C   UNL     1     105.161 123.894  80.336  0.00  0.00    +0.000 A 
ATOM     16  C   UNL     1     105.168 123.375  81.634  0.00  0.00    +0.000 A 
ATOM     17  C   UNL     1     104.288 123.879  82.591  0.00  0.00    +0.000 A 
ATOM     18  C   UNL     1     103.413 124.912  82.243  0.00  0.00    +0.000 A 
ATOM     19  C   UNL     1     103.386 125.422  80.944  0.00  0.00    +0.000 A 
ATOM     20 CL   UNL     1     104.292 123.197  84.175  0.00  0.00    +0.000 Cl
ENDBRANCH  13  18
ENDBRANCH   1  13
TORSDOF 4
ENDMDL
