MODEL 1
REMARK VINA RESULT:      -4.6      0.000      0.000
REMARK  Name = *****
REMARK  3 active torsions:
REMARK  status: ('A' for Active; 'I' for Inactive)
REMARK    1  A    between atoms: C_5  and  O_7
REMARK    2  A    between atoms: O_7  and  C_8
REMARK    3  A    between atoms: C_8  and  C_9
REMARK                            x       y       z     vdW  Elec       q    Type
REMARK                         _______ _______ _______ _____ _____    ______ ____
ROOT
ATOM      1  C   UNL     1     103.089 126.229  83.087  0.00  0.00    +0.000 A 
ATOM      2  C   UNL     1     103.491 124.900  82.944  0.00  0.00    +0.000 A 
ATOM      3  C   UNL     1     103.918 124.409  81.713  0.00  0.00    +0.000 A 
ATOM      4  C   UNL     1     103.954 125.245  80.606  0.00  0.00    +0.000 A 
ATOM      5  C   UNL     1     103.563 126.570  80.730  0.00  0.00    +0.000 A 
ATOM      6  C   UNL     1     103.137 127.058  81.963  0.00  0.00    +0.000 A 
ATOM      7  F   UNL     1     102.762 128.341  82.069  0.00  0.00    +0.000 F 
ATOM      8  F   UNL     1     103.593 127.383  79.664  0.00  0.00    +0.000 F 
ATOM      9  F   UNL     1     104.361 124.773  79.420  0.00  0.00    +0.000 F 
ATOM     10  F   UNL     1     104.291 123.126  81.596  0.00  0.00    +0.000 F 
ATOM     11  F   UNL     1     103.460 124.079  84.004  0.00  0.00    +0.000 F 
ENDROOT
BRANCH   1  12
ATOM     12  C   UNL     1     102.668 126.778  84.419  0.00  0.00    +0.000 C 
BRANCH  12  13
ATOM     13  O   UNL     1     101.244 126.655  84.495  0.00  0.00    +0.000 OA
BRANCH  13  18
ATOM     14  C   UNL     1     100.420 130.188  84.888  0.00  0.00    +0.000 A 
ATOM     15  C   UNL     1      99.434 130.354  83.916  0.00  0.00    +0.000 A 
ATOM     16  C   UNL     1      99.040 129.271  83.125  0.00  0.00    +0.000 A 
ATOM     17  C   UNL     1      99.640 128.022  83.302  0.00  0.00    +0.000 A 
ATOM     18  C   UNL     1     100.647 127.867  84.259  0.00  0.00    +0.000 A 
ATOM     19  C   UNL     1     101.022 128.944  85.067  0.00  0.00    +0.000 A 
ATOM     20 CL   UNL     1      99.109 126.704  82.325  0.00  0.00    +0.000 Cl
ENDBRANCH  13  18
ENDBRANCH  12  13
ENDBRANCH   1  12
TORSDOF 3
ENDMDL
