MODEL 1
REMARK VINA RESULT:      -4.0      0.000      0.000
REMARK  Name = *****
REMARK  4 active torsions:
REMARK  status: ('A' for Active; 'I' for Inactive)
REMARK    1  A    between atoms: C_3  and  C_7
REMARK    2  A    between atoms: C_7  and  O_8
REMARK    3  A    between atoms: O_8  and  C_9
REMARK    4  A    between atoms: C_9  and  C_10
REMARK                            x       y       z     vdW  Elec       q    Type
REMARK                         _______ _______ _______ _____ _____    ______ ____
ROOT
ATOM      1  O   UNL     1     103.605 128.577  82.707  0.00  0.00    +0.000 OA
ENDROOT
BRANCH   1   2
ATOM      2  C   UNL     1     104.639 127.688  82.286  0.00  0.00    +0.000 C 
BRANCH   2   5
ATOM      3  C   UNL     1     103.363 125.557  80.384  0.00  0.00    +0.000 C 
ATOM      4  C   UNL     1     103.470 127.060  80.101  0.00  0.00    +0.000 C 
ATOM      5  C   UNL     1     104.713 127.693  80.751  0.00  0.00    +0.000 C 
ATOM      6  C   UNL     1     105.985 126.980  80.255  0.00  0.00    +0.000 C 
ATOM      7  C   UNL     1     105.859 125.483  80.220  0.00  0.00    +0.000 C 
ATOM      8  C   UNL     1     104.681 124.845  80.292  0.00  0.00    +0.000 C 
ENDBRANCH   2   5
ENDBRANCH   1   2
BRANCH   1   9
ATOM      9  C   UNL     1     102.820 128.015  83.758  0.00  0.00    +0.000 C 
BRANCH   9  10
ATOM     10  C   UNL     1     101.367 127.972  83.352  0.00  0.00    +0.000 A 
ATOM     11  C   UNL     1     100.830 126.846  82.712  0.00  0.00    +0.000 A 
ATOM     12  C   UNL     1      99.476 126.795  82.376  0.00  0.00    +0.000 A 
ATOM     13  C   UNL     1      98.641 127.867  82.686  0.00  0.00    +0.000 A 
ATOM     14  C   UNL     1      99.158 128.987  83.333  0.00  0.00    +0.000 A 
ATOM     15  C   UNL     1     100.514 129.038  83.669  0.00  0.00    +0.000 A 
ENDBRANCH   9  10
ENDBRANCH   1   9
TORSDOF 4
ENDMDL
