MODEL 1
REMARK VINA RESULT:      -4.6      0.000      0.000
REMARK  Name = *****
REMARK  6 active torsions:
REMARK  status: ('A' for Active; 'I' for Inactive)
REMARK    1  A    between atoms: C_1  and  N_2
REMARK    2  A    between atoms: N_2  and  C_3
REMARK    3  A    between atoms: N_2  and  C_4
REMARK    4  A    between atoms: C_7  and  C_10
REMARK    5  A    between atoms: C_10  and  C_11
REMARK    6  A    between atoms: C_11  and  C_12
REMARK                            x       y       z     vdW  Elec       q    Type
REMARK                         _______ _______ _______ _____ _____    ______ ____
ROOT
ATOM      1  C   UNL     1      89.024  65.613  86.568  0.00  0.00    +0.000 A 
ATOM      2  C   UNL     1      87.939  66.276  87.169  0.00  0.00    +0.000 A 
ATOM      3  C   UNL     1      87.905  67.670  87.325  0.00  0.00    +0.000 A 
ATOM      4  C   UNL     1      88.960  68.461  86.874  0.00  0.00    +0.000 A 
ATOM      5  C   UNL     1      90.043  67.831  86.262  0.00  0.00    +0.000 A 
ATOM      6  C   UNL     1      90.064  66.437  86.107  0.00  0.00    +0.000 A 
ENDROOT
BRANCH   1   8
ATOM      7  C   UNL     1      89.913  63.661  85.376  0.00  0.00    +0.000 C 
ATOM      8  N   UNL     1      89.035  64.222  86.402  0.00  0.00    +0.000 N 
ATOM      9  C   UNL     1      87.823  63.456  86.680  0.00  0.00    +0.000 C 
ENDBRANCH   1   8
BRANCH   4  10
ATOM     10  C   UNL     1      88.936  69.958  87.053  0.00  0.00    +0.000 C 
BRANCH  10  11
ATOM     11  C   UNL     1      87.994  70.380  88.185  0.00  0.00    +0.000 C 
BRANCH  11  12
ATOM     12  C   UNL     1      86.781  71.113  87.662  0.00  0.00    +0.000 A 
ATOM     13  C   UNL     1      85.795  71.577  88.546  0.00  0.00    +0.000 A 
ATOM     14  C   UNL     1      84.668  72.239  88.061  0.00  0.00    +0.000 A 
ATOM     15  C   UNL     1      84.524  72.436  86.692  0.00  0.00    +0.000 A 
ATOM     16  C   UNL     1      85.487  71.981  85.800  0.00  0.00    +0.000 A 
ATOM     17  C   UNL     1      86.615  71.317  86.283  0.00  0.00    +0.000 A 
ATOM     18  F   UNL     1      83.442  73.072  86.226  0.00  0.00    +0.000 F 
ENDBRANCH  11  12
ENDBRANCH  10  11
ENDBRANCH   4  10
TORSDOF 4
ENDMDL
