REMARK  Name = *****
REMARK  5 active torsions:
REMARK  status: ('A' for Active; 'I' for Inactive)
REMARK    1  A    between atoms: C_1  and  C_2
REMARK    2  A    between atoms: C_5  and  N_8
REMARK    3  A    between atoms: N_8  and  C_9
REMARK    4  A    between atoms: C_9  and  C_11
REMARK    5  A    between atoms: C_12  and  C_16
REMARK                            x       y       z     vdW  Elec       q    Type
REMARK                         _______ _______ _______ _____ _____    ______ ____
ROOT
ATOM      1  N   UNL     1      -2.963   0.103  -0.382  0.00  0.00    +0.000 N 
ATOM      2  H   UNL     1      -3.429  -0.632   0.077  0.00  0.00    +0.000 HD
ENDROOT
BRANCH   1   7
ATOM      3  C   UNL     1       2.644  -0.136   0.813  0.00  0.00    +0.000 C 
ATOM      4  C   UNL     1       1.180  -0.033   0.505  0.00  0.00    +0.000 A 
ATOM      5  C   UNL     1       0.721   0.847  -0.479  0.00  0.00    +0.000 A 
ATOM      6  C   UNL     1      -0.642   0.924  -0.795  0.00  0.00    +0.000 A 
ATOM      7  C   UNL     1      -1.573   0.123  -0.138  0.00  0.00    +0.000 A 
ATOM      8  C   UNL     1      -1.103  -0.779   0.829  0.00  0.00    +0.000 A 
ATOM      9  C   UNL     1       0.257  -0.859   1.147  0.00  0.00    +0.000 A 
ENDBRANCH   1   7
BRANCH   1  10
ATOM     10  C   UNL     1      -3.810   0.904  -1.133  0.00  0.00    +0.000 C 
ATOM     11  S   UNL     1      -3.503   2.354  -1.896  0.00  0.00    +0.000 S 
BRANCH  10  12
ATOM     12  C   UNL     1      -5.193   0.392  -1.138  0.00  0.00    +0.000 A 
ATOM     13  C   UNL     1      -6.201   0.522  -2.095  0.00  0.00    +0.000 A 
ATOM     14  S   UNL     1      -7.585  -0.312  -1.501  0.00  0.00    +0.000 S 
ATOM     15  N   UNL     1      -6.814  -0.833  -0.123  0.00  0.00    +0.000 NA
ATOM     16  N   UNL     1      -5.567  -0.416  -0.047  0.00  0.00    +0.000 NA
ATOM     17  C   UNL     1      -6.259   1.182  -3.426  0.00  0.00    +0.000 C 
ENDBRANCH  10  12
ENDBRANCH   1  10
TORSDOF 3
