MODEL 1
REMARK VINA RESULT:      -5.2      0.000      0.000
REMARK  Name = *****
REMARK  1 active torsions:
REMARK  status: ('A' for Active; 'I' for Inactive)
REMARK    1  A    between atoms: C_5  and  C_6
REMARK                            x       y       z     vdW  Elec       q    Type
REMARK                         _______ _______ _______ _____ _____    ______ ____
ROOT
ATOM      1  C   UNL     1      86.903  69.020  88.906  0.00  0.00    +0.000 C 
ATOM      2  C   UNL     1      87.099  70.520  89.221  0.00  0.00    +0.000 C 
ATOM      3  C   UNL     1      88.309  70.856  88.331  0.00  0.00    +0.000 C 
ATOM      4  C   UNL     1      87.652  70.379  87.019  0.00  0.00    +0.000 C 
ATOM      5  C   UNL     1      87.236  68.921  87.376  0.00  0.00    +0.000 C 
ATOM      6  C   UNL     1      86.398  71.222  87.099  0.00  0.00    +0.000 A 
ATOM      7  C   UNL     1      85.624  71.807  86.122  0.00  0.00    +0.000 A 
ATOM      8  C   UNL     1      84.480  72.495  86.536  0.00  0.00    +0.000 A 
ATOM      9  C   UNL     1      84.132  72.572  87.900  0.00  0.00    +0.000 A 
ATOM     10  C   UNL     1      84.920  71.964  88.882  0.00  0.00    +0.000 A 
ATOM     11  C   UNL     1      86.051  71.299  88.461  0.00  0.00    +0.000 A 
ENDROOT
BRANCH   5  12
ATOM     12  C   UNL     1      88.278  67.907  86.946  0.00  0.00    +0.000 A 
ATOM     13  C   UNL     1      89.378  68.217  86.134  0.00  0.00    +0.000 A 
ATOM     14  C   UNL     1      90.291  67.228  85.756  0.00  0.00    +0.000 A 
ATOM     15  C   UNL     1      90.116  65.912  86.176  0.00  0.00    +0.000 A 
ATOM     16  C   UNL     1      89.024  65.583  86.972  0.00  0.00    +0.000 A 
ATOM     17  C   UNL     1      88.112  66.570  87.351  0.00  0.00    +0.000 A 
ENDBRANCH   5  12
TORSDOF 1
ENDMDL
