MODEL 1
REMARK VINA RESULT:      -4.2      0.000      0.000
REMARK  Name = *****
REMARK  3 active torsions:
REMARK  status: ('A' for Active; 'I' for Inactive)
REMARK    1  A    between atoms: C_1  and  C_2
REMARK    2  A    between atoms: C_2  and  C_8
REMARK    3  A    between atoms: C_9  and  C_10
REMARK                            x       y       z     vdW  Elec       q    Type
REMARK                         _______ _______ _______ _____ _____    ______ ____
ROOT
ATOM      1  C   UNL     1     103.355 126.151  82.478  0.00  0.00    +0.000 C 
ATOM      2  C   UNL     1     102.034 125.996  82.269  0.00  0.00    +0.000 C 
ENDROOT
BRANCH   1   4
ATOM      3  C   UNL     1     105.883 125.772  82.344  0.00  0.00    +0.000 C 
ATOM      4  C   UNL     1     104.481 125.196  82.099  0.00  0.00    +0.000 C 
ATOM      5  S   UNL     1     104.203 123.692  83.126  0.00  0.00    +0.000 S 
ATOM      6  C   UNL     1     105.419 122.551  82.418  0.00  0.00    +0.000 C 
ATOM      7  C   UNL     1     105.203 122.287  80.936  0.00  0.00    +0.000 C 
ATOM      8  C   UNL     1     105.441 123.502  80.052  0.00  0.00    +0.000 C 
ATOM      9  S   UNL     1     104.230 124.825  80.314  0.00  0.00    +0.000 S 
ENDBRANCH   1   4
BRANCH   2  10
ATOM     10  C   UNL     1     101.024 126.985  82.674  0.00  0.00    +0.000 A 
ATOM     11  C   UNL     1     101.368 128.181  83.318  0.00  0.00    +0.000 A 
ATOM     12  C   UNL     1     100.384 129.113  83.658  0.00  0.00    +0.000 A 
ATOM     13  C   UNL     1      99.049 128.863  83.349  0.00  0.00    +0.000 A 
ATOM     14  C   UNL     1      98.697 127.684  82.695  0.00  0.00    +0.000 A 
ATOM     15  C   UNL     1      99.681 126.752  82.354  0.00  0.00    +0.000 A 
ENDBRANCH   2  10
TORSDOF 2
ENDMDL
