MODEL 1
REMARK VINA RESULT:      -4.6      0.000      0.000
REMARK  Name = *****
REMARK  3 active torsions:
REMARK  status: ('A' for Active; 'I' for Inactive)
REMARK    1  A    between atoms: C_5  and  C_7
REMARK    2  A    between atoms: C_7  and  O_8
REMARK    3  A    between atoms: O_8  and  C_9
REMARK                            x       y       z     vdW  Elec       q    Type
REMARK                         _______ _______ _______ _____ _____    ______ ____
ROOT
ATOM      1  C   UNL     1     103.025 125.427  82.621  0.00  0.00    +0.000 C 
ENDROOT
BRANCH   1   6
ATOM      2  C   UNL     1     104.980 122.788  80.517  0.00  0.00    +0.000 C 
ATOM      3  C   UNL     1     105.922 123.733  79.787  0.00  0.00    +0.000 C 
ATOM      4  C   UNL     1     105.186 124.998  79.350  0.00  0.00    +0.000 C 
ATOM      5  C   UNL     1     104.274 125.555  80.411  0.00  0.00    +0.000 C 
ATOM      6  C   UNL     1     103.915 124.882  81.523  0.00  0.00    +0.000 C 
ATOM      7  C   UNL     1     104.385 123.459  81.755  0.00  0.00    +0.000 C 
ATOM      8 CL   UNL     1     103.725 127.166  80.074  0.00  0.00    +0.000 Cl
ENDBRANCH   1   6
BRANCH   1   9
ATOM      9  O   UNL     1     101.728 125.659  82.067  0.00  0.00    +0.000 OA
BRANCH   9  10
ATOM     10  C   UNL     1     101.029 126.735  82.539  0.00  0.00    +0.000 A 
ATOM     11  C   UNL     1      99.644 126.902  82.496  0.00  0.00    +0.000 A 
ATOM     12  C   UNL     1      99.059 128.061  83.020  0.00  0.00    +0.000 A 
ATOM     13  C   UNL     1      99.859 129.052  83.583  0.00  0.00    +0.000 A 
ATOM     14  C   UNL     1     101.241 128.897  83.628  0.00  0.00    +0.000 A 
ATOM     15  C   UNL     1     101.822 127.739  83.105  0.00  0.00    +0.000 A 
ATOM     16 CL   UNL     1      99.136 130.474  84.226  0.00  0.00    +0.000 Cl
ENDBRANCH   9  10
ENDBRANCH   1   9
TORSDOF 3
ENDMDL
