REMARK  Name = *****
REMARK  4 active torsions:
REMARK  status: ('A' for Active; 'I' for Inactive)
REMARK    1  A    between atoms: C_1  and  C_2
REMARK    2  A    between atoms: C_4  and  S_8
REMARK    3  A    between atoms: S_8  and  C_9
REMARK    4  A    between atoms: C_9  and  C_10
REMARK                            x       y       z     vdW  Elec       q    Type
REMARK                         _______ _______ _______ _____ _____    ______ ____
ROOT
ATOM      1  S   UNL     1      -1.736   1.408  -2.020  0.00  0.00    +0.000 S 
ENDROOT
BRANCH   1   5
ATOM      2  C   UNL     1       2.539  -0.051  -0.001  0.00  0.00    +0.000 C 
ATOM      3  C   UNL     1       1.039  -0.001  -0.021  0.00  0.00    +0.000 C 
ATOM      4  C   UNL     1       0.366   1.131  -0.305  0.00  0.00    +0.000 C 
ATOM      5  C   UNL     1      -1.135   1.249  -0.296  0.00  0.00    +0.000 C 
ATOM      6  C   UNL     1      -1.806   0.045   0.387  0.00  0.00    +0.000 C 
ATOM      7  C   UNL     1      -1.164  -1.282  -0.012  0.00  0.00    +0.000 C 
ATOM      8  C   UNL     1       0.334  -1.296   0.301  0.00  0.00    +0.000 C 
ENDBRANCH   1   5
BRANCH   1   9
ATOM      9  C   UNL     1      -1.268   3.135  -2.346  0.00  0.00    +0.000 C 
BRANCH   9  10
ATOM     10  C   UNL     1      -1.772   3.600  -3.689  0.00  0.00    +0.000 A 
ATOM     11  C   UNL     1      -3.007   4.256  -3.799  0.00  0.00    +0.000 A 
ATOM     12  C   UNL     1      -3.474   4.681  -5.044  0.00  0.00    +0.000 A 
ATOM     13  C   UNL     1      -2.716   4.451  -6.191  0.00  0.00    +0.000 A 
ATOM     14  C   UNL     1      -1.493   3.791  -6.095  0.00  0.00    +0.000 A 
ATOM     15  C   UNL     1      -1.023   3.365  -4.851  0.00  0.00    +0.000 A 
ENDBRANCH   9  10
ENDBRANCH   1   9
TORSDOF 3
