MODEL 1
REMARK VINA RESULT:      -4.2      0.000      0.000
REMARK  Name = *****
REMARK  3 active torsions:
REMARK  status: ('A' for Active; 'I' for Inactive)
REMARK    1  A    between atoms: C_5  and  C_6
REMARK    2  A    between atoms: C_6  and  O_8
REMARK    3  A    between atoms: O_8  and  C_9
REMARK                            x       y       z     vdW  Elec       q    Type
REMARK                         _______ _______ _______ _____ _____    ______ ____
ROOT
ATOM      1  C   UNL     1     103.337 126.075  82.256  0.00  0.00    +0.000 A 
ATOM      2  C   UNL     1     103.661 126.076  80.896  0.00  0.00    +0.000 A 
ATOM      3  C   UNL     1     104.176 124.924  80.303  0.00  0.00    +0.000 A 
ATOM      4  C   UNL     1     104.374 123.781  81.080  0.00  0.00    +0.000 A 
ATOM      5  C   UNL     1     104.072 123.779  82.441  0.00  0.00    +0.000 A 
ATOM      6  C   UNL     1     103.557 124.933  83.032  0.00  0.00    +0.000 A 
ATOM      7 CL   UNL     1     103.215 124.918  84.723  0.00  0.00    +0.000 Cl
ATOM      8 CL   UNL     1     105.012 122.360  80.349  0.00  0.00    +0.000 Cl
ATOM      9 CL   UNL     1     103.449 127.485  79.924  0.00  0.00    +0.000 Cl
ENDROOT
BRANCH   1  10
ATOM     10  O   UNL     1     102.837 127.237  82.854  0.00  0.00    +0.000 OA
BRANCH  10  11
ATOM     11  C   UNL     1     101.446 127.289  82.811  0.00  0.00    +0.000 C 
ATOM     12  O   UNL     1     100.726 126.430  82.311  0.00  0.00    +0.000 OA
BRANCH  11  17
ATOM     13  C   UNL     1      99.577 128.997  83.386  0.00  0.00    +0.000 A 
ATOM     14  C   UNL     1      99.413 130.173  84.086  0.00  0.00    +0.000 A 
ATOM     15  S   UNL     1     100.868 130.694  84.811  0.00  0.00    +0.000 S 
ATOM     16  C   UNL     1     101.722 129.349  84.190  0.00  0.00    +0.000 A 
ATOM     17  C   UNL     1     100.926 128.502  83.438  0.00  0.00    +0.000 A 
ENDBRANCH  11  17
ENDBRANCH  10  11
ENDBRANCH   1  10
TORSDOF 3
ENDMDL
