REMARK  Name = *****
REMARK  5 active torsions:
REMARK  status: ('A' for Active; 'I' for Inactive)
REMARK    1  A    between atoms: C_1  and  C_2
REMARK    2  A    between atoms: C_3  and  C_21
REMARK    3  A    between atoms: C_5  and  N_8
REMARK    4  A    between atoms: C_9  and  C_11
REMARK    5  A    between atoms: C_14  and  C_17
REMARK                            x       y       z     vdW  Elec       q    Type
REMARK                         _______ _______ _______ _____ _____    ______ ____
ROOT
ATOM      1  N   UNL     1      -3.291  -1.054  -0.158  0.00  0.00    +0.000 N 
ATOM      2  C   UNL     1      -4.534  -0.449  -0.110  0.00  0.00    +0.000 C 
ATOM      3  O   UNL     1      -4.768   0.752  -0.069  0.00  0.00    +0.000 OA
ATOM      4  H   UNL     1      -3.284  -2.032  -0.277  0.00  0.00    +0.000 HD
ENDROOT
BRANCH   1   9
ATOM      5  C   UNL     1       1.958   1.228   0.284  0.00  0.00    +0.000 C 
ATOM      6  C   UNL     1       0.562   0.680   0.178  0.00  0.00    +0.000 A 
ATOM      7  C   UNL     1      -0.571   1.502   0.312  0.00  0.00    +0.000 A 
ATOM      8  C   UNL     1      -1.856   0.933   0.213  0.00  0.00    +0.000 A 
ATOM      9  C   UNL     1      -2.031  -0.425  -0.057  0.00  0.00    +0.000 A 
ATOM     10  C   UNL     1      -0.899  -1.227  -0.218  0.00  0.00    +0.000 A 
ATOM     11  C   UNL     1       0.383  -0.681  -0.106  0.00  0.00    +0.000 A 
ATOM     12  C   UNL     1      -0.460   2.971   0.624  0.00  0.00    +0.000 C 
ENDBRANCH   1   9
BRANCH   2  13
ATOM     13  C   UNL     1      -5.696  -1.384  -0.150  0.00  0.00    +0.000 A 
ATOM     14  C   UNL     1      -5.660  -2.638   0.473  0.00  0.00    +0.000 A 
ATOM     15  C   UNL     1      -6.786  -3.468   0.439  0.00  0.00    +0.000 A 
ATOM     16  C   UNL     1      -7.962  -3.055  -0.209  0.00  0.00    +0.000 A 
ATOM     17  C   UNL     1      -7.991  -1.792  -0.821  0.00  0.00    +0.000 A 
ATOM     18  C   UNL     1      -6.868  -0.961  -0.787  0.00  0.00    +0.000 A 
BRANCH  16  19
ATOM     19  C   UNL     1      -9.192  -3.932  -0.236  0.00  0.00    +0.000 C 
ATOM     20  F   UNL     1      -9.001  -5.153   0.338  0.00  0.00    +0.000 F 
ATOM     21  F   UNL     1     -10.244  -3.372   0.421  0.00  0.00    +0.000 F 
ATOM     22  F   UNL     1      -9.627  -4.179  -1.502  0.00  0.00    +0.000 F 
ENDBRANCH  16  19
ENDBRANCH   2  13
TORSDOF 3
