MODEL 1
REMARK VINA RESULT:      -3.9      0.000      0.000
REMARK  Name = *****
REMARK  3 active torsions:
REMARK  status: ('A' for Active; 'I' for Inactive)
REMARK    1  A    between atoms: C_4  and  C_6
REMARK    2  A    between atoms: C_6  and  S_8
REMARK    3  A    between atoms: S_8  and  C_9
REMARK                            x       y       z     vdW  Elec       q    Type
REMARK                         _______ _______ _______ _____ _____    ______ ____
ROOT
ATOM      1  S   UNL     1     104.005 127.454  82.235  0.00  0.00    +0.000 S 
ENDROOT
BRANCH   1   2
ATOM      2  C   UNL     1     102.276 127.549  82.646  0.00  0.00    +0.000 A 
ATOM      3  C   UNL     1     101.389 126.569  82.184  0.00  0.00    +0.000 A 
ATOM      4  C   UNL     1     100.036 126.624  82.533  0.00  0.00    +0.000 A 
ATOM      5  C   UNL     1      99.573 127.654  83.349  0.00  0.00    +0.000 A 
ATOM      6  C   UNL     1     100.449 128.629  83.819  0.00  0.00    +0.000 A 
ATOM      7  C   UNL     1     101.801 128.575  83.470  0.00  0.00    +0.000 A 
ATOM      8 CL   UNL     1      97.909 127.717  83.784  0.00  0.00    +0.000 Cl
ENDBRANCH   1   2
BRANCH   1   9
ATOM      9  C   UNL     1     103.948 126.929  80.548  0.00  0.00    +0.000 C 
ATOM     10  O   UNL     1     103.473 127.636  79.665  0.00  0.00    +0.000 OA
BRANCH   9  14
ATOM     11  C   UNL     1     104.991 123.412  80.287  0.00  0.00    +0.000 A 
ATOM     12  C   UNL     1     105.822 124.088  79.428  0.00  0.00    +0.000 A 
ATOM     13  O   UNL     1     105.535 125.414  79.434  0.00  0.00    +0.000 OA
ATOM     14  C   UNL     1     104.498 125.609  80.312  0.00  0.00    +0.000 A 
ATOM     15  C   UNL     1     104.138 124.387  80.855  0.00  0.00    +0.000 A 
ENDBRANCH   9  14
ENDBRANCH   1   9
TORSDOF 3
ENDMDL
