MODEL 1
REMARK VINA RESULT:      -4.3      0.000      0.000
REMARK  Name = *****
REMARK  3 active torsions:
REMARK  status: ('A' for Active; 'I' for Inactive)
REMARK    1  A    between atoms: C_4  and  C_7
REMARK    2  A    between atoms: C_8  and  P_9
REMARK    3  A    between atoms: P_9  and  C_10
REMARK                            x       y       z     vdW  Elec       q    Type
REMARK                         _______ _______ _______ _____ _____    ______ ____
ROOT
ATOM      1  C   UNL     1      89.726  66.845  86.432  0.00  0.00    +0.000 C 
ATOM      2  C   UNL     1      88.768  65.977  86.073  0.00  0.00    +0.000 C 
ENDROOT
BRANCH   1   6
ATOM      3  C   UNL     1      89.806  70.958  85.254  0.00  0.00    +0.000 A 
ATOM      4  C   UNL     1      89.602  70.632  86.593  0.00  0.00    +0.000 A 
ATOM      5  C   UNL     1      89.566  69.293  86.991  0.00  0.00    +0.000 A 
ATOM      6  C   UNL     1      89.724  68.265  86.050  0.00  0.00    +0.000 A 
ATOM      7  C   UNL     1      89.946  68.606  84.710  0.00  0.00    +0.000 A 
ATOM      8  C   UNL     1      89.981  69.946  84.312  0.00  0.00    +0.000 A 
ENDBRANCH   1   6
BRANCH   2   9
ATOM      9  P   UNL     1      88.881  64.243  86.599  0.00  0.00    +0.000 P 
ATOM     10  H   UNL     1      90.186  63.796  86.626  0.00  0.00    +0.000 HD
BRANCH   9  11
ATOM     11  C   UNL     1      88.182  64.396  88.266  0.00  0.00    +0.000 A 
ATOM     12  C   UNL     1      87.045  65.184  88.490  0.00  0.00    +0.000 A 
ATOM     13  C   UNL     1      86.502  65.303  89.772  0.00  0.00    +0.000 A 
ATOM     14  C   UNL     1      87.088  64.632  90.843  0.00  0.00    +0.000 A 
ATOM     15  C   UNL     1      88.216  63.842  90.633  0.00  0.00    +0.000 A 
ATOM     16  C   UNL     1      88.761  63.723  89.351  0.00  0.00    +0.000 A 
ENDBRANCH   9  11
ENDBRANCH   2   9
TORSDOF 3
ENDMDL
