REMARK  Name = *****
REMARK  5 active torsions:
REMARK  status: ('A' for Active; 'I' for Inactive)
REMARK    1  A    between atoms: C_1  and  O_2
REMARK    2  A    between atoms: O_2  and  C_3
REMARK    3  A    between atoms: C_6  and  C_9
REMARK    4  A    between atoms: C_9  and  C_10
REMARK    5  A    between atoms: C_10  and  C_11
REMARK                            x       y       z     vdW  Elec       q    Type
REMARK                         _______ _______ _______ _____ _____    ______ ____
ROOT
ATOM      1  C   UNL     1       4.894   4.855  -1.845  0.00  0.00    +0.000 C 
ENDROOT
BRANCH   1   5
ATOM      2  C   UNL     1       3.133   1.245  -0.239  0.00  0.00    +0.000 A 
ATOM      3  C   UNL     1       2.363   2.125  -1.000  0.00  0.00    +0.000 A 
ATOM      4  C   UNL     1       2.936   3.289  -1.525  0.00  0.00    +0.000 A 
ATOM      5  C   UNL     1       4.285   3.587  -1.298  0.00  0.00    +0.000 A 
ATOM      6  C   UNL     1       5.052   2.704  -0.531  0.00  0.00    +0.000 A 
ATOM      7  C   UNL     1       4.478   1.542  -0.010  0.00  0.00    +0.000 A 
BRANCH   2   9
ATOM      8  C   UNL     1       1.332  -0.258   0.141  0.00  0.00    +0.000 C 
ATOM      9  O   UNL     1       2.700   0.080   0.331  0.00  0.00    +0.000 OA
ENDBRANCH   2   9
ENDBRANCH   1   5
BRANCH   1  10
ATOM     10  C   UNL     1       4.587   6.061  -0.953  0.00  0.00    +0.000 C 
BRANCH  10  11
ATOM     11  C   UNL     1       5.240   7.320  -1.470  0.00  0.00    +0.000 A 
ATOM     12  C   UNL     1       4.642   8.056  -2.504  0.00  0.00    +0.000 A 
ATOM     13  C   UNL     1       5.254   9.211  -2.992  0.00  0.00    +0.000 A 
ATOM     14  C   UNL     1       6.463   9.628  -2.448  0.00  0.00    +0.000 A 
ATOM     15  C   UNL     1       7.073   8.911  -1.426  0.00  0.00    +0.000 A 
ATOM     16  C   UNL     1       6.463   7.755  -0.937  0.00  0.00    +0.000 A 
ATOM     17  F   UNL     1       7.050  10.737  -2.917  0.00  0.00    +0.000 F 
ENDBRANCH  10  11
ENDBRANCH   1  10
TORSDOF 4
