MODEL 1
REMARK VINA RESULT:      -4.5      0.000      0.000
REMARK  Name = *****
REMARK  4 active torsions:
REMARK  status: ('A' for Active; 'I' for Inactive)
REMARK    1  A    between atoms: C_4  and  C_7
REMARK    2  A    between atoms: C_7  and  S_8
REMARK    3  A    between atoms: S_8  and  C_9
REMARK    4  A    between atoms: C_14  and  C_15
REMARK                            x       y       z     vdW  Elec       q    Type
REMARK                         _______ _______ _______ _____ _____    ______ ____
ROOT
ATOM      1  C   UNL     1     100.712 128.130  83.966  0.00  0.00    +0.000 A 
ATOM      2  C   UNL     1     101.646 129.091  84.389  0.00  0.00    +0.000 A 
ATOM      3  C   UNL     1     101.297 130.442  84.477  0.00  0.00    +0.000 A 
ATOM      4  C   UNL     1     100.017 130.857  84.128  0.00  0.00    +0.000 A 
ATOM      5  C   UNL     1      99.080 129.921  83.694  0.00  0.00    +0.000 A 
ATOM      6  C   UNL     1      99.420 128.558  83.621  0.00  0.00    +0.000 A 
ENDROOT
BRANCH   6   7
ATOM      7  C   UNL     1      98.350 127.635  83.170  0.00  0.00    +0.000 C 
ATOM      8  O   UNL     1      98.299 127.397  81.965  0.00  0.00    +0.000 OA
ATOM      9 CL   UNL     1      97.172 127.083  84.338  0.00  0.00    +0.000 Cl
ENDBRANCH   6   7
BRANCH   1  10
ATOM     10  S   UNL     1     101.277 126.443  83.787  0.00  0.00    +0.000 S 
BRANCH  10  11
ATOM     11  C   UNL     1     101.807 126.489  82.041  0.00  0.00    +0.000 C 
BRANCH  11  15
ATOM     12  C   UNL     1     104.992 123.681  81.287  0.00  0.00    +0.000 A 
ATOM     13  C   UNL     1     104.460 123.803  82.569  0.00  0.00    +0.000 A 
ATOM     14  C   UNL     1     103.429 124.712  82.815  0.00  0.00    +0.000 A 
ATOM     15  C   UNL     1     102.914 125.501  81.776  0.00  0.00    +0.000 A 
ATOM     16  C   UNL     1     103.464 125.375  80.493  0.00  0.00    +0.000 A 
ATOM     17  C   UNL     1     104.496 124.467  80.250  0.00  0.00    +0.000 A 
ENDBRANCH  11  15
ENDBRANCH  10  11
ENDBRANCH   1  10
TORSDOF 4
ENDMDL
