MODEL 1
REMARK VINA RESULT:      -4.3      0.000      0.000
REMARK  Name = *****
REMARK  7 active torsions:
REMARK  status: ('A' for Active; 'I' for Inactive)
REMARK    1  A    between atoms: C_1  and  C_2
REMARK    2  A    between atoms: C_4  and  C_19
REMARK    3  A    between atoms: C_6  and  C_18
REMARK    4  A    between atoms: C_7  and  C_8
REMARK    5  A    between atoms: C_8  and  O_10
REMARK    6  A    between atoms: O_10  and  C_11
REMARK    7  A    between atoms: C_11  and  C_12
REMARK                            x       y       z     vdW  Elec       q    Type
REMARK                         _______ _______ _______ _____ _____    ______ ____
ROOT
ATOM      1  C   UNL     1      89.636  67.778  85.738  0.00  0.00    +0.000 C 
ATOM      2  O   UNL     1      90.535  67.486  86.514  0.00  0.00    +0.000 OA
ENDROOT
BRANCH   1   9
ATOM      3  C   UNL     1      85.918  66.818  86.085  0.00  0.00    +0.000 C 
ATOM      4  C   UNL     1      87.313  67.252  86.556  0.00  0.00    +0.000 C 
ATOM      5  C   UNL     1      87.656  66.595  87.909  0.00  0.00    +0.000 C 
ATOM      6  C   UNL     1      88.239  65.208  87.804  0.00  0.00    +0.000 C 
ATOM      7  C   UNL     1      88.684  64.696  86.643  0.00  0.00    +0.000 C 
ATOM      8  C   UNL     1      88.671  65.441  85.331  0.00  0.00    +0.000 C 
ATOM      9  C   UNL     1      88.380  66.952  85.478  0.00  0.00    +0.000 C 
ATOM     10  C   UNL     1      89.943  65.150  84.528  0.00  0.00    +0.000 C 
ATOM     11  C   UNL     1      88.301  64.430  89.088  0.00  0.00    +0.000 C 
ENDBRANCH   1   9
BRANCH   1  12
ATOM     12  O   UNL     1      89.608  68.901  84.963  0.00  0.00    +0.000 OA
BRANCH  12  13
ATOM     13  C   UNL     1      89.914  70.126  85.638  0.00  0.00    +0.000 C 
BRANCH  13  14
ATOM     14  C   UNL     1      88.747  70.528  86.503  0.00  0.00    +0.000 A 
ATOM     15  C   UNL     1      88.841  70.463  87.899  0.00  0.00    +0.000 A 
ATOM     16  C   UNL     1      87.753  70.817  88.698  0.00  0.00    +0.000 A 
ATOM     17  C   UNL     1      86.560  71.232  88.109  0.00  0.00    +0.000 A 
ATOM     18  C   UNL     1      86.451  71.289  86.721  0.00  0.00    +0.000 A 
ATOM     19  C   UNL     1      87.539  70.935  85.920  0.00  0.00    +0.000 A 
ENDBRANCH  13  14
ENDBRANCH  12  13
ENDBRANCH   1  12
TORSDOF 4
ENDMDL
