REMARK  Name = *****
REMARK  3 active torsions:
REMARK  status: ('A' for Active; 'I' for Inactive)
REMARK    1  A    between atoms: C_1  and  C_2
REMARK    2  A    between atoms: C_2  and  C_11
REMARK    3  A    between atoms: C_3  and  C_4
REMARK                            x       y       z     vdW  Elec       q    Type
REMARK                         _______ _______ _______ _____ _____    ______ ____
ROOT
ATOM      1  C   UNL     1       1.087   0.385   0.117  0.00  0.00    +0.000 C 
ATOM      2  C   UNL     1       2.551   0.031   0.103  0.00  0.00    +0.000 C 
ATOM      3  C   UNL     1       3.132  -0.899   0.889  0.00  0.00    +0.000 C 
ENDROOT
BRANCH   3   4
ATOM      4  C   UNL     1       2.433  -1.719   1.889  0.00  0.00    +0.000 A 
ATOM      5  C   UNL     1       1.997  -1.111   3.076  0.00  0.00    +0.000 A 
ATOM      6  C   UNL     1       1.337  -1.857   4.055  0.00  0.00    +0.000 A 
ATOM      7  C   UNL     1       1.108  -3.217   3.861  0.00  0.00    +0.000 A 
ATOM      8  C   UNL     1       1.541  -3.835   2.687  0.00  0.00    +0.000 A 
ATOM      9  C   UNL     1       2.203  -3.092   1.705  0.00  0.00    +0.000 A 
ATOM     10 CL   UNL     1       2.717  -3.919   0.275  0.00  0.00    +0.000 Cl
ENDBRANCH   3   4
BRANCH   2  11
ATOM     11  C   UNL     1       3.365   0.808  -0.858  0.00  0.00    +0.000 A 
ATOM     12  C   UNL     1       4.340   0.210  -1.656  0.00  0.00    +0.000 A 
ATOM     13  C   UNL     1       5.064   1.001  -2.546  0.00  0.00    +0.000 A 
ATOM     14  C   UNL     1       4.795   2.361  -2.619  0.00  0.00    +0.000 A 
ATOM     15  C   UNL     1       3.805   2.875  -1.799  0.00  0.00    +0.000 A 
ATOM     16  N   UNL     1       3.087   2.132  -0.929  0.00  0.00    +0.000 NA
ENDBRANCH   2  11
TORSDOF 2
