MODEL 1
REMARK VINA RESULT:      -4.5      0.000      0.000
REMARK  Name = *****
REMARK  3 active torsions:
REMARK  status: ('A' for Active; 'I' for Inactive)
REMARK    1  A    between atoms: C_6  and  C_7
REMARK    2  A    between atoms: C_7  and  N_8
REMARK    3  A    between atoms: N_8  and  C_9
REMARK                            x       y       z     vdW  Elec       q    Type
REMARK                         _______ _______ _______ _____ _____    ______ ____
ROOT
ATOM      1  N   UNL     1      88.800  70.062  86.616  0.00  0.00    +0.000 N 
ATOM      2  O   UNL     1      89.680  70.779  87.195  0.00  0.00    +0.000 OA
ENDROOT
BRANCH   1   3
ATOM      3  C   UNL     1      88.885  68.614  86.738  0.00  0.00    +0.000 A 
ATOM      4  C   UNL     1      87.851  67.885  87.342  0.00  0.00    +0.000 A 
ATOM      5  C   UNL     1      87.956  66.496  87.429  0.00  0.00    +0.000 A 
ATOM      6  C   UNL     1      89.075  65.854  86.906  0.00  0.00    +0.000 A 
ATOM      7  C   UNL     1      90.096  66.573  86.288  0.00  0.00    +0.000 A 
ATOM      8  C   UNL     1      90.001  67.962  86.197  0.00  0.00    +0.000 A 
ATOM      9  F   UNL     1      89.168  64.521  86.990  0.00  0.00    +0.000 F 
ENDBRANCH   1   3
BRANCH   1  10
ATOM     10  C   UNL     1      87.799  70.552  85.920  0.00  0.00    +0.000 C 
BRANCH  10  16
ATOM     11  C   UNL     1      86.310  71.334  87.825  0.00  0.00    +0.000 A 
ATOM     12  C   UNL     1      85.140  71.980  88.241  0.00  0.00    +0.000 A 
ATOM     13  C   UNL     1      84.265  72.512  87.296  0.00  0.00    +0.000 A 
ATOM     14  C   UNL     1      84.548  72.401  85.937  0.00  0.00    +0.000 A 
ATOM     15  C   UNL     1      85.715  71.756  85.521  0.00  0.00    +0.000 A 
ATOM     16  C   UNL     1      86.608  71.228  86.464  0.00  0.00    +0.000 A 
ATOM     17 CL   UNL     1      82.827  73.303  87.809  0.00  0.00    +0.000 Cl
ENDBRANCH  10  16
ENDBRANCH   1  10
TORSDOF 3
ENDMDL
