MODEL 1
REMARK VINA RESULT:      -4.5      0.000      0.000
REMARK  Name = *****
REMARK  4 active torsions:
REMARK  status: ('A' for Active; 'I' for Inactive)
REMARK    1  A    between atoms: C_4  and  C_7
REMARK    2  A    between atoms: C_7  and  C_8
REMARK    3  A    between atoms: C_8  and  C_9
REMARK    4  A    between atoms: C_12  and  P_15
REMARK                            x       y       z     vdW  Elec       q    Type
REMARK                         _______ _______ _______ _____ _____    ______ ____
ROOT
ATOM      1  C   UNL     1     103.002 127.109  81.439  0.00  0.00    +0.000 C 
ENDROOT
BRANCH   1   2
ATOM      2  C   UNL     1     103.587 125.721  81.532  0.00  0.00    +0.000 A 
ATOM      3  C   UNL     1     104.044 125.066  80.381  0.00  0.00    +0.000 A 
ATOM      4  C   UNL     1     104.570 123.772  80.460  0.00  0.00    +0.000 A 
ATOM      5  C   UNL     1     104.640 123.119  81.693  0.00  0.00    +0.000 A 
ATOM      6  C   UNL     1     104.181 123.765  82.846  0.00  0.00    +0.000 A 
ATOM      7  C   UNL     1     103.655 125.059  82.764  0.00  0.00    +0.000 A 
BRANCH   5   8
ATOM      8  P   UNL     1     105.294 121.477  81.881  0.00  0.00    +0.000 P 
ATOM      9  O   UNL     1     104.185 120.664  81.102  0.00  0.00    +0.000 OA
ENDBRANCH   5   8
ENDBRANCH   1   2
BRANCH   1  10
ATOM     10  C   UNL     1     102.568 127.632  82.812  0.00  0.00    +0.000 C 
BRANCH  10  14
ATOM     11  C   UNL     1      98.278 127.914  83.153  0.00  0.00    +0.000 A 
ATOM     12  C   UNL     1      99.087 128.928  83.662  0.00  0.00    +0.000 A 
ATOM     13  C   UNL     1     100.475 128.841  83.547  0.00  0.00    +0.000 A 
ATOM     14  C   UNL     1     101.066 127.738  82.917  0.00  0.00    +0.000 A 
ATOM     15  C   UNL     1     100.246 126.720  82.414  0.00  0.00    +0.000 A 
ATOM     16  C   UNL     1      98.858 126.809  82.530  0.00  0.00    +0.000 A 
ENDBRANCH  10  14
ENDBRANCH   1  10
TORSDOF 4
ENDMDL
