REMARK  Name = *****
REMARK  3 active torsions:
REMARK  status: ('A' for Active; 'I' for Inactive)
REMARK    1  A    between atoms: C_4  and  P_7
REMARK    2  A    between atoms: P_7  and  P_8
REMARK    3  A    between atoms: P_8  and  C_9
REMARK                            x       y       z     vdW  Elec       q    Type
REMARK                         _______ _______ _______ _____ _____    ______ ____
ROOT
ATOM      1  P   UNL     1       2.929  -1.011  -1.065  0.00  0.00    +0.000 P 
ATOM      2  H   UNL     1       3.867   0.000  -1.088  0.00  0.00    +0.000 HD
ENDROOT
BRANCH   1   6
ATOM      3  C   UNL     1      -1.411   0.416  -0.017  0.00  0.00    +0.000 C 
ATOM      4  C   UNL     1      -1.062  -1.042   0.259  0.00  0.00    +0.000 C 
ATOM      5  C   UNL     1       0.216  -1.465  -0.464  0.00  0.00    +0.000 C 
ATOM      6  C   UNL     1       1.394  -0.543  -0.112  0.00  0.00    +0.000 C 
ATOM      7  C   UNL     1       1.031   0.924  -0.408  0.00  0.00    +0.000 C 
ATOM      8  C   UNL     1      -0.247   1.343   0.317  0.00  0.00    +0.000 C 
ENDBRANCH   1   6
BRANCH   1   9
ATOM      9  P   UNL     1       3.554  -2.759   0.278  0.00  0.00    +0.000 P 
ATOM     10  H   UNL     1       2.639  -3.792   0.245  0.00  0.00    +0.000 HD
BRANCH   9  11
ATOM     11  C   UNL     1       5.112  -3.198  -0.550  0.00  0.00    +0.000 A 
ATOM     12  C   UNL     1       6.292  -2.502  -0.251  0.00  0.00    +0.000 A 
ATOM     13  C   UNL     1       7.495  -2.838  -0.876  0.00  0.00    +0.000 A 
ATOM     14  C   UNL     1       7.532  -3.876  -1.805  0.00  0.00    +0.000 A 
ATOM     15  C   UNL     1       6.368  -4.577  -2.109  0.00  0.00    +0.000 A 
ATOM     16  C   UNL     1       5.164  -4.242  -1.484  0.00  0.00    +0.000 A 
ENDBRANCH   9  11
ENDBRANCH   1   9
TORSDOF 3
