MODEL 1
REMARK VINA RESULT:      -4.7      0.000      0.000
REMARK  Name = *****
REMARK  3 active torsions:
REMARK  status: ('A' for Active; 'I' for Inactive)
REMARK    1  A    between atoms: C_2  and  C_12
REMARK    2  A    between atoms: C_3  and  C_4
REMARK    3  A    between atoms: C_3  and  C_6
REMARK                            x       y       z     vdW  Elec       q    Type
REMARK                         _______ _______ _______ _____ _____    ______ ____
ROOT
ATOM      1  C   UNL     1     103.811 126.439  83.493  0.00  0.00    +0.000 C 
ATOM      2  C   UNL     1     102.428 125.920  83.216  0.00  0.00    +0.000 C 
ATOM      3  C   UNL     1     103.516 125.831  82.125  0.00  0.00    +0.000 C 
ENDROOT
BRANCH   3   4
ATOM      4  C   UNL     1     104.077 124.427  81.851  0.00  0.00    +0.000 A 
ATOM      5  C   UNL     1     104.208 123.478  82.882  0.00  0.00    +0.000 A 
ATOM      6  C   UNL     1     104.708 122.198  82.634  0.00  0.00    +0.000 A 
ATOM      7  C   UNL     1     105.082 121.835  81.344  0.00  0.00    +0.000 A 
ATOM      8  C   UNL     1     104.952 122.748  80.303  0.00  0.00    +0.000 A 
ATOM      9  C   UNL     1     104.452 124.029  80.555  0.00  0.00    +0.000 A 
ENDBRANCH   3   4
BRANCH   2  10
ATOM     10  C   UNL     1     101.255 126.872  83.114  0.00  0.00    +0.000 A 
ATOM     11  C   UNL     1     100.055 126.485  82.494  0.00  0.00    +0.000 A 
ATOM     12  C   UNL     1      98.962 127.353  82.417  0.00  0.00    +0.000 A 
ATOM     13  C   UNL     1      99.042 128.625  82.971  0.00  0.00    +0.000 A 
ATOM     14  C   UNL     1     100.213 129.029  83.606  0.00  0.00    +0.000 A 
ATOM     15  C   UNL     1     101.303 128.157  83.679  0.00  0.00    +0.000 A 
ENDBRANCH   2  10
BRANCH   3  16
ATOM     16  C   UNL     1     103.476 126.786  81.026  0.00  0.00    +0.000 C 
ATOM     17  N   UNL     1     103.463 127.551  80.154  0.00  0.00    +0.000 NA
ENDBRANCH   3  16
TORSDOF 3
ENDMDL
