MODEL 1
REMARK VINA RESULT:      -5.0      0.000      0.000
REMARK  Name = *****
REMARK  4 active torsions:
REMARK  status: ('A' for Active; 'I' for Inactive)
REMARK    1  A    between atoms: C_1  and  C_2
REMARK    2  A    between atoms: C_4  and  N_8
REMARK    3  A    between atoms: C_9  and  C_10
REMARK    4  A    between atoms: C_9  and  C_11
REMARK                            x       y       z     vdW  Elec       q    Type
REMARK                         _______ _______ _______ _____ _____    ______ ____
ROOT
ATOM      1  N   UNL     1     102.026 125.787  82.431  0.00  0.00    +0.000 NA
ATOM      2  C   UNL     1     102.958 125.955  81.537  0.00  0.00    +0.000 C 
ATOM      3  C   UNL     1     103.149 127.232  80.739  0.00  0.00    +0.000 C 
ENDROOT
BRANCH   1   7
ATOM      4  C   UNL     1     101.122 130.173  84.532  0.00  0.00    +0.000 C 
ATOM      5  C   UNL     1     100.662 128.986  83.740  0.00  0.00    +0.000 A 
ATOM      6  C   UNL     1     101.555 127.949  83.437  0.00  0.00    +0.000 A 
ATOM      7  C   UNL     1     101.132 126.825  82.720  0.00  0.00    +0.000 A 
ATOM      8  C   UNL     1      99.792 126.718  82.346  0.00  0.00    +0.000 A 
ATOM      9  C   UNL     1      98.889 127.736  82.655  0.00  0.00    +0.000 A 
ATOM     10  C   UNL     1      99.323 128.865  83.351  0.00  0.00    +0.000 A 
ENDBRANCH   1   7
BRANCH   2  11
ATOM     11  C   UNL     1     103.907 124.824  81.289  0.00  0.00    +0.000 A 
ATOM     12  C   UNL     1     104.579 124.760  80.059  0.00  0.00    +0.000 A 
ATOM     13  C   UNL     1     105.466 123.714  79.796  0.00  0.00    +0.000 A 
ATOM     14  C   UNL     1     105.671 122.733  80.758  0.00  0.00    +0.000 A 
ATOM     15  C   UNL     1     105.002 122.774  81.977  0.00  0.00    +0.000 A 
ATOM     16  C   UNL     1     104.114 123.820  82.245  0.00  0.00    +0.000 A 
ATOM     17  F   UNL     1     106.520 121.729  80.507  0.00  0.00    +0.000 F 
ENDBRANCH   2  11
TORSDOF 2
ENDMDL
