MODEL 1
REMARK VINA RESULT:      -5.0      0.000      0.000
REMARK  Name = *****
REMARK  2 active torsions:
REMARK  status: ('A' for Active; 'I' for Inactive)
REMARK    1  A    between atoms: C_4  and  C_7
REMARK    2  A    between atoms: C_8  and  C_9
REMARK                            x       y       z     vdW  Elec       q    Type
REMARK                         _______ _______ _______ _____ _____    ______ ____
ROOT
ATOM      1  C   UNL     1     102.447 126.101  82.129  0.00  0.00    +0.000 C 
ATOM      2  C   UNL     1     103.194 126.246  81.019  0.00  0.00    +0.000 C 
ATOM      3  F   UNL     1     103.001 127.329  80.226  0.00  0.00    +0.000 F 
ATOM      4  F   UNL     1     102.637 125.019  82.923  0.00  0.00    +0.000 F 
ENDROOT
BRANCH   1   8
ATOM      5  C   UNL     1      99.279 128.692  83.416  0.00  0.00    +0.000 A 
ATOM      6  C   UNL     1      99.002 127.501  82.749  0.00  0.00    +0.000 A 
ATOM      7  C   UNL     1     100.049 126.672  82.335  0.00  0.00    +0.000 A 
ATOM      8  C   UNL     1     101.387 127.026  82.570  0.00  0.00    +0.000 A 
ATOM      9  C   UNL     1     101.646 128.221  83.258  0.00  0.00    +0.000 A 
ATOM     10  C   UNL     1     100.600 129.050  83.673  0.00  0.00    +0.000 A 
ENDBRANCH   1   8
BRANCH   2  11
ATOM     11  C   UNL     1     104.254 125.323  80.570  0.00  0.00    +0.000 A 
ATOM     12  C   UNL     1     104.218 123.939  80.796  0.00  0.00    +0.000 A 
ATOM     13  C   UNL     1     105.239 123.108  80.327  0.00  0.00    +0.000 A 
ATOM     14  C   UNL     1     106.308 123.648  79.615  0.00  0.00    +0.000 A 
ATOM     15  C   UNL     1     106.353 125.016  79.366  0.00  0.00    +0.000 A 
ATOM     16  C   UNL     1     105.332 125.846  79.836  0.00  0.00    +0.000 A 
ENDBRANCH   2  11
TORSDOF 2
ENDMDL
