MODEL 1
REMARK VINA RESULT:      -4.1      0.000      0.000
REMARK  Name = *****
REMARK  4 active torsions:
REMARK  status: ('A' for Active; 'I' for Inactive)
REMARK    1  A    between atoms: C_4  and  C_7
REMARK    2  A    between atoms: C_7  and  N_8
REMARK    3  A    between atoms: N_8  and  O_9
REMARK    4  A    between atoms: O_9  and  C_10
REMARK                            x       y       z     vdW  Elec       q    Type
REMARK                         _______ _______ _______ _____ _____    ______ ____
ROOT
ATOM      1  N   UNL     1      87.900  69.841  88.359  0.00  0.00    +0.000 NA
ENDROOT
BRANCH   1   2
ATOM      2  C   UNL     1      87.332  70.957  88.689  0.00  0.00    +0.000 C 
BRANCH   2   6
ATOM      3  C   UNL     1      84.036  72.530  86.493  0.00  0.00    +0.000 A 
ATOM      4  C   UNL     1      84.001  72.540  87.889  0.00  0.00    +0.000 A 
ATOM      5  C   UNL     1      85.075  72.026  88.617  0.00  0.00    +0.000 A 
ATOM      6  C   UNL     1      86.183  71.503  87.945  0.00  0.00    +0.000 A 
ATOM      7  C   UNL     1      86.220  71.492  86.547  0.00  0.00    +0.000 A 
ATOM      8  C   UNL     1      85.142  72.007  85.823  0.00  0.00    +0.000 A 
ENDBRANCH   2   6
ENDBRANCH   1   2
BRANCH   1   9
ATOM      9  O   UNL     1      89.243  70.097  88.047  0.00  0.00    +0.000 OA
BRANCH   9  10
ATOM     10  C   UNL     1      89.500  69.868  86.714  0.00  0.00    +0.000 A 
ATOM     11  C   UNL     1      89.814  70.861  85.783  0.00  0.00    +0.000 A 
ATOM     12  C   UNL     1      90.077  70.518  84.454  0.00  0.00    +0.000 A 
ATOM     13  C   UNL     1      90.032  69.184  84.054  0.00  0.00    +0.000 A 
ATOM     14  C   UNL     1      89.727  68.189  84.982  0.00  0.00    +0.000 A 
ATOM     15  C   UNL     1      89.466  68.530  86.309  0.00  0.00    +0.000 A 
ENDBRANCH   9  10
ENDBRANCH   1   9
TORSDOF 4
ENDMDL
