MODEL 1
REMARK VINA RESULT:      -4.4      0.000      0.000
REMARK  Name = *****
REMARK  3 active torsions:
REMARK  status: ('A' for Active; 'I' for Inactive)
REMARK    1  A    between atoms: C_1  and  N_2
REMARK    2  A    between atoms: C_5  and  C_8
REMARK    3  A    between atoms: C_9  and  C_10
REMARK                            x       y       z     vdW  Elec       q    Type
REMARK                         _______ _______ _______ _____ _____    ______ ____
ROOT
ATOM      1  C   UNL     1     100.300 126.719  82.413  0.00  0.00    +0.000 C 
ATOM      2  C   UNL     1     101.610 126.905  82.642  0.00  0.00    +0.000 C 
ENDROOT
BRANCH   2   3
ATOM      3  C   UNL     1     102.667 126.467  81.717  0.00  0.00    +0.000 A 
ATOM      4  C   UNL     1     103.087 125.131  81.755  0.00  0.00    +0.000 A 
ATOM      5  C   UNL     1     104.110 124.678  80.912  0.00  0.00    +0.000 A 
ATOM      6  C   UNL     1     104.731 125.566  80.028  0.00  0.00    +0.000 A 
ATOM      7  C   UNL     1     104.329 126.903  79.998  0.00  0.00    +0.000 A 
ATOM      8  C   UNL     1     103.307 127.352  80.841  0.00  0.00    +0.000 A 
ATOM      9 CL   UNL     1     105.997 125.080  78.960  0.00  0.00    +0.000 Cl
ATOM     10 CL   UNL     1     104.554 123.011  81.017  0.00  0.00    +0.000 Cl
ENDBRANCH   2   3
BRANCH   1  15
ATOM     11  C   UNL     1      96.286 128.324  86.149  0.00  0.00    +0.000 C 
ATOM     12  N   UNL     1      97.304 127.903  85.171  0.00  0.00    +0.000 N 
ATOM     13  C   UNL     1      96.983 127.037  84.185  0.00  0.00    +0.000 C 
ATOM     14  C   UNL     1      97.939 126.633  83.259  0.00  0.00    +0.000 C 
ATOM     15  C   UNL     1      99.240 127.128  83.342  0.00  0.00    +0.000 C 
ATOM     16  C   UNL     1      99.550 128.003  84.382  0.00  0.00    +0.000 C 
ATOM     17  C   UNL     1      98.563 128.382  85.286  0.00  0.00    +0.000 C 
ENDBRANCH   1  15
TORSDOF 2
ENDMDL
