MODEL 1
REMARK VINA RESULT:      -3.9      0.000      0.000
REMARK  Name = *****
REMARK  4 active torsions:
REMARK  status: ('A' for Active; 'I' for Inactive)
REMARK    1  A    between atoms: C_4  and  C_7
REMARK    2  A    between atoms: C_7  and  S_8
REMARK    3  A    between atoms: S_8  and  C_9
REMARK    4  A    between atoms: C_9  and  C_11
REMARK                            x       y       z     vdW  Elec       q    Type
REMARK                         _______ _______ _______ _____ _____    ______ ____
ROOT
ATOM      1  C   UNL     1      85.131  63.469  87.176  0.00  0.00    +0.000 C 
ATOM      2  O   UNL     1      85.405  62.998  86.081  0.00  0.00    +0.000 OA
ENDROOT
BRANCH   1   3
ATOM      3  C   UNL     1      84.824  62.602  88.336  0.00  0.00    +0.000 A 
ATOM      4  C   UNL     1      83.557  62.581  88.936  0.00  0.00    +0.000 A 
ATOM      5  C   UNL     1      83.306  61.728  90.016  0.00  0.00    +0.000 A 
ATOM      6  C   UNL     1      84.315  60.891  90.496  0.00  0.00    +0.000 A 
ATOM      7  C   UNL     1      85.574  60.906  89.899  0.00  0.00    +0.000 A 
ATOM      8  C   UNL     1      85.822  61.758  88.822  0.00  0.00    +0.000 A 
ATOM      9  F   UNL     1      87.054  61.762  88.293  0.00  0.00    +0.000 F 
ENDBRANCH   1   3
BRANCH   1  10
ATOM     10  S   UNL     1      85.083  65.206  87.450  0.00  0.00    +0.000 S 
BRANCH  10  11
ATOM     11  C   UNL     1      86.860  65.504  87.682  0.00  0.00    +0.000 C 
BRANCH  11  15
ATOM     12  C   UNL     1      88.222  64.040  91.506  0.00  0.00    +0.000 A 
ATOM     13  C   UNL     1      86.985  64.674  91.403  0.00  0.00    +0.000 A 
ATOM     14  C   UNL     1      86.542  65.146  90.166  0.00  0.00    +0.000 A 
ATOM     15  C   UNL     1      87.332  64.983  89.017  0.00  0.00    +0.000 A 
ATOM     16  C   UNL     1      88.578  64.350  89.136  0.00  0.00    +0.000 A 
ATOM     17  C   UNL     1      89.019  63.879  90.374  0.00  0.00    +0.000 A 
ENDBRANCH  11  15
ENDBRANCH  10  11
ENDBRANCH   1  10
TORSDOF 4
ENDMDL
