MODEL 1
REMARK VINA RESULT:      -4.8      0.000      0.000
REMARK  Name = *****
REMARK  3 active torsions:
REMARK  status: ('A' for Active; 'I' for Inactive)
REMARK    1  A    between atoms: C_4  and  C_7
REMARK    2  A    between atoms: C_8  and  C_9
REMARK    3  A    between atoms: C_12  and  C_15
REMARK                            x       y       z     vdW  Elec       q    Type
REMARK                         _______ _______ _______ _____ _____    ______ ____
ROOT
ATOM      1  C   UNL     1     102.031 125.959  82.531  0.00  0.00    +0.000 C 
ATOM      2  C   UNL     1     102.789 125.830  81.427  0.00  0.00    +0.000 C 
ENDROOT
BRANCH   1   6
ATOM      3  C   UNL     1      98.976 128.883  83.255  0.00  0.00    +0.000 A 
ATOM      4  C   UNL     1     100.287 129.156  83.639  0.00  0.00    +0.000 A 
ATOM      5  C   UNL     1     101.299 128.222  83.396  0.00  0.00    +0.000 A 
ATOM      6  C   UNL     1     101.017 127.008  82.756  0.00  0.00    +0.000 A 
ATOM      7  C   UNL     1      99.691 126.748  82.378  0.00  0.00    +0.000 A 
ATOM      8  C   UNL     1      98.677 127.679  82.625  0.00  0.00    +0.000 A 
ENDBRANCH   1   6
BRANCH   2   9
ATOM      9  C   UNL     1     103.834 124.809  81.224  0.00  0.00    +0.000 A 
ATOM     10  C   UNL     1     104.568 124.683  80.036  0.00  0.00    +0.000 A 
ATOM     11  C   UNL     1     105.552 123.695  79.902  0.00  0.00    +0.000 A 
ATOM     12  C   UNL     1     105.827 122.827  80.960  0.00  0.00    +0.000 A 
ATOM     13  C   UNL     1     105.116 122.955  82.156  0.00  0.00    +0.000 A 
ATOM     14  C   UNL     1     104.132 123.940  82.285  0.00  0.00    +0.000 A 
BRANCH  12  15
ATOM     15  C   UNL     1     106.830 121.813  80.821  0.00  0.00    +0.000 C 
ATOM     16  N   UNL     1     107.642 120.992  80.709  0.00  0.00    +0.000 NA
ENDBRANCH  12  15
ENDBRANCH   2   9
TORSDOF 3
ENDMDL
