MODEL 1
REMARK VINA RESULT:      -4.3      0.000      0.000
REMARK  Name = *****
REMARK  2 active torsions:
REMARK  status: ('A' for Active; 'I' for Inactive)
REMARK    1  A    between atoms: C_4  and  C_6
REMARK    2  A    between atoms: C_9  and  C_12
REMARK                            x       y       z     vdW  Elec       q    Type
REMARK                         _______ _______ _______ _____ _____    ______ ____
ROOT
ATOM      1  C   UNL     1      99.451 127.287  84.377  0.00  0.00    +0.000 C 
ATOM      2  C   UNL     1      99.443 127.038  82.887  0.00  0.00    +0.000 C 
ATOM      3  C   UNL     1     100.477 126.433  82.281  0.00  0.00    +0.000 C 
ATOM      4  C   UNL     1     101.720 126.057  83.056  0.00  0.00    +0.000 C 
ATOM      5  O   UNL     1     101.733 126.777  84.301  0.00  0.00    +0.000 OA
ATOM      6  O   UNL     1     100.471 126.466  84.983  0.00  0.00    +0.000 OA
ENDROOT
BRANCH   1  10
ATOM      7  C   UNL     1      99.394 131.084  84.095  0.00  0.00    +0.000 C 
ATOM      8  C   UNL     1      98.678 130.849  85.426  0.00  0.00    +0.000 C 
ATOM      9  C   UNL     1      98.447 129.347  85.508  0.00  0.00    +0.000 C 
ATOM     10  C   UNL     1      99.640 128.763  84.752  0.00  0.00    +0.000 C 
ATOM     11  C   UNL     1      99.763 129.704  83.553  0.00  0.00    +0.000 C 
ENDBRANCH   1  10
BRANCH   4  12
ATOM     12  C   UNL     1     103.000 126.382  82.269  0.00  0.00    +0.000 C 
ATOM     13  C   UNL     1     103.084 127.844  81.823  0.00  0.00    +0.000 C 
ATOM     14  C   UNL     1     104.198 127.845  80.782  0.00  0.00    +0.000 C 
ATOM     15  C   UNL     1     104.211 126.440  80.181  0.00  0.00    +0.000 C 
ATOM     16  C   UNL     1     103.152 125.642  80.937  0.00  0.00    +0.000 C 
ENDBRANCH   4  12
TORSDOF 2
ENDMDL
