MODEL 1
REMARK VINA RESULT:      -4.3      0.000      0.000
REMARK  Name = *****
REMARK  3 active torsions:
REMARK  status: ('A' for Active; 'I' for Inactive)
REMARK    1  A    between atoms: C_1  and  N_2
REMARK    2  A    between atoms: N_2  and  C_3
REMARK    3  A    between atoms: C_9  and  C_11
REMARK                            x       y       z     vdW  Elec       q    Type
REMARK                         _______ _______ _______ _____ _____    ______ ____
ROOT
ATOM      1  C   UNL     1      99.925 126.731  82.452  0.00  0.00    +0.000 C 
ATOM      2  N   UNL     1     100.748 127.740  83.129  0.00  0.00    +0.000 N 
ATOM      3  C   UNL     1     102.140 127.796  82.909  0.00  0.00    +0.000 C 
ATOM      4  O   UNL     1     102.919 128.684  83.246  0.00  0.00    +0.000 OA
ENDROOT
BRANCH   3   5
ATOM      5  C   UNL     1     102.787 126.652  82.226  0.00  0.00    +0.000 A 
ATOM      6  C   UNL     1     103.170 125.521  82.955  0.00  0.00    +0.000 A 
ATOM      7  C   UNL     1     103.800 124.471  82.293  0.00  0.00    +0.000 A 
ATOM      8  C   UNL     1     104.063 124.549  80.924  0.00  0.00    +0.000 A 
ATOM      9  C   UNL     1     103.704 125.692  80.207  0.00  0.00    +0.000 A 
ATOM     10  C   UNL     1     103.072 126.750  80.859  0.00  0.00    +0.000 A 
ATOM     11 CL   UNL     1     104.256 123.063  83.170  0.00  0.00    +0.000 Cl
ENDBRANCH   3   5
BRANCH   2  12
ATOM     12  C   UNL     1     100.057 128.674  83.996  0.00  0.00    +0.000 A 
ATOM     13  C   UNL     1      99.748 129.986  83.607  0.00  0.00    +0.000 A 
ATOM     14  C   UNL     1      99.079 130.870  84.466  0.00  0.00    +0.000 A 
ATOM     15  C   UNL     1      98.705 130.465  85.741  0.00  0.00    +0.000 A 
ATOM     16  C   UNL     1      99.002 129.175  86.156  0.00  0.00    +0.000 A 
ATOM     17  C   UNL     1      99.669 128.293  85.295  0.00  0.00    +0.000 A 
ENDBRANCH   2  12
TORSDOF 2
ENDMDL
