MODEL 1
REMARK VINA RESULT:      -3.6      0.000      0.000
REMARK  Name = *****
REMARK  3 active torsions:
REMARK  status: ('A' for Active; 'I' for Inactive)
REMARK    1  A    between atoms: N_4  and  C_6
REMARK    2  A    between atoms: C_6  and  S_8
REMARK    3  A    between atoms: S_8  and  C_9
REMARK                            x       y       z     vdW  Elec       q    Type
REMARK                         _______ _______ _______ _____ _____    ______ ____
ROOT
ATOM      1  C   UNL     1     103.443 127.397  82.043  0.00  0.00    +0.000 C 
ATOM      2  S   UNL     1     104.791 127.606  83.032  0.00  0.00    +0.000 S 
ENDROOT
BRANCH   1   6
ATOM      3  C   UNL     1      99.810 126.998  82.683  0.00  0.00    +0.000 C 
ATOM      4  C   UNL     1     100.233 127.888  83.839  0.00  0.00    +0.000 C 
ATOM      5  C   UNL     1     101.541 128.485  83.341  0.00  0.00    +0.000 C 
ATOM      6  N   UNL     1     102.127 127.447  82.491  0.00  0.00    +0.000 N 
ATOM      7  C   UNL     1     101.132 126.410  82.214  0.00  0.00    +0.000 C 
ENDBRANCH   1   6
BRANCH   1   8
ATOM      8  S   UNL     1     103.681 127.153  80.308  0.00  0.00    +0.000 S 
BRANCH   8   9
ATOM      9  C   UNL     1     104.414 125.528  80.244  0.00  0.00    +0.000 A 
ATOM     10  C   UNL     1     105.503 125.318  79.388  0.00  0.00    +0.000 A 
ATOM     11  C   UNL     1     106.114 124.064  79.311  0.00  0.00    +0.000 A 
ATOM     12  C   UNL     1     105.646 123.012  80.095  0.00  0.00    +0.000 A 
ATOM     13  C   UNL     1     104.575 123.216  80.963  0.00  0.00    +0.000 A 
ATOM     14  C   UNL     1     103.964 124.470  81.040  0.00  0.00    +0.000 A 
ENDBRANCH   8   9
ENDBRANCH   1   8
TORSDOF 3
ENDMDL
