MODEL 1
REMARK VINA RESULT:      -4.4      0.000      0.000
REMARK  Name = *****
REMARK  3 active torsions:
REMARK  status: ('A' for Active; 'I' for Inactive)
REMARK    1  A    between atoms: C_1  and  C_2
REMARK    2  A    between atoms: C_5  and  C_8
REMARK    3  A    between atoms: C_9  and  C_10
REMARK                            x       y       z     vdW  Elec       q    Type
REMARK                         _______ _______ _______ _____ _____    ______ ____
ROOT
ATOM      1  C   UNL     1      99.064 129.803  84.218  0.00  0.00    +0.000 C 
ATOM      2  C   UNL     1      99.954 128.776  83.585  0.00  0.00    +0.000 A 
ATOM      3  C   UNL     1      99.412 127.628  83.000  0.00  0.00    +0.000 A 
ATOM      4  C   UNL     1     100.246 126.655  82.440  0.00  0.00    +0.000 A 
ATOM      5  C   UNL     1     101.637 126.815  82.453  0.00  0.00    +0.000 A 
ATOM      6  C   UNL     1     102.178 127.949  83.068  0.00  0.00    +0.000 A 
ATOM      7  C   UNL     1     101.345 128.923  83.628  0.00  0.00    +0.000 A 
ENDROOT
BRANCH   5   8
ATOM      8  C   UNL     1     102.547 125.802  81.902  0.00  0.00    +0.000 C 
ATOM      9  C   UNL     1     103.446 126.054  80.938  0.00  0.00    +0.000 C 
BRANCH   9  10
ATOM     10  C   UNL     1     104.309 125.032  80.454  0.00  0.00    +0.000 A 
ATOM     11  C   UNL     1     104.416 123.714  80.887  0.00  0.00    +0.000 A 
ATOM     12  C   UNL     1     105.410 123.075  80.108  0.00  0.00    +0.000 A 
ATOM     13  C   UNL     1     105.867 124.028  79.235  0.00  0.00    +0.000 A 
ATOM     14  O   UNL     1     105.218 125.200  79.430  0.00  0.00    +0.000 OA
ENDBRANCH   9  10
ENDBRANCH   5   8
TORSDOF 2
ENDMDL
