MODEL 1
REMARK VINA RESULT:      -4.6      0.000      0.000
REMARK  Name = *****
REMARK  4 active torsions:
REMARK  status: ('A' for Active; 'I' for Inactive)
REMARK    1  A    between atoms: C_1  and  C_2
REMARK    2  A    between atoms: C_4  and  C_9
REMARK    3  A    between atoms: C_7  and  C_8
REMARK    4  A    between atoms: C_10  and  C_11
REMARK                            x       y       z     vdW  Elec       q    Type
REMARK                         _______ _______ _______ _____ _____    ______ ____
ROOT
ATOM      1  C   UNL     1     105.583 121.501  83.445  0.00  0.00    +0.000 C 
ATOM      2  C   UNL     1     105.335 122.539  82.381  0.00  0.00    +0.000 A 
ATOM      3  C   UNL     1     104.342 123.510  82.602  0.00  0.00    +0.000 A 
ATOM      4  C   UNL     1     104.005 124.518  81.697  0.00  0.00    +0.000 A 
ATOM      5  P   UNL     1     104.738 124.748  80.204  0.00  0.00    +0.000 P 
ATOM      6  C   UNL     1     105.846 123.486  80.162  0.00  0.00    +0.000 A 
ATOM      7  C   UNL     1     106.057 122.533  81.169  0.00  0.00    +0.000 A 
ATOM      8  C   UNL     1     107.107 121.473  80.920  0.00  0.00    +0.000 C 
ENDROOT
BRANCH   4   9
ATOM      9  C   UNL     1     102.952 125.435  82.010  0.00  0.00    +0.000 C 
ATOM     10  C   UNL     1     102.067 126.197  82.294  0.00  0.00    +0.000 C 
BRANCH  10  11
ATOM     11  C   UNL     1     101.001 127.081  82.651  0.00  0.00    +0.000 A 
ATOM     12  C   UNL     1     101.272 128.278  83.316  0.00  0.00    +0.000 A 
ATOM     13  C   UNL     1     100.225 129.131  83.671  0.00  0.00    +0.000 A 
ATOM     14  C   UNL     1      98.908 128.789  83.361  0.00  0.00    +0.000 A 
ATOM     15  C   UNL     1      98.637 127.594  82.695  0.00  0.00    +0.000 A 
ATOM     16  C   UNL     1      99.682 126.740  82.339  0.00  0.00    +0.000 A 
ENDBRANCH  10  11
ENDBRANCH   4   9
TORSDOF 2
ENDMDL
