MODEL 1
REMARK VINA RESULT:      -5.0      0.000      0.000
REMARK  Name = *****
REMARK  2 active torsions:
REMARK  status: ('A' for Active; 'I' for Inactive)
REMARK    1  A    between atoms: C_4  and  N_8
REMARK    2  A    between atoms: C_9  and  C_10
REMARK                            x       y       z     vdW  Elec       q    Type
REMARK                         _______ _______ _______ _____ _____    ______ ____
ROOT
ATOM      1  N   UNL     1     101.819 126.071  82.657  0.00  0.00    +0.000 NA
ATOM      2  C   UNL     1     102.601 126.238  81.640  0.00  0.00    +0.000 C 
ENDROOT
BRANCH   1   6
ATOM      3  C   UNL     1      99.157 129.262  83.492  0.00  0.00    +0.000 A 
ATOM      4  C   UNL     1     100.484 129.314  83.915  0.00  0.00    +0.000 A 
ATOM      5  C   UNL     1     101.346 128.251  83.638  0.00  0.00    +0.000 A 
ATOM      6  C   UNL     1     100.911 127.113  82.948  0.00  0.00    +0.000 A 
ATOM      7  C   UNL     1      99.574 127.089  82.525  0.00  0.00    +0.000 A 
ATOM      8  C   UNL     1      98.701 128.145  82.795  0.00  0.00    +0.000 A 
ATOM      9  F   UNL     1      99.101 126.028  81.855  0.00  0.00    +0.000 F 
ATOM     10  F   UNL     1     102.617 128.336  84.062  0.00  0.00    +0.000 F 
ENDBRANCH   1   6
BRANCH   2  11
ATOM     11  C   UNL     1     103.591 125.215  81.250  0.00  0.00    +0.000 A 
ATOM     12  C   UNL     1     104.239 125.340  80.019  0.00  0.00    +0.000 A 
ATOM     13  C   UNL     1     105.173 124.379  79.647  0.00  0.00    +0.000 A 
ATOM     14  C   UNL     1     105.461 123.306  80.485  0.00  0.00    +0.000 A 
ATOM     15  C   UNL     1     104.819 123.178  81.713  0.00  0.00    +0.000 A 
ATOM     16  C   UNL     1     103.879 124.137  82.098  0.00  0.00    +0.000 A 
ATOM     17  F   UNL     1     106.363 122.386  80.116  0.00  0.00    +0.000 F 
ATOM     18  F   UNL     1     105.795 124.496  78.465  0.00  0.00    +0.000 F 
ENDBRANCH   2  11
TORSDOF 2
ENDMDL
