MODEL 1
REMARK VINA RESULT:      -3.8      0.000      0.000
REMARK  Name = *****
REMARK  5 active torsions:
REMARK  status: ('A' for Active; 'I' for Inactive)
REMARK    1  A    between atoms: C_1  and  C_2
REMARK    2  A    between atoms: C_5  and  C_8
REMARK    3  A    between atoms: C_8  and  S_10
REMARK    4  A    between atoms: S_10  and  C_11
REMARK    5  A    between atoms: C_11  and  C_12
REMARK                            x       y       z     vdW  Elec       q    Type
REMARK                         _______ _______ _______ _____ _____    ______ ____
ROOT
ATOM      1  C   UNL     1      88.081  65.245  87.494  0.00  0.00    +0.000 C 
ATOM      2  O   UNL     1      89.149  65.767  87.199  0.00  0.00    +0.000 OA
ENDROOT
BRANCH   1   7
ATOM      3  C   UNL     1      86.813  64.256  93.085  0.00  0.00    +0.000 C 
ATOM      4  C   UNL     1      87.139  64.547  91.650  0.00  0.00    +0.000 A 
ATOM      5  C   UNL     1      86.279  65.330  90.872  0.00  0.00    +0.000 A 
ATOM      6  C   UNL     1      86.561  65.576  89.523  0.00  0.00    +0.000 A 
ATOM      7  C   UNL     1      87.707  65.033  88.927  0.00  0.00    +0.000 A 
ATOM      8  C   UNL     1      88.560  64.238  89.709  0.00  0.00    +0.000 A 
ATOM      9  C   UNL     1      88.276  63.992  91.055  0.00  0.00    +0.000 A 
ENDBRANCH   1   7
BRANCH   1  10
ATOM     10  S   UNL     1      86.956  64.724  86.246  0.00  0.00    +0.000 S 
BRANCH  10  11
ATOM     11  C   UNL     1      86.954  62.941  86.585  0.00  0.00    +0.000 C 
BRANCH  11  12
ATOM     12  C   UNL     1      85.946  62.587  87.651  0.00  0.00    +0.000 A 
ATOM     13  C   UNL     1      84.641  63.098  87.596  0.00  0.00    +0.000 A 
ATOM     14  C   UNL     1      83.713  62.778  88.589  0.00  0.00    +0.000 A 
ATOM     15  C   UNL     1      84.081  61.951  89.649  0.00  0.00    +0.000 A 
ATOM     16  C   UNL     1      85.377  61.444  89.718  0.00  0.00    +0.000 A 
ATOM     17  C   UNL     1      86.307  61.762  88.726  0.00  0.00    +0.000 A 
ENDBRANCH  11  12
ENDBRANCH  10  11
ENDBRANCH   1  10
TORSDOF 4
ENDMDL
