MODEL 1
REMARK VINA RESULT:      -5.2      0.000      0.000
REMARK  Name = *****
REMARK  3 active torsions:
REMARK  status: ('A' for Active; 'I' for Inactive)
REMARK    1  A    between atoms: C_2  and  C_13
REMARK    2  A    between atoms: C_3  and  C_4
REMARK    3  A    between atoms: C_4  and  C_6
REMARK                            x       y       z     vdW  Elec       q    Type
REMARK                         _______ _______ _______ _____ _____    ______ ____
ROOT
ATOM      1  C   UNL     1     101.325 126.950  84.242  0.00  0.00    +0.000 C 
ATOM      2  C   UNL     1     101.712 126.990  82.782  0.00  0.00    +0.000 C 
ATOM      3  C   UNL     1     100.310 126.573  83.196  0.00  0.00    +0.000 C 
ENDROOT
BRANCH   2   4
ATOM      4  C   UNL     1     102.656 125.958  82.210  0.00  0.00    +0.000 A 
ATOM      5  C   UNL     1     102.995 125.958  80.847  0.00  0.00    +0.000 A 
ATOM      6  C   UNL     1     103.877 125.015  80.315  0.00  0.00    +0.000 A 
ATOM      7  C   UNL     1     104.449 124.053  81.141  0.00  0.00    +0.000 A 
ATOM      8  C   UNL     1     104.140 124.037  82.498  0.00  0.00    +0.000 A 
ATOM      9  C   UNL     1     103.257 124.984  83.024  0.00  0.00    +0.000 A 
ENDBRANCH   2   4
BRANCH   3  10
ATOM     10  C   UNL     1      99.162 127.480  82.911  0.00  0.00    +0.000 C 
ATOM     11  O   UNL     1      98.381 127.266  81.994  0.00  0.00    +0.000 OA
BRANCH  10  12
ATOM     12  C   UNL     1      98.970 128.631  83.810  0.00  0.00    +0.000 A 
ATOM     13  C   UNL     1      99.477 129.876  83.412  0.00  0.00    +0.000 A 
ATOM     14  C   UNL     1      99.325 130.985  84.244  0.00  0.00    +0.000 A 
ATOM     15  C   UNL     1      98.672 130.852  85.469  0.00  0.00    +0.000 A 
ATOM     16  C   UNL     1      98.167 129.611  85.864  0.00  0.00    +0.000 A 
ATOM     17  C   UNL     1      98.315 128.494  85.036  0.00  0.00    +0.000 A 
ATOM     18 CL   UNL     1      97.622 127.003  85.560  0.00  0.00    +0.000 Cl
ENDBRANCH  10  12
ENDBRANCH   3  10
TORSDOF 3
ENDMDL
