MODEL 1
REMARK VINA RESULT:      -4.8      0.000      0.000
REMARK  Name = *****
REMARK  3 active torsions:
REMARK  status: ('A' for Active; 'I' for Inactive)
REMARK    1  A    between atoms: C_3  and  C_9
REMARK    2  A    between atoms: C_9  and  S_10
REMARK    3  A    between atoms: S_10  and  C_11
REMARK                            x       y       z     vdW  Elec       q    Type
REMARK                         _______ _______ _______ _____ _____    ______ ____
ROOT
ATOM      1  C   UNL     1     102.911 125.487  83.858  0.00  0.00    +0.000 C 
ENDROOT
BRANCH   1   4
ATOM      2  C   UNL     1     104.221 124.458  80.428  0.00  0.00    +0.000 A 
ATOM      3  C   UNL     1     103.604 125.197  81.440  0.00  0.00    +0.000 A 
ATOM      4  C   UNL     1     103.584 124.711  82.757  0.00  0.00    +0.000 A 
ATOM      5  C   UNL     1     104.186 123.476  83.026  0.00  0.00    +0.000 A 
ATOM      6  C   UNL     1     104.802 122.735  82.025  0.00  0.00    +0.000 A 
ATOM      7  C   UNL     1     104.814 123.235  80.732  0.00  0.00    +0.000 A 
ATOM      8  F   UNL     1     105.404 122.532  79.757  0.00  0.00    +0.000 F 
ATOM      9  F   UNL     1     104.179 122.990  84.276  0.00  0.00    +0.000 F 
ENDBRANCH   1   4
BRANCH   1  10
ATOM     10  S   UNL     1     103.073 127.286  83.596  0.00  0.00    +0.000 S 
BRANCH  10  11
ATOM     11  C   UNL     1     101.365 127.704  83.308  0.00  0.00    +0.000 A 
ATOM     12  C   UNL     1     100.507 126.742  82.768  0.00  0.00    +0.000 A 
ATOM     13  C   UNL     1      99.167 127.054  82.552  0.00  0.00    +0.000 A 
ATOM     14  C   UNL     1      98.658 128.305  82.871  0.00  0.00    +0.000 A 
ATOM     15  C   UNL     1      99.514 129.249  83.419  0.00  0.00    +0.000 A 
ATOM     16  C   UNL     1     100.858 128.962  83.644  0.00  0.00    +0.000 A 
ATOM     17  F   UNL     1      99.039 130.459  83.740  0.00  0.00    +0.000 F 
ATOM     18  F   UNL     1      98.354 126.128  82.026  0.00  0.00    +0.000 F 
ENDBRANCH  10  11
ENDBRANCH   1  10
TORSDOF 3
ENDMDL
