MODEL 1
REMARK VINA RESULT:      -4.4      0.000      0.000
REMARK  Name = *****
REMARK  3 active torsions:
REMARK  status: ('A' for Active; 'I' for Inactive)
REMARK    1  A    between atoms: C_4  and  C_7
REMARK    2  A    between atoms: C_7  and  S_8
REMARK    3  A    between atoms: S_8  and  C_9
REMARK                            x       y       z     vdW  Elec       q    Type
REMARK                         _______ _______ _______ _____ _____    ______ ____
ROOT
ATOM      1  S   UNL     1      89.174  70.313  86.754  0.00  0.00    +0.000 S 
ENDROOT
BRANCH   1   2
ATOM      2  C   UNL     1      88.998  68.532  86.808  0.00  0.00    +0.000 A 
ATOM      3  C   UNL     1      89.996  67.788  86.161  0.00  0.00    +0.000 A 
ATOM      4  C   UNL     1      89.944  66.392  86.148  0.00  0.00    +0.000 A 
ATOM      5  C   UNL     1      88.902  65.718  86.775  0.00  0.00    +0.000 A 
ATOM      6  C   UNL     1      87.905  66.446  87.420  0.00  0.00    +0.000 A 
ATOM      7  C   UNL     1      87.953  67.845  87.436  0.00  0.00    +0.000 A 
ATOM      8 BR   UNL     1      91.301  65.411  85.270  0.00  0.00    +0.000 Br
ENDBRANCH   1   2
BRANCH   1   9
ATOM      9  C   UNL     1      87.882  70.841  85.583  0.00  0.00    +0.000 C 
BRANCH   9  13
ATOM     10  C   UNL     1      84.392  72.320  87.646  0.00  0.00    +0.000 A 
ATOM     11  C   UNL     1      85.446  71.762  88.369  0.00  0.00    +0.000 A 
ATOM     12  C   UNL     1      86.576  71.284  87.702  0.00  0.00    +0.000 A 
ATOM     13  C   UNL     1      86.665  71.365  86.305  0.00  0.00    +0.000 A 
ATOM     14  C   UNL     1      85.593  71.918  85.588  0.00  0.00    +0.000 A 
ATOM     15  C   UNL     1      84.465  72.395  86.257  0.00  0.00    +0.000 A 
ENDBRANCH   9  13
ENDBRANCH   1   9
TORSDOF 3
ENDMDL
