MODEL 1
REMARK VINA RESULT:      -4.2      0.000      0.000
REMARK  Name = *****
REMARK  5 active torsions:
REMARK  status: ('A' for Active; 'I' for Inactive)
REMARK    1  A    between atoms: C_4  and  C_7
REMARK    2  A    between atoms: C_7  and  C_8
REMARK    3  A    between atoms: C_7  and  P_16
REMARK    4  A    between atoms: C_8  and  C_9
REMARK    5  A    between atoms: C_8  and  P_15
REMARK                            x       y       z     vdW  Elec       q    Type
REMARK                         _______ _______ _______ _____ _____    ______ ____
ROOT
ATOM      1  C   UNL     1      89.546  66.662  86.518  0.00  0.00    +0.000 C 
ENDROOT
BRANCH   1   5
ATOM      2  C   UNL     1      89.863  70.827  85.315  0.00  0.00    +0.000 A 
ATOM      3  C   UNL     1      89.618  70.523  86.651  0.00  0.00    +0.000 A 
ATOM      4  C   UNL     1      89.500  69.192  87.060  0.00  0.00    +0.000 A 
ATOM      5  C   UNL     1      89.624  68.133  86.142  0.00  0.00    +0.000 A 
ATOM      6  C   UNL     1      89.868  68.468  84.794  0.00  0.00    +0.000 A 
ATOM      7  C   UNL     1      89.986  69.799  84.386  0.00  0.00    +0.000 A 
ENDBRANCH   1   5
BRANCH   1   8
ATOM      8  P   UNL     1      90.747  65.860  85.334  0.00  0.00    +0.000 P 
ATOM      9  H   UNL     1      90.583  66.403  84.076  0.00  0.00    +0.000 HD
ATOM     10  H   UNL     1      90.507  64.502  85.284  0.00  0.00    +0.000 HD
ENDBRANCH   1   8
BRANCH   1  11
ATOM     11  C   UNL     1      88.188  65.932  86.646  0.00  0.00    +0.000 C 
BRANCH  11  12
ATOM     12  C   UNL     1      87.897  65.332  88.015  0.00  0.00    +0.000 A 
ATOM     13  C   UNL     1      86.857  65.781  88.848  0.00  0.00    +0.000 A 
ATOM     14  C   UNL     1      86.645  65.212  90.106  0.00  0.00    +0.000 A 
ATOM     15  C   UNL     1      87.467  64.185  90.559  0.00  0.00    +0.000 A 
ATOM     16  C   UNL     1      88.503  63.723  89.752  0.00  0.00    +0.000 A 
ATOM     17  C   UNL     1      88.718  64.292  88.495  0.00  0.00    +0.000 A 
ENDBRANCH  11  12
BRANCH  11  18
ATOM     18  P   UNL     1      86.620  66.804  86.208  0.00  0.00    +0.000 P 
ATOM     19  H   UNL     1      85.618  66.411  87.071  0.00  0.00    +0.000 HD
ATOM     20  H   UNL     1      86.262  66.485  84.914  0.00  0.00    +0.000 HD
ENDBRANCH  11  18
ENDBRANCH   1  11
TORSDOF 5
ENDMDL
