MODEL 1
REMARK VINA RESULT:      -3.6      0.000      0.000
REMARK  Name = *****
REMARK  2 active torsions:
REMARK  status: ('A' for Active; 'I' for Inactive)
REMARK    1  A    between atoms: N_4  and  C_5
REMARK    2  A    between atoms: C_5  and  C_6
REMARK                            x       y       z     vdW  Elec       q    Type
REMARK                         _______ _______ _______ _____ _____    ______ ____
ROOT
ATOM      1  C   UNL     1     101.459 127.353  82.918  0.00  0.00    +0.000 A 
ATOM      2  C   UNL     1     101.078 128.579  83.484  0.00  0.00    +0.000 A 
ATOM      3  C   UNL     1      99.737 128.960  83.503  0.00  0.00    +0.000 A 
ATOM      4  C   UNL     1      98.756 128.124  82.973  0.00  0.00    +0.000 A 
ATOM      5  C   UNL     1      99.121 126.898  82.419  0.00  0.00    +0.000 A 
ATOM      6  C   UNL     1     100.464 126.511  82.398  0.00  0.00    +0.000 A 
ATOM      7 CL   UNL     1      99.286 130.470  84.196  0.00  0.00    +0.000 Cl
ENDROOT
BRANCH   1   8
ATOM      8  C   UNL     1     102.905 126.907  82.928  0.00  0.00    +0.000 C 
BRANCH   8  12
ATOM      9  C   UNL     1     105.114 124.914  79.696  0.00  0.00    +0.000 C 
ATOM     10  S   UNL     1     105.239 126.238  80.935  0.00  0.00    +0.000 S 
ATOM     11  C   UNL     1     104.008 125.298  81.652  0.00  0.00    +0.000 C 
ATOM     12  N   UNL     1     103.057 125.527  82.466  0.00  0.00    +0.000 NA
ATOM     13  S   UNL     1     104.456 123.796  80.965  0.00  0.00    +0.000 S 
ENDBRANCH   8  12
ENDBRANCH   1   8
TORSDOF 2
ENDMDL
