MODEL 1
REMARK VINA RESULT:      -4.0      0.000      0.000
REMARK  Name = *****
REMARK  3 active torsions:
REMARK  status: ('A' for Active; 'I' for Inactive)
REMARK    1  A    between atoms: C_5  and  S_7
REMARK    2  A    between atoms: S_7  and  C_8
REMARK    3  A    between atoms: C_8  and  C_10
REMARK                            x       y       z     vdW  Elec       q    Type
REMARK                         _______ _______ _______ _____ _____    ______ ____
ROOT
ATOM      1  C   UNL     1     104.934 124.914  81.361  0.00  0.00    +0.000 C 
ATOM      2  O   UNL     1     105.927 125.556  81.674  0.00  0.00    +0.000 OA
ENDROOT
BRANCH   1   3
ATOM      3  C   UNL     1     104.729 123.535  81.824  0.00  0.00    +0.000 A 
ATOM      4  C   UNL     1     104.348 123.269  83.132  0.00  0.00    +0.000 A 
ATOM      5  N   UNL     1     104.126 122.018  83.609  0.00  0.00    +0.000 NA
ATOM      6  C   UNL     1     104.278 120.994  82.742  0.00  0.00    +0.000 A 
ATOM      7  C   UNL     1     104.646 121.158  81.417  0.00  0.00    +0.000 A 
ATOM      8  C   UNL     1     104.871 122.451  80.949  0.00  0.00    +0.000 A 
ATOM      9 CL   UNL     1     104.176 124.472  84.350  0.00  0.00    +0.000 Cl
ENDBRANCH   1   3
BRANCH   1  10
ATOM     10  S   UNL     1     103.647 125.607  80.379  0.00  0.00    +0.000 S 
BRANCH  10  15
ATOM     11  C   UNL     1     100.951 126.631  83.232  0.00  0.00    +0.000 A 
ATOM     12  C   UNL     1     101.348 127.905  83.632  0.00  0.00    +0.000 A 
ATOM     13  C   UNL     1     102.459 128.504  83.039  0.00  0.00    +0.000 A 
ATOM     14  C   UNL     1     103.178 127.829  82.047  0.00  0.00    +0.000 A 
ATOM     15  C   UNL     1     102.789 126.541  81.643  0.00  0.00    +0.000 A 
ATOM     16  C   UNL     1     101.666 125.954  82.243  0.00  0.00    +0.000 A 
ATOM     17 CL   UNL     1     104.534 128.649  81.349  0.00  0.00    +0.000 Cl
ENDBRANCH  10  15
ENDBRANCH   1  10
TORSDOF 3
ENDMDL
