MODEL 1
REMARK VINA RESULT:      -4.5      0.000      0.000
REMARK  Name = *****
REMARK  5 active torsions:
REMARK  status: ('A' for Active; 'I' for Inactive)
REMARK    1  A    between atoms: C_1  and  C_2
REMARK    2  A    between atoms: C_5  and  N_8
REMARK    3  A    between atoms: N_8  and  C_9
REMARK    4  A    between atoms: C_10  and  O_12
REMARK    5  A    between atoms: O_12  and  C_13
REMARK                            x       y       z     vdW  Elec       q    Type
REMARK                         _______ _______ _______ _____ _____    ______ ____
ROOT
ATOM      1  N   UNL     1      89.324  70.076  85.743  0.00  0.00    +0.000 N 
ATOM      2  C   UNL     1      89.340  70.316  87.186  0.00  0.00    +0.000 C 
ATOM      3  C   UNL     1      89.912  68.904  85.230  0.00  0.00    +0.000 C 
ATOM      4  O   UNL     1      90.040  68.623  84.042  0.00  0.00    +0.000 OA
ENDROOT
BRANCH   1   9
ATOM      5  C   UNL     1      87.127  74.218  82.343  0.00  0.00    +0.000 C 
ATOM      6  C   UNL     1      87.701  73.130  83.199  0.00  0.00    +0.000 A 
ATOM      7  C   UNL     1      89.067  73.096  83.485  0.00  0.00    +0.000 A 
ATOM      8  C   UNL     1      89.601  72.099  84.315  0.00  0.00    +0.000 A 
ATOM      9  C   UNL     1      88.790  71.115  84.896  0.00  0.00    +0.000 A 
ATOM     10  C   UNL     1      87.416  71.169  84.602  0.00  0.00    +0.000 A 
ATOM     11  C   UNL     1      86.877  72.164  83.775  0.00  0.00    +0.000 A 
ENDBRANCH   1   9
BRANCH   3  12
ATOM     12  O   UNL     1      90.388  68.066  86.249  0.00  0.00    +0.000 OA
BRANCH  12  13
ATOM     13  C   UNL     1      90.197  66.683  86.112  0.00  0.00    +0.000 A 
ATOM     14  C   UNL     1      91.138  65.882  85.468  0.00  0.00    +0.000 A 
ATOM     15  C   UNL     1      90.937  64.504  85.412  0.00  0.00    +0.000 A 
ATOM     16  C   UNL     1      89.812  63.937  86.014  0.00  0.00    +0.000 A 
ATOM     17  C   UNL     1      88.886  64.746  86.676  0.00  0.00    +0.000 A 
ATOM     18  C   UNL     1      89.081  66.126  86.734  0.00  0.00    +0.000 A 
ENDBRANCH  12  13
ENDBRANCH   3  12
TORSDOF 3
ENDMDL
