REMARK  Name = *****
REMARK  3 active torsions:
REMARK  status: ('A' for Active; 'I' for Inactive)
REMARK    1  A    between atoms: C_4  and  O_7
REMARK    2  A    between atoms: O_7  and  C_8
REMARK    3  A    between atoms: C_8  and  C_10
REMARK                            x       y       z     vdW  Elec       q    Type
REMARK                         _______ _______ _______ _____ _____    ______ ____
ROOT
ATOM      1  C   UNL     1       3.358  -1.870   0.150  0.00  0.00    +0.000 C 
ATOM      2  O   UNL     1       2.914  -2.643   0.984  0.00  0.00    +0.000 OA
ENDROOT
BRANCH   1   3
ATOM      3  C   UNL     1       4.662  -2.044  -0.492  0.00  0.00    +0.000 C 
ATOM      4  C   UNL     1       5.293  -1.276  -1.408  0.00  0.00    +0.000 C 
ATOM      5  C   UNL     1       6.614  -1.960  -1.709  0.00  0.00    +0.000 C 
ATOM      6  C   UNL     1       6.903  -2.491  -0.295  0.00  0.00    +0.000 C 
ATOM      7  C   UNL     1       5.559  -3.230  -0.194  0.00  0.00    +0.000 C 
ATOM      8  C   UNL     1       5.696  -4.063  -1.462  0.00  0.00    +0.000 C 
ATOM      9  C   UNL     1       6.326  -3.295  -2.374  0.00  0.00    +0.000 C 
ENDBRANCH   1   3
BRANCH   1  10
ATOM     10  O   UNL     1       2.755  -0.747  -0.311  0.00  0.00    +0.000 OA
BRANCH  10  14
ATOM     11  C   UNL     1      -1.250   0.650  -0.196  0.00  0.00    +0.000 C 
ATOM     12  C   UNL     1      -1.021  -0.853  -0.060  0.00  0.00    +0.000 C 
ATOM     13  C   UNL     1       0.383  -1.251  -0.505  0.00  0.00    +0.000 C 
ATOM     14  C   UNL     1       1.459  -0.456   0.241  0.00  0.00    +0.000 C 
ATOM     15  C   UNL     1       1.225   1.049   0.087  0.00  0.00    +0.000 C 
ATOM     16  C   UNL     1      -0.176   1.452   0.534  0.00  0.00    +0.000 C 
ENDBRANCH  10  14
ENDBRANCH   1  10
TORSDOF 3
