MODEL 1
REMARK VINA RESULT:      -4.3      0.000      0.000
REMARK  Name = *****
REMARK  5 active torsions:
REMARK  status: ('A' for Active; 'I' for Inactive)
REMARK    1  A    between atoms: C_1  and  C_2
REMARK    2  A    between atoms: C_2  and  C_3
REMARK    3  A    between atoms: C_2  and  C_8
REMARK    4  A    between atoms: C_8  and  S_9
REMARK    5  A    between atoms: S_9  and  C_10
REMARK                            x       y       z     vdW  Elec       q    Type
REMARK                         _______ _______ _______ _____ _____    ______ ____
ROOT
ATOM      1  C   UNL     1     103.273 126.080  82.412  0.00  0.00    +0.000 C 
ENDROOT
BRANCH   1   3
ATOM      2  C   UNL     1     103.574 127.385  80.267  0.00  0.00    +0.000 C 
ATOM      3  C   UNL     1     103.884 126.115  81.026  0.00  0.00    +0.000 C 
BRANCH   3   4
ATOM      4  C   UNL     1     104.596 125.093  80.510  0.00  0.00    +0.000 C 
ATOM      5  C   UNL     1     105.572 125.178  79.432  0.00  0.00    +0.000 C 
ATOM      6  C   UNL     1     106.047 123.938  79.222  0.00  0.00    +0.000 C 
ATOM      7  C   UNL     1     105.402 123.019  80.136  0.00  0.00    +0.000 C 
ATOM      8  C   UNL     1     104.532 123.694  80.905  0.00  0.00    +0.000 C 
ENDBRANCH   3   4
ENDBRANCH   1   3
BRANCH   1   9
ATOM      9  S   UNL     1     103.000 127.779  83.017  0.00  0.00    +0.000 S 
BRANCH   9  10
ATOM     10  C   UNL     1     101.218 127.829  82.992  0.00  0.00    +0.000 A 
ATOM     11  C   UNL     1     100.516 126.747  82.453  0.00  0.00    +0.000 A 
ATOM     12  C   UNL     1      99.119 126.754  82.425  0.00  0.00    +0.000 A 
ATOM     13  C   UNL     1      98.417 127.841  82.944  0.00  0.00    +0.000 A 
ATOM     14  C   UNL     1      99.110 128.917  83.496  0.00  0.00    +0.000 A 
ATOM     15  C   UNL     1     100.507 128.910  83.525  0.00  0.00    +0.000 A 
ENDBRANCH   9  10
ENDBRANCH   1   9
TORSDOF 4
ENDMDL
