MODEL 1
REMARK VINA RESULT:      -4.3      0.000      0.000
REMARK  Name = *****
REMARK  3 active torsions:
REMARK  status: ('A' for Active; 'I' for Inactive)
REMARK    1  A    between atoms: C_4  and  O_7
REMARK    2  A    between atoms: O_7  and  C_8
REMARK    3  A    between atoms: C_8  and  C_10
REMARK                            x       y       z     vdW  Elec       q    Type
REMARK                         _______ _______ _______ _____ _____    ______ ____
ROOT
ATOM      1  C   UNL     1     100.432 127.224  82.928  0.00  0.00    +0.000 C 
ATOM      2  O   UNL     1      99.444 126.764  82.380  0.00  0.00    +0.000 OA
ENDROOT
BRANCH   1   3
ATOM      3  C   UNL     1     100.494 128.600  83.492  0.00  0.00    +0.000 A 
ATOM      4  C   UNL     1      99.366 129.422  83.357  0.00  0.00    +0.000 A 
ATOM      5  C   UNL     1      99.373 130.720  83.870  0.00  0.00    +0.000 A 
ATOM      6  C   UNL     1     100.506 131.205  84.522  0.00  0.00    +0.000 A 
ATOM      7  C   UNL     1     101.633 130.395  84.662  0.00  0.00    +0.000 A 
ATOM      8  C   UNL     1     101.629 129.095  84.148  0.00  0.00    +0.000 A 
ENDBRANCH   1   3
BRANCH   1   9
ATOM      9  O   UNL     1     101.611 126.580  83.117  0.00  0.00    +0.000 OA
BRANCH   9  13
ATOM     10  C   UNL     1     104.774 125.681  80.437  0.00  0.00    +0.000 C 
ATOM     11  C   UNL     1     104.063 124.510  81.109  0.00  0.00    +0.000 C 
ATOM     12  C   UNL     1     103.241 124.966  82.310  0.00  0.00    +0.000 C 
ATOM     13  C   UNL     1     102.252 126.072  81.932  0.00  0.00    +0.000 C 
ATOM     14  C   UNL     1     102.979 127.245  81.269  0.00  0.00    +0.000 C 
ATOM     15  C   UNL     1     103.799 126.794  80.065  0.00  0.00    +0.000 C 
ENDBRANCH   9  13
ENDBRANCH   1   9
TORSDOF 3
ENDMDL
