MODEL 1
REMARK VINA RESULT:      -4.5      0.000      0.000
REMARK  Name = *****
REMARK  4 active torsions:
REMARK  status: ('A' for Active; 'I' for Inactive)
REMARK    1  A    between atoms: C_4  and  O_7
REMARK    2  A    between atoms: O_7  and  S_8
REMARK    3  A    between atoms: S_8  and  C_9
REMARK    4  A    between atoms: C_9  and  C_11
REMARK                            x       y       z     vdW  Elec       q    Type
REMARK                         _______ _______ _______ _____ _____    ______ ____
ROOT
ATOM      1  S   UNL     1     100.747 126.541  83.372  0.00  0.00    +0.000 S 
ENDROOT
BRANCH   1   2
ATOM      2  C   UNL     1      99.329 127.541  83.016  0.00  0.00    +0.000 C 
ATOM      3  O   UNL     1      98.585 127.296  82.071  0.00  0.00    +0.000 OA
BRANCH   2   4
ATOM      4  C   UNL     1      99.051 128.710  83.906  0.00  0.00    +0.000 A 
ATOM      5  C   UNL     1      98.377 128.621  85.134  0.00  0.00    +0.000 A 
ATOM      6  C   UNL     1      98.161 129.765  85.909  0.00  0.00    +0.000 A 
ATOM      7  C   UNL     1      98.614 131.007  85.470  0.00  0.00    +0.000 A 
ATOM      8  C   UNL     1      99.285 131.111  84.254  0.00  0.00    +0.000 A 
ATOM      9  C   UNL     1      99.504 129.971  83.478  0.00  0.00    +0.000 A 
ENDBRANCH   2   4
ENDBRANCH   1   2
BRANCH   1  10
ATOM     10  O   UNL     1     101.888 127.526  82.655  0.00  0.00    +0.000 OA
BRANCH  10  14
ATOM     11  C   UNL     1     104.194 124.925  80.223  0.00  0.00    +0.000 C 
ATOM     12  C   UNL     1     104.444 126.423  80.084  0.00  0.00    +0.000 C 
ATOM     13  C   UNL     1     103.311 127.244  80.694  0.00  0.00    +0.000 C 
ATOM     14  C   UNL     1     103.052 126.860  82.155  0.00  0.00    +0.000 C 
ATOM     15  C   UNL     1     102.798 125.354  82.278  0.00  0.00    +0.000 C 
ATOM     16  C   UNL     1     103.931 124.533  81.674  0.00  0.00    +0.000 C 
ENDBRANCH  10  14
ENDBRANCH   1  10
TORSDOF 4
ENDMDL
