MODEL 1
REMARK VINA RESULT:      -4.5      0.000      0.000
REMARK  Name = *****
REMARK  4 active torsions:
REMARK  status: ('A' for Active; 'I' for Inactive)
REMARK    1  A    between atoms: C_1  and  C_2
REMARK    2  A    between atoms: C_5  and  C_8
REMARK    3  A    between atoms: N_9  and  C_10
REMARK    4  A    between atoms: C_15  and  S_16
REMARK                            x       y       z     vdW  Elec       q    Type
REMARK                         _______ _______ _______ _____ _____    ______ ____
ROOT
ATOM      1  C   UNL     1     102.429 127.215  82.289  0.00  0.00    +0.000 C 
ATOM      2  N   UNL     1     101.708 127.224  83.367  0.00  0.00    +0.000 NA
ENDROOT
BRANCH   1   7
ATOM      3  C   UNL     1     105.222 122.503  80.455  0.00  0.00    +0.000 C 
ATOM      4  C   UNL     1     104.521 123.738  80.943  0.00  0.00    +0.000 A 
ATOM      5  C   UNL     1     104.087 123.824  82.272  0.00  0.00    +0.000 A 
ATOM      6  C   UNL     1     103.406 124.957  82.722  0.00  0.00    +0.000 A 
ATOM      7  C   UNL     1     103.146 126.007  81.839  0.00  0.00    +0.000 A 
ATOM      8  C   UNL     1     103.560 125.926  80.508  0.00  0.00    +0.000 A 
ATOM      9  C   UNL     1     104.241 124.790  80.062  0.00  0.00    +0.000 A 
ENDBRANCH   1   7
BRANCH   2  10
ATOM     10  C   UNL     1     101.084 128.450  83.675  0.00  0.00    +0.000 A 
ATOM     11  C   UNL     1     101.844 129.476  84.250  0.00  0.00    +0.000 A 
ATOM     12  C   UNL     1     101.264 130.706  84.563  0.00  0.00    +0.000 A 
ATOM     13  C   UNL     1      99.915 130.926  84.294  0.00  0.00    +0.000 A 
ATOM     14  C   UNL     1      99.148 129.919  83.705  0.00  0.00    +0.000 A 
ATOM     15  C   UNL     1      99.725 128.683  83.386  0.00  0.00    +0.000 A 
BRANCH  15  16
ATOM     16  S   UNL     1      98.703 127.434  82.616  0.00  0.00    +0.000 S 
ATOM     17  H   UNL     1      98.087 127.961  81.524  0.00  0.00    +0.000 HD
ENDBRANCH  15  16
ENDBRANCH   2  10
TORSDOF 3
ENDMDL
