MODEL 1
REMARK VINA RESULT:      -4.3      0.000      0.000
REMARK  Name = *****
REMARK  6 active torsions:
REMARK  status: ('A' for Active; 'I' for Inactive)
REMARK    1  A    between atoms: C_1  and  N_2
REMARK    2  A    between atoms: N_2  and  C_3
REMARK    3  A    between atoms: N_2  and  S_11
REMARK    4  A    between atoms: C_6  and  O_9
REMARK    5  A    between atoms: O_9  and  C_10
REMARK    6  A    between atoms: S_11  and  C_12
REMARK                            x       y       z     vdW  Elec       q    Type
REMARK                         _______ _______ _______ _____ _____    ______ ____
ROOT
ATOM      1  C   UNL     1      89.745  70.663  86.337  0.00  0.00    +0.000 C 
ATOM      2  N   UNL     1      88.729  69.845  87.001  0.00  0.00    +0.000 N 
ENDROOT
BRANCH   2   3
ATOM      3  C   UNL     1      88.827  68.437  86.888  0.00  0.00    +0.000 A 
ATOM      4  C   UNL     1      87.840  67.558  87.368  0.00  0.00    +0.000 A 
ATOM      5  C   UNL     1      87.963  66.163  87.250  0.00  0.00    +0.000 A 
ATOM      6  C   UNL     1      89.089  65.604  86.655  0.00  0.00    +0.000 A 
ATOM      7  C   UNL     1      90.091  66.452  86.190  0.00  0.00    +0.000 A 
ATOM      8  C   UNL     1      89.962  67.841  86.305  0.00  0.00    +0.000 A 
BRANCH   6   9
ATOM      9  O   UNL     1      89.332  64.271  86.477  0.00  0.00    +0.000 OA
ATOM     10  C   UNL     1      88.268  63.490  85.950  0.00  0.00    +0.000 C 
ENDBRANCH   6   9
ENDBRANCH   2   3
BRANCH   2  11
ATOM     11  S   UNL     1      88.114  70.485  88.439  0.00  0.00    +0.000 S 
BRANCH  11  12
ATOM     12  C   UNL     1      86.609  71.260  87.858  0.00  0.00    +0.000 A 
ATOM     13  C   UNL     1      86.318  71.409  86.498  0.00  0.00    +0.000 A 
ATOM     14  C   UNL     1      85.123  72.007  86.089  0.00  0.00    +0.000 A 
ATOM     15  C   UNL     1      84.207  72.454  87.040  0.00  0.00    +0.000 A 
ATOM     16  C   UNL     1      84.483  72.303  88.397  0.00  0.00    +0.000 A 
ATOM     17  C   UNL     1      85.678  71.707  88.804  0.00  0.00    +0.000 A 
ENDBRANCH  11  12
ENDBRANCH   2  11
TORSDOF 4
ENDMDL
