MODEL 1
REMARK VINA RESULT:      -4.9      0.000      0.000
REMARK  Name = *****
REMARK  2 active torsions:
REMARK  status: ('A' for Active; 'I' for Inactive)
REMARK    1  A    between atoms: C_3  and  N_8
REMARK    2  A    between atoms: C_9  and  C_11
REMARK                            x       y       z     vdW  Elec       q    Type
REMARK                         _______ _______ _______ _____ _____    ______ ____
ROOT
ATOM      1  N   UNL     1     101.993 126.019  82.192  0.00  0.00    +0.000 N 
ATOM      2  C   UNL     1     102.981 126.212  81.244  0.00  0.00    +0.000 C 
ATOM      3  O   UNL     1     103.210 127.237  80.615  0.00  0.00    +0.000 OA
ATOM      4  H   UNL     1     101.992 125.150  82.653  0.00  0.00    +0.000 HD
ENDROOT
BRANCH   1   7
ATOM      5  C   UNL     1      98.680 127.687  82.732  0.00  0.00    +0.000 A 
ATOM      6  C   UNL     1      99.623 126.739  82.319  0.00  0.00    +0.000 A 
ATOM      7  C   UNL     1     100.983 126.932  82.571  0.00  0.00    +0.000 A 
ATOM      8  C   UNL     1     101.388 128.088  83.250  0.00  0.00    +0.000 A 
ATOM      9  C   UNL     1     100.444 129.030  83.660  0.00  0.00    +0.000 A 
ATOM     10  C   UNL     1      99.090 128.836  83.404  0.00  0.00    +0.000 A 
ATOM     11 CL   UNL     1     100.960 130.446  84.493  0.00  0.00    +0.000 Cl
ENDBRANCH   1   7
BRANCH   2  12
ATOM     12  C   UNL     1     103.874 125.037  81.023  0.00  0.00    +0.000 A 
ATOM     13  C   UNL     1     104.665 124.920  79.869  0.00  0.00    +0.000 A 
ATOM     14  C   UNL     1     105.493 123.806  79.706  0.00  0.00    +0.000 A 
ATOM     15  C   UNL     1     105.532 122.826  80.693  0.00  0.00    +0.000 A 
ATOM     16  C   UNL     1     104.766 122.940  81.848  0.00  0.00    +0.000 A 
ATOM     17  C   UNL     1     103.939 124.051  82.018  0.00  0.00    +0.000 A 
ATOM     18  F   UNL     1     106.328 121.762  80.531  0.00  0.00    +0.000 F 
ENDBRANCH   2  12
TORSDOF 2
ENDMDL
