REMARK  Name = *****
REMARK  3 active torsions:
REMARK  status: ('A' for Active; 'I' for Inactive)
REMARK    1  A    between atoms: C_4  and  N_7
REMARK    2  A    between atoms: N_7  and  C_8
REMARK    3  A    between atoms: C_8  and  C_9
REMARK                            x       y       z     vdW  Elec       q    Type
REMARK                         _______ _______ _______ _____ _____    ______ ____
ROOT
ATOM      1  N   UNL     1      -2.664   0.540   0.029  0.00  0.00    +0.000 N 
ATOM      2  C   UNL     1      -3.762  -0.356   0.079  0.00  0.00    +0.000 C 
ATOM      3  O   UNL     1      -3.638  -1.543   0.381  0.00  0.00    +0.000 OA
ATOM      4 CL   UNL     1      -5.361   0.297  -0.262  0.00  0.00    +0.000 Cl
ENDROOT
BRANCH   1   8
ATOM      5  C   UNL     1       1.364  -0.887   0.244  0.00  0.00    +0.000 A 
ATOM      6  C   UNL     1       0.362  -1.688  -0.287  0.00  0.00    +0.000 A 
ATOM      7  C   UNL     1      -0.957  -1.222  -0.344  0.00  0.00    +0.000 A 
ATOM      8  C   UNL     1      -1.307   0.054   0.130  0.00  0.00    +0.000 A 
ATOM      9  C   UNL     1      -0.274   0.844   0.661  0.00  0.00    +0.000 A 
ATOM     10  C   UNL     1       1.046   0.379   0.720  0.00  0.00    +0.000 A 
ENDBRANCH   1   8
BRANCH   1  11
ATOM     11  C   UNL     1      -2.888   1.983  -0.155  0.00  0.00    +0.000 C 
BRANCH  11  12
ATOM     12  C   UNL     1      -3.083   2.389  -1.604  0.00  0.00    +0.000 A 
ATOM     13  C   UNL     1      -2.154   2.030  -2.594  0.00  0.00    +0.000 A 
ATOM     14  C   UNL     1      -2.338   2.438  -3.916  0.00  0.00    +0.000 A 
ATOM     15  C   UNL     1      -3.437   3.216  -4.270  0.00  0.00    +0.000 A 
ATOM     16  C   UNL     1      -4.358   3.593  -3.294  0.00  0.00    +0.000 A 
ATOM     17  C   UNL     1      -4.179   3.188  -1.970  0.00  0.00    +0.000 A 
ATOM     18 CL   UNL     1      -1.193   1.982  -5.116  0.00  0.00    +0.000 Cl
ENDBRANCH  11  12
ENDBRANCH   1  11
TORSDOF 3
