REMARK  Name = *****
REMARK  6 active torsions:
REMARK  status: ('A' for Active; 'I' for Inactive)
REMARK    1  A    between atoms: C_1  and  C_2
REMARK    2  A    between atoms: C_3  and  N_11
REMARK    3  A    between atoms: C_5  and  C_8
REMARK    4  A    between atoms: C_8  and  C_10
REMARK    5  A    between atoms: N_11  and  C_12
REMARK    6  A    between atoms: C_12  and  C_13
REMARK                            x       y       z     vdW  Elec       q    Type
REMARK                         _______ _______ _______ _____ _____    ______ ____
ROOT
ATOM      1  C   UNL     1       2.688  -0.294  -0.378  0.00  0.00    +0.000 C 
ATOM      2  C   UNL     1       1.196  -0.112  -0.288  0.00  0.00    +0.000 C 
ATOM      3  C   UNL     1       0.596   1.095  -0.205  0.00  0.00    +0.000 C 
ATOM      4  C   UNL     1      -0.913   1.245  -0.131  0.00  0.00    +0.000 C 
ATOM      5  C   UNL     1      -1.637  -0.053   0.271  0.00  0.00    +0.000 C 
ATOM      6  C   UNL     1      -1.088  -1.225  -0.552  0.00  0.00    +0.000 C 
ATOM      7  C   UNL     1       0.411  -1.403  -0.306  0.00  0.00    +0.000 C 
ENDROOT
BRANCH   5   8
ATOM      8  C   UNL     1      -3.154   0.067   0.179  0.00  0.00    +0.000 C 
ATOM      9  C   UNL     1      -3.920   0.004   1.283  0.00  0.00    +0.000 C 
ATOM     10  C   UNL     1      -3.781   0.251  -1.177  0.00  0.00    +0.000 C 
ENDBRANCH   5   8
BRANCH   3  11
ATOM     11  N   UNL     1       1.308   2.269  -0.236  0.00  0.00    +0.000 NA
BRANCH  11  12
ATOM     12  C   UNL     1       1.594   2.759   0.930  0.00  0.00    +0.000 C 
BRANCH  12  13
ATOM     13  C   UNL     1       2.355   4.015   1.084  0.00  0.00    +0.000 A 
ATOM     14  C   UNL     1       2.786   4.732  -0.035  0.00  0.00    +0.000 A 
ATOM     15  C   UNL     1       3.504   5.917   0.135  0.00  0.00    +0.000 A 
ATOM     16  C   UNL     1       3.791   6.380   1.420  0.00  0.00    +0.000 A 
ATOM     17  C   UNL     1       3.361   5.662   2.537  0.00  0.00    +0.000 A 
ATOM     18  C   UNL     1       2.641   4.477   2.372  0.00  0.00    +0.000 A 
ENDBRANCH  12  13
ENDBRANCH  11  12
ENDBRANCH   3  11
TORSDOF 4
