REMARK  Name = *****
REMARK  5 active torsions:
REMARK  status: ('A' for Active; 'I' for Inactive)
REMARK    1  A    between atoms: C_1  and  C_2
REMARK    2  A    between atoms: C_5  and  C_8
REMARK    3  A    between atoms: C_8  and  O_10
REMARK    4  A    between atoms: O_10  and  C_11
REMARK    5  A    between atoms: C_11  and  C_13
REMARK                            x       y       z     vdW  Elec       q    Type
REMARK                         _______ _______ _______ _____ _____    ______ ____
ROOT
ATOM      1  C   UNL     1      -3.496  -0.022  -0.112  0.00  0.00    +0.000 C 
ATOM      2  O   UNL     1      -4.134  -1.065  -0.106  0.00  0.00    +0.000 OA
ENDROOT
BRANCH   1   7
ATOM      3  C   UNL     1       2.300  -0.066   0.217  0.00  0.00    +0.000 C 
ATOM      4  C   UNL     1       0.804  -0.037   0.104  0.00  0.00    +0.000 A 
ATOM      5  C   UNL     1       0.120   1.182   0.031  0.00  0.00    +0.000 A 
ATOM      6  C   UNL     1      -1.277   1.210  -0.043  0.00  0.00    +0.000 A 
ATOM      7  C   UNL     1      -2.008   0.014  -0.034  0.00  0.00    +0.000 A 
ATOM      8  C   UNL     1      -1.323  -1.205   0.056  0.00  0.00    +0.000 A 
ATOM      9  C   UNL     1       0.072  -1.229   0.129  0.00  0.00    +0.000 A 
ENDBRANCH   1   7
BRANCH   1  10
ATOM     10  O   UNL     1      -3.984   1.252  -0.194  0.00  0.00    +0.000 OA
BRANCH  10  11
ATOM     11  C   UNL     1      -5.386   1.306  -0.239  0.00  0.00    +0.000 C 
ATOM     12  C   UNL     1      -6.039   1.253  -1.408  0.00  0.00    +0.000 C 
BRANCH  11  13
ATOM     13  C   UNL     1      -6.054   1.542   1.053  0.00  0.00    +0.000 A 
ATOM     14  C   UNL     1      -7.210   0.834   1.412  0.00  0.00    +0.000 A 
ATOM     15  C   UNL     1      -7.829   1.057   2.645  0.00  0.00    +0.000 A 
ATOM     16  C   UNL     1      -7.296   1.987   3.535  0.00  0.00    +0.000 A 
ATOM     17  C   UNL     1      -6.142   2.690   3.197  0.00  0.00    +0.000 A 
ATOM     18  C   UNL     1      -5.522   2.467   1.964  0.00  0.00    +0.000 A 
ENDBRANCH  11  13
ENDBRANCH  10  11
ENDBRANCH   1  10
TORSDOF 4
