MODEL 1
REMARK VINA RESULT:      -4.9      0.000      0.000
REMARK  Name = *****
REMARK  1 active torsions:
REMARK  status: ('A' for Active; 'I' for Inactive)
REMARK    1  A    between atoms: C_10  and  C_12
REMARK                            x       y       z     vdW  Elec       q    Type
REMARK                         _______ _______ _______ _____ _____    ______ ____
ROOT
ATOM      1  C   UNL     1     103.795 125.087  80.350  0.00  0.00    +0.000 C 
ATOM      2  C   UNL     1     104.342 124.032  81.253  0.00  0.00    +0.000 A 
ATOM      3  C   UNL     1     103.914 124.005  82.577  0.00  0.00    +0.000 A 
ATOM      4  C   UNL     1     104.410 123.025  83.440  0.00  0.00    +0.000 A 
ATOM      5  C   UNL     1     105.328 122.074  82.987  0.00  0.00    +0.000 A 
ATOM      6  C   UNL     1     105.750 122.107  81.661  0.00  0.00    +0.000 A 
ATOM      7  C   UNL     1     105.262 123.081  80.791  0.00  0.00    +0.000 A 
ATOM      8 CL   UNL     1     106.880 120.942  81.091  0.00  0.00    +0.000 Cl
ATOM      9  N   UNL     1     103.002 124.936  83.064  0.00  0.00    +0.000 NA
ATOM     10  C   UNL     1     102.557 125.854  82.271  0.00  0.00    +0.000 C 
ATOM     11  O   UNL     1     102.888 126.012  80.970  0.00  0.00    +0.000 OA
ENDROOT
BRANCH  10  12
ATOM     12  C   UNL     1     101.586 126.893  82.707  0.00  0.00    +0.000 A 
ATOM     13  C   UNL     1     101.995 128.068  83.358  0.00  0.00    +0.000 A 
ATOM     14  C   UNL     1     101.051 129.020  83.752  0.00  0.00    +0.000 A 
ATOM     15  C   UNL     1      99.702 128.798  83.495  0.00  0.00    +0.000 A 
ATOM     16  C   UNL     1      99.278 127.641  82.853  0.00  0.00    +0.000 A 
ATOM     17  C   UNL     1     100.219 126.688  82.458  0.00  0.00    +0.000 A 
ATOM     18  F   UNL     1      98.801 129.712  83.874  0.00  0.00    +0.000 F 
ENDBRANCH  10  12
TORSDOF 1
ENDMDL
