REMARK  Name = *****
REMARK  1 active torsions:
REMARK  status: ('A' for Active; 'I' for Inactive)
REMARK    1  A    between atoms: C_10  and  C_12
REMARK                            x       y       z     vdW  Elec       q    Type
REMARK                         _______ _______ _______ _____ _____    ______ ____
ROOT
ATOM      1  C   UNL     1      -2.081  -0.848   0.393  0.00  0.00    +0.000 A 
ATOM      2  C   UNL     1      -2.253   0.493   0.043  0.00  0.00    +0.000 A 
ATOM      3  C   UNL     1      -1.158   1.317  -0.242  0.00  0.00    +0.000 A 
ATOM      4  C   UNL     1       0.114   0.734  -0.158  0.00  0.00    +0.000 A 
ATOM      5  C   UNL     1       0.308  -0.597   0.191  0.00  0.00    +0.000 A 
ATOM      6  C   UNL     1      -0.800  -1.409   0.472  0.00  0.00    +0.000 A 
ATOM      7  N   UNL     1       1.643  -0.886   0.196  0.00  0.00    +0.000 NA
ATOM      8  N   UNL     1       2.304   0.213  -0.136  0.00  0.00    +0.000 NA
ATOM      9  N   UNL     1       1.399   1.203  -0.359  0.00  0.00    +0.000 N 
ATOM     10  C   UNL     1       1.847   2.479  -0.720  0.00  0.00    +0.000 C 
ATOM     11  O   UNL     1       1.025   3.378  -0.887  0.00  0.00    +0.000 OA
ENDROOT
BRANCH  10  12
ATOM     12  C   UNL     1       3.267   2.787  -0.909  0.00  0.00    +0.000 A 
ATOM     13  C   UNL     1       3.868   2.403  -2.104  0.00  0.00    +0.000 A 
ATOM     14  C   UNL     1       5.213   2.672  -2.340  0.00  0.00    +0.000 A 
ATOM     15  C   UNL     1       5.963   3.333  -1.368  0.00  0.00    +0.000 A 
ATOM     16  C   UNL     1       5.364   3.719  -0.165  0.00  0.00    +0.000 A 
ATOM     17  C   UNL     1       4.012   3.445   0.068  0.00  0.00    +0.000 A 
ATOM     18 CL   UNL     1       3.329   3.916   1.580  0.00  0.00    +0.000 Cl
ATOM     19  F   UNL     1       3.157   1.770  -3.048  0.00  0.00    +0.000 F 
ENDBRANCH  10  12
TORSDOF 1
