REMARK  Name = *****
REMARK  6 active torsions:
REMARK  status: ('A' for Active; 'I' for Inactive)
REMARK    1  A    between atoms: C_1  and  C_2
REMARK    2  A    between atoms: C_4  and  C_18
REMARK    3  A    between atoms: C_6  and  O_8
REMARK    4  A    between atoms: O_8  and  C_9
REMARK    5  A    between atoms: C_9  and  C_11
REMARK    6  A    between atoms: C_11  and  C_12
REMARK                            x       y       z     vdW  Elec       q    Type
REMARK                         _______ _______ _______ _____ _____    ______ ____
ROOT
ATOM      1  O   UNL     1       0.498  -2.885   0.881  0.00  0.00    +0.000 OA
ENDROOT
BRANCH   1   7
ATOM      2  C   UNL     1       2.318   1.633   0.070  0.00  0.00    +0.000 C 
ATOM      3  C   UNL     1       1.164   0.679   0.171  0.00  0.00    +0.000 A 
ATOM      4  C   UNL     1      -0.141   1.111  -0.111  0.00  0.00    +0.000 A 
ATOM      5  C   UNL     1      -1.228   0.226  -0.042  0.00  0.00    +0.000 A 
ATOM      6  C   UNL     1      -0.995  -1.117   0.272  0.00  0.00    +0.000 A 
ATOM      7  C   UNL     1       0.307  -1.549   0.515  0.00  0.00    +0.000 A 
ATOM      8  C   UNL     1       1.384  -0.665   0.486  0.00  0.00    +0.000 A 
ATOM      9  C   UNL     1      -2.614   0.701  -0.364  0.00  0.00    +0.000 C 
ENDBRANCH   1   7
BRANCH   1  10
ATOM     10  C   UNL     1       1.175  -3.651  -0.064  0.00  0.00    +0.000 C 
ATOM     11  O   UNL     1       1.551  -3.287  -1.173  0.00  0.00    +0.000 OA
BRANCH  10  12
ATOM     12  C   UNL     1       1.378  -5.045   0.478  0.00  0.00    +0.000 C 
BRANCH  12  13
ATOM     13  C   UNL     1       2.426  -5.103   1.559  0.00  0.00    +0.000 A 
ATOM     14  C   UNL     1       2.058  -5.195   2.908  0.00  0.00    +0.000 A 
ATOM     15  C   UNL     1       3.033  -5.228   3.906  0.00  0.00    +0.000 A 
ATOM     16  C   UNL     1       4.383  -5.164   3.566  0.00  0.00    +0.000 A 
ATOM     17  C   UNL     1       4.760  -5.066   2.228  0.00  0.00    +0.000 A 
ATOM     18  C   UNL     1       3.787  -5.034   1.228  0.00  0.00    +0.000 A 
ENDBRANCH  12  13
ENDBRANCH  10  12
ENDBRANCH   1  10
TORSDOF 4
