MODEL 1
REMARK VINA RESULT:      -4.3      0.000      0.000
REMARK  Name = *****
REMARK  1 active torsions:
REMARK  status: ('A' for Active; 'I' for Inactive)
REMARK    1  A    between atoms: C_4  and  C_7
REMARK                            x       y       z     vdW  Elec       q    Type
REMARK                         _______ _______ _______ _____ _____    ______ ____
ROOT
ATOM      1  C   UNL     1     102.831 126.269  81.648  0.00  0.00    +0.000 A 
ATOM      2  C   UNL     1     103.224 124.969  81.907  0.00  0.00    +0.000 A 
ATOM      3  C   UNL     1     104.248 124.543  81.010  0.00  0.00    +0.000 A 
ATOM      4  C   UNL     1     104.609 125.509  80.113  0.00  0.00    +0.000 A 
ATOM      5  S   UNL     1     103.706 126.980  80.347  0.00  0.00    +0.000 S 
ATOM      6  C   UNL     1     105.628 125.081  79.210  0.00  0.00    +0.000 A 
ATOM      7  C   UNL     1     106.002 123.784  79.477  0.00  0.00    +0.000 A 
ATOM      8  S   UNL     1     105.155 123.070  80.784  0.00  0.00    +0.000 S 
ENDROOT
BRANCH   1  12
ATOM      9  C   UNL     1      99.914 128.581  83.777  0.00  0.00    +0.000 A 
ATOM     10  C   UNL     1     101.254 128.962  83.781  0.00  0.00    +0.000 A 
ATOM     11  C   UNL     1     102.198 128.206  83.081  0.00  0.00    +0.000 A 
ATOM     12  C   UNL     1     101.816 127.060  82.365  0.00  0.00    +0.000 A 
ATOM     13  C   UNL     1     100.463 126.687  82.377  0.00  0.00    +0.000 A 
ATOM     14  C   UNL     1      99.518 127.445  83.076  0.00  0.00    +0.000 A 
ENDBRANCH   1  12
TORSDOF 1
ENDMDL
