MODEL 1
REMARK VINA RESULT:      -4.4      0.000      0.000
REMARK  Name = *****
REMARK  3 active torsions:
REMARK  status: ('A' for Active; 'I' for Inactive)
REMARK    1  A    between atoms: C_4  and  C_7
REMARK    2  A    between atoms: C_7  and  N_8
REMARK    3  A    between atoms: C_9  and  C_10
REMARK                            x       y       z     vdW  Elec       q    Type
REMARK                         _______ _______ _______ _____ _____    ______ ____
ROOT
ATOM      1  N   UNL     1     103.492 128.918  83.325  0.00  0.00    +0.000 NA
ATOM      2  C   UNL     1     104.221 128.496  82.352  0.00  0.00    +0.000 C 
ATOM      3 CL   UNL     1     105.220 129.708  81.618  0.00  0.00    +0.000 Cl
ENDROOT
BRANCH   2   4
ATOM      4  C   UNL     1     104.274 127.114  81.825  0.00  0.00    +0.000 A 
ATOM      5  C   UNL     1     105.061 126.150  82.470  0.00  0.00    +0.000 A 
ATOM      6  C   UNL     1     105.091 124.846  81.974  0.00  0.00    +0.000 A 
ATOM      7  C   UNL     1     104.333 124.519  80.853  0.00  0.00    +0.000 A 
ATOM      8  C   UNL     1     103.540 125.470  80.217  0.00  0.00    +0.000 A 
ATOM      9  C   UNL     1     103.505 126.777  80.706  0.00  0.00    +0.000 A 
ATOM     10  F   UNL     1     104.364 123.266  80.381  0.00  0.00    +0.000 F 
ENDBRANCH   2   4
BRANCH   1  11
ATOM     11  C   UNL     1     102.659 127.982  84.078  0.00  0.00    +0.000 C 
BRANCH  11  15
ATOM     12  C   UNL     1      98.582 127.952  82.639  0.00  0.00    +0.000 A 
ATOM     13  C   UNL     1      99.090 129.092  83.255  0.00  0.00    +0.000 A 
ATOM     14  C   UNL     1     100.402 129.106  83.732  0.00  0.00    +0.000 A 
ATOM     15  C   UNL     1     101.219 127.973  83.610  0.00  0.00    +0.000 A 
ATOM     16  C   UNL     1     100.699 126.834  82.974  0.00  0.00    +0.000 A 
ATOM     17  C   UNL     1      99.386 126.823  82.497  0.00  0.00    +0.000 A 
ENDBRANCH  11  15
ENDBRANCH   1  11
TORSDOF 3
ENDMDL
