MODEL 1
REMARK VINA RESULT:      -4.7      0.000      0.000
REMARK  Name = *****
REMARK  1 active torsions:
REMARK  status: ('A' for Active; 'I' for Inactive)
REMARK    1  A    between atoms: C_5  and  C_8
REMARK                            x       y       z     vdW  Elec       q    Type
REMARK                         _______ _______ _______ _____ _____    ______ ____
ROOT
ATOM      1  C   UNL     1     102.552 126.236  82.457  0.00  0.00    +0.000 A 
ATOM      2  N   UNL     1     102.615 127.409  83.085  0.00  0.00    +0.000 NA
ATOM      3  C   UNL     1     101.325 127.862  83.146  0.00  0.00    +0.000 A 
ATOM      4  C   UNL     1     100.779 129.033  83.688  0.00  0.00    +0.000 A 
ATOM      5  C   UNL     1      99.391 129.217  83.596  0.00  0.00    +0.000 A 
ATOM      6  C   UNL     1      98.572 128.261  82.980  0.00  0.00    +0.000 A 
ATOM      7  C   UNL     1      99.107 127.086  82.436  0.00  0.00    +0.000 A 
ATOM      8  C   UNL     1     100.484 126.945  82.549  0.00  0.00    +0.000 A 
ATOM      9  O   UNL     1     101.246 125.910  82.107  0.00  0.00    +0.000 OA
ENDROOT
BRANCH   1  14
ATOM     10  C   UNL     1     105.446 123.370  80.243  0.00  0.00    +0.000 C 
ATOM     11  C   UNL     1     104.835 122.514  81.350  0.00  0.00    +0.000 C 
ATOM     12  C   UNL     1     104.832 123.182  82.723  0.00  0.00    +0.000 C 
ATOM     13  C   UNL     1     103.776 124.234  82.883  0.00  0.00    +0.000 C 
ATOM     14  C   UNL     1     103.657 125.360  82.147  0.00  0.00    +0.000 C 
ATOM     15  C   UNL     1     104.659 125.671  81.052  0.00  0.00    +0.000 C 
ATOM     16  C   UNL     1     104.673 124.647  79.915  0.00  0.00    +0.000 C 
ENDBRANCH   1  14
TORSDOF 1
ENDMDL
