REMARK  Name = *****
REMARK  3 active torsions:
REMARK  status: ('A' for Active; 'I' for Inactive)
REMARK    1  A    between atoms: C_3  and  C_11
REMARK    2  A    between atoms: C_5  and  C_7
REMARK    3  A    between atoms: C_12  and  C_13
REMARK                            x       y       z     vdW  Elec       q    Type
REMARK                         _______ _______ _______ _____ _____    ______ ____
ROOT
ATOM      1  C   UNL     1       1.269  -0.009   0.668  0.00  0.00    +0.000 A 
ATOM      2  C   UNL     1       0.432  -1.126   0.713  0.00  0.00    +0.000 A 
ATOM      3  C   UNL     1      -0.819  -1.107   0.084  0.00  0.00    +0.000 A 
ATOM      4  C   UNL     1      -1.229   0.064  -0.568  0.00  0.00    +0.000 A 
ATOM      5  C   UNL     1      -0.397   1.195  -0.621  0.00  0.00    +0.000 A 
ATOM      6  C   UNL     1       0.858   1.144   0.002  0.00  0.00    +0.000 A 
ENDROOT
BRANCH   5   7
ATOM      7  C   UNL     1      -0.835   2.453  -1.329  0.00  0.00    +0.000 C 
ATOM      8  F   UNL     1      -2.066   2.355  -1.906  0.00  0.00    +0.000 F 
ATOM      9  F   UNL     1      -0.901   3.525  -0.493  0.00  0.00    +0.000 F 
ATOM     10  F   UNL     1       0.016   2.812  -2.330  0.00  0.00    +0.000 F 
ENDBRANCH   5   7
BRANCH   3  11
ATOM     11  C   UNL     1      -1.742  -2.250   0.135  0.00  0.00    +0.000 C 
ATOM     12  C   UNL     1      -1.351  -3.533   0.065  0.00  0.00    +0.000 C 
BRANCH  12  13
ATOM     13  C   UNL     1      -2.276  -4.672   0.113  0.00  0.00    +0.000 A 
ATOM     14  C   UNL     1      -1.900  -5.850   0.757  0.00  0.00    +0.000 A 
ATOM     15  N   UNL     1      -2.666  -6.966   0.831  0.00  0.00    +0.000 NA
ATOM     16  C   UNL     1      -3.869  -6.912   0.222  0.00  0.00    +0.000 A 
ATOM     17  C   UNL     1      -4.336  -5.800  -0.459  0.00  0.00    +0.000 A 
ATOM     18  C   UNL     1      -3.523  -4.668  -0.517  0.00  0.00    +0.000 A 
ENDBRANCH  12  13
ENDBRANCH   3  11
TORSDOF 3
