MODEL 1
REMARK VINA RESULT:      -4.5      0.000      0.000
REMARK  Name = *****
REMARK  2 active torsions:
REMARK  status: ('A' for Active; 'I' for Inactive)
REMARK    1  A    between atoms: C_4  and  C_7
REMARK    2  A    between atoms: C_8  and  C_9
REMARK                            x       y       z     vdW  Elec       q    Type
REMARK                         _______ _______ _______ _____ _____    ______ ____
ROOT
ATOM      1  C   UNL     1     102.166 126.274  81.961  0.00  0.00    +0.000 C 
ATOM      2  C   UNL     1     103.045 125.608  81.487  0.00  0.00    +0.000 C 
ENDROOT
BRANCH   2   3
ATOM      3  C   UNL     1     104.094 124.822  80.927  0.00  0.00    +0.000 A 
ATOM      4  C   UNL     1     104.651 123.694  81.482  0.00  0.00    +0.000 A 
ATOM      5  S   UNL     1     105.874 123.073  80.477  0.00  0.00    +0.000 S 
ATOM      6  C   UNL     1     105.565 124.351  79.396  0.00  0.00    +0.000 A 
ATOM      7  N   UNL     1     104.625 125.208  79.712  0.00  0.00    +0.000 NA
ATOM      8 CL   UNL     1     106.475 124.479  77.945  0.00  0.00    +0.000 Cl
ATOM      9 CL   UNL     1     104.272 122.908  82.958  0.00  0.00    +0.000 Cl
ENDBRANCH   2   3
BRANCH   1  13
ATOM     10  C   UNL     1      99.077 128.623  83.626  0.00  0.00    +0.000 A 
ATOM     11  C   UNL     1     100.409 128.996  83.803  0.00  0.00    +0.000 A 
ATOM     12  C   UNL     1     101.431 128.221  83.254  0.00  0.00    +0.000 A 
ATOM     13  C   UNL     1     101.120 127.070  82.525  0.00  0.00    +0.000 A 
ATOM     14  C   UNL     1      99.785 126.698  82.348  0.00  0.00    +0.000 A 
ATOM     15  C   UNL     1      98.764 127.475  82.899  0.00  0.00    +0.000 A 
ENDBRANCH   1  13
TORSDOF 2
ENDMDL
