REMARK  Name = *****
REMARK  5 active torsions:
REMARK  status: ('A' for Active; 'I' for Inactive)
REMARK    1  A    between atoms: C_1  and  C_2
REMARK    2  A    between atoms: C_2  and  C_3
REMARK    3  A    between atoms: C_2  and  O_8
REMARK    4  A    between atoms: O_8  and  C_9
REMARK    5  A    between atoms: C_9  and  C_11
REMARK                            x       y       z     vdW  Elec       q    Type
REMARK                         _______ _______ _______ _____ _____    ______ ____
ROOT
ATOM      1  C   UNL     1       3.278  -0.546  -1.963  0.00  0.00    +0.000 C 
ATOM      2  O   UNL     1       4.060   0.376  -2.123  0.00  0.00    +0.000 OA
ENDROOT
BRANCH   1   3
ATOM      3  C   UNL     1       3.131  -1.669  -2.930  0.00  0.00    +0.000 A 
ATOM      4  C   UNL     1       3.983  -1.697  -4.046  0.00  0.00    +0.000 A 
ATOM      5  C   UNL     1       3.870  -2.717  -4.994  0.00  0.00    +0.000 A 
ATOM      6  C   UNL     1       2.906  -3.704  -4.826  0.00  0.00    +0.000 A 
ATOM      7  C   UNL     1       2.054  -3.694  -3.726  0.00  0.00    +0.000 A 
ATOM      8  C   UNL     1       2.165  -2.676  -2.775  0.00  0.00    +0.000 A 
ATOM      9  F   UNL     1       2.794  -4.679  -5.737  0.00  0.00    +0.000 F 
ENDBRANCH   1   3
BRANCH   1  10
ATOM     10  O   UNL     1       2.426  -0.706  -0.922  0.00  0.00    +0.000 OA
BRANCH  10  12
ATOM     11  C   UNL     1       0.895   0.669   0.270  0.00  0.00    +0.000 C 
ATOM     12  C   UNL     1       2.373   0.356   0.051  0.00  0.00    +0.000 C 
BRANCH  12  13
ATOM     13  C   UNL     1       3.063  -0.054   1.361  0.00  0.00    +0.000 C 
ATOM     14  C   UNL     1       4.559  -0.341   1.218  0.00  0.00    +0.000 C 
ATOM     15  C   UNL     1       4.920  -1.018   2.535  0.00  0.00    +0.000 C 
ATOM     16  C   UNL     1       3.652  -1.740   2.990  0.00  0.00    +0.000 C 
ATOM     17  C   UNL     1       2.561  -1.354   1.992  0.00  0.00    +0.000 C 
ENDBRANCH  12  13
ENDBRANCH  10  12
ENDBRANCH   1  10
TORSDOF 4
