REMARK  Name = *****
REMARK  3 active torsions:
REMARK  status: ('A' for Active; 'I' for Inactive)
REMARK    1  A    between atoms: C_1  and  C_2
REMARK    2  A    between atoms: C_6  and  C_7
REMARK    3  A    between atoms: C_8  and  C_9
REMARK                            x       y       z     vdW  Elec       q    Type
REMARK                         _______ _______ _______ _____ _____    ______ ____
ROOT
ATOM      1  C   UNL     1      -0.507   1.433   1.975  0.00  0.00    +0.000 C 
ATOM      2  C   UNL     1      -0.300   2.579   2.644  0.00  0.00    +0.000 C 
ENDROOT
BRANCH   1   8
ATOM      3  C   UNL     1       2.026  -0.131   1.439  0.00  0.00    +0.000 C 
ATOM      4  C   UNL     1       0.919  -0.012   0.403  0.00  0.00    +0.000 C 
ATOM      5  C   UNL     1      -0.024  -1.218   0.387  0.00  0.00    +0.000 C 
ATOM      6  C   UNL     1      -1.326  -0.707  -0.232  0.00  0.00    +0.000 C 
ATOM      7  C   UNL     1      -1.180   0.811  -0.362  0.00  0.00    +0.000 C 
ATOM      8  C   UNL     1      -0.020   1.197   0.564  0.00  0.00    +0.000 C 
ENDBRANCH   1   8
BRANCH   2   9
ATOM      9  C   UNL     1      -0.764   2.829   4.015  0.00  0.00    +0.000 A 
ATOM     10  C   UNL     1      -0.734   1.839   5.006  0.00  0.00    +0.000 A 
ATOM     11  C   UNL     1      -1.152   2.124   6.309  0.00  0.00    +0.000 A 
ATOM     12  C   UNL     1      -1.594   3.404   6.636  0.00  0.00    +0.000 A 
ATOM     13  C   UNL     1      -1.613   4.401   5.664  0.00  0.00    +0.000 A 
ATOM     14  C   UNL     1      -1.195   4.116   4.361  0.00  0.00    +0.000 A 
ENDBRANCH   2   9
TORSDOF 2
