MODEL 1
REMARK VINA RESULT:      -4.3      0.000      0.000
REMARK  Name = *****
REMARK  2 active torsions:
REMARK  status: ('A' for Active; 'I' for Inactive)
REMARK    1  A    between atoms: C_7  and  C_8
REMARK    2  A    between atoms: C_9  and  C_10
REMARK                            x       y       z     vdW  Elec       q    Type
REMARK                         _______ _______ _______ _____ _____    ______ ____
ROOT
ATOM      1  C   UNL     1     102.336 126.034  82.216  0.00  0.00    +0.000 C 
ATOM      2  C   UNL     1     101.303 126.455  82.658  0.00  0.00    +0.000 C 
ENDROOT
BRANCH   1   9
ATOM      3  C   UNL     1     104.976 126.017  80.053  0.00  0.00    +0.000 C 
ATOM      4  C   UNL     1     105.650 126.229  81.423  0.00  0.00    +0.000 C 
ATOM      5  C   UNL     1     104.787 125.399  82.385  0.00  0.00    +0.000 C 
ATOM      6  C   UNL     1     105.006 123.906  82.100  0.00  0.00    +0.000 C 
ATOM      7  C   UNL     1     104.331 123.693  80.730  0.00  0.00    +0.000 C 
ATOM      8  C   UNL     1     103.796 125.087  80.370  0.00  0.00    +0.000 C 
ATOM      9  C   UNL     1     103.451 125.581  81.739  0.00  0.00    +0.000 C 
ENDBRANCH   1   9
BRANCH   2  10
ATOM     10  C   UNL     1     100.188 126.910  83.136  0.00  0.00    +0.000 C 
ATOM     11  C   UNL     1      99.773 127.189  84.545  0.00  0.00    +0.000 C 
ATOM     12  C   UNL     1      98.487 126.352  84.601  0.00  0.00    +0.000 C 
ATOM     13  C   UNL     1      97.919 126.461  83.171  0.00  0.00    +0.000 C 
ATOM     14  C   UNL     1      98.938 127.350  82.443  0.00  0.00    +0.000 C 
ATOM     15  C   UNL     1      98.838 128.783  82.984  0.00  0.00    +0.000 C 
ATOM     16  C   UNL     1      99.406 128.674  84.414  0.00  0.00    +0.000 C 
ENDBRANCH   2  10
TORSDOF 2
ENDMDL
