MODEL 1
REMARK VINA RESULT:      -4.5      0.000      0.000
REMARK  Name = *****
REMARK  2 active torsions:
REMARK  status: ('A' for Active; 'I' for Inactive)
REMARK    1  A    between atoms: N_7  and  C_10
REMARK    2  A    between atoms: C_10  and  C_11
REMARK                            x       y       z     vdW  Elec       q    Type
REMARK                         _______ _______ _______ _____ _____    ______ ____
ROOT
ATOM      1  C   UNL     1      85.082  71.972  87.802  0.00  0.00    +0.000 A 
ATOM      2  C   UNL     1      84.331  72.409  86.716  0.00  0.00    +0.000 A 
ATOM      3  C   UNL     1      84.817  72.287  85.411  0.00  0.00    +0.000 A 
ATOM      4  C   UNL     1      86.081  71.709  85.229  0.00  0.00    +0.000 A 
ATOM      5  C   UNL     1      86.846  71.261  86.306  0.00  0.00    +0.000 A 
ATOM      6  C   UNL     1      86.344  71.395  87.616  0.00  0.00    +0.000 A 
ATOM      7  N   UNL     1      88.056  70.721  85.894  0.00  0.00    +0.000 N 
ATOM      8  C   UNL     1      88.267  70.755  84.590  0.00  0.00    +0.000 C 
ATOM      9  S   UNL     1      86.940  71.434  83.759  0.00  0.00    +0.000 S 
ENDROOT
BRANCH   7  10
ATOM     10  C   UNL     1      89.066  70.187  86.809  0.00  0.00    +0.000 C 
BRANCH  10  11
ATOM     11  C   UNL     1      89.005  68.676  86.861  0.00  0.00    +0.000 A 
ATOM     12  C   UNL     1      87.910  68.004  87.429  0.00  0.00    +0.000 A 
ATOM     13  C   UNL     1      87.870  66.605  87.455  0.00  0.00    +0.000 A 
ATOM     14  C   UNL     1      88.914  65.868  86.905  0.00  0.00    +0.000 A 
ATOM     15  C   UNL     1      89.996  66.517  86.319  0.00  0.00    +0.000 A 
ATOM     16  C   UNL     1      90.041  67.914  86.292  0.00  0.00    +0.000 A 
ATOM     17 CL   UNL     1      88.860  64.152  86.939  0.00  0.00    +0.000 Cl
ENDBRANCH  10  11
ENDBRANCH   7  10
TORSDOF 2
ENDMDL
