REMARK  Name = *****
REMARK  3 active torsions:
REMARK  status: ('A' for Active; 'I' for Inactive)
REMARK    1  A    between atoms: C_4  and  O_6
REMARK    2  A    between atoms: O_6  and  C_7
REMARK    3  A    between atoms: C_7  and  C_9
REMARK                            x       y       z     vdW  Elec       q    Type
REMARK                         _______ _______ _______ _____ _____    ______ ____
ROOT
ATOM      1  C   UNL     1      -2.705   1.612   3.258  0.00  0.00    +0.000 A 
ATOM      2  C   UNL     1      -3.421   0.780   4.114  0.00  0.00    +0.000 A 
ATOM      3  C   UNL     1      -3.516   1.092   5.466  0.00  0.00    +0.000 A 
ATOM      4  C   UNL     1      -2.903   2.235   5.963  0.00  0.00    +0.000 A 
ATOM      5  C   UNL     1      -2.194   3.069   5.108  0.00  0.00    +0.000 A 
ATOM      6  C   UNL     1      -2.096   2.761   3.756  0.00  0.00    +0.000 A 
ATOM      7  F   UNL     1      -1.430   3.592   2.941  0.00  0.00    +0.000 F 
ATOM      8  F   UNL     1      -1.609   4.175   5.586  0.00  0.00    +0.000 F 
ATOM      9  F   UNL     1      -2.994   2.532   7.267  0.00  0.00    +0.000 F 
ATOM     10  F   UNL     1      -4.195   0.284   6.292  0.00  0.00    +0.000 F 
ATOM     11  F   UNL     1      -4.002  -0.338   3.657  0.00  0.00    +0.000 F 
ENDROOT
BRANCH   1  12
ATOM     12  C   UNL     1      -2.629   1.283   1.837  0.00  0.00    +0.000 C 
ATOM     13  O   UNL     1      -3.601   1.048   1.143  0.00  0.00    +0.000 OA
BRANCH  12  14
ATOM     14  O   UNL     1      -1.326   1.241   1.476  0.00  0.00    +0.000 OA
BRANCH  14  18
ATOM     15  C   UNL     1       1.190   0.128   0.367  0.00  0.00    +0.000 C 
ATOM     16  C   UNL     1       0.250  -1.074   0.461  0.00  0.00    +0.000 C 
ATOM     17  C   UNL     1      -1.092  -0.607  -0.098  0.00  0.00    +0.000 C 
ATOM     18  C   UNL     1      -1.079   0.905   0.100  0.00  0.00    +0.000 C 
ATOM     19  C   UNL     1       0.365   1.267  -0.227  0.00  0.00    +0.000 C 
ENDBRANCH  14  18
ENDBRANCH  12  14
ENDBRANCH   1  12
TORSDOF 3
