MODEL 1
REMARK VINA RESULT:      -4.3      0.000      0.000
REMARK  Name = *****
REMARK  3 active torsions:
REMARK  status: ('A' for Active; 'I' for Inactive)
REMARK    1  A    between atoms: C_4  and  N_7
REMARK    2  A    between atoms: N_7  and  C_8
REMARK    3  A    between atoms: C_8  and  C_10
REMARK                            x       y       z     vdW  Elec       q    Type
REMARK                         _______ _______ _______ _____ _____    ______ ____
ROOT
ATOM      1  N   UNL     1     101.414 126.741  83.093  0.00  0.00    +0.000 N 
ATOM      2  H   UNL     1     101.796 126.529  83.975  0.00  0.00    +0.000 HD
ENDROOT
BRANCH   1   6
ATOM      3  C   UNL     1     104.708 125.790  80.500  0.00  0.00    +0.000 C 
ATOM      4  C   UNL     1     103.943 124.639  81.144  0.00  0.00    +0.000 C 
ATOM      5  C   UNL     1     103.100 125.112  82.325  0.00  0.00    +0.000 C 
ATOM      6  C   UNL     1     102.155 126.253  81.925  0.00  0.00    +0.000 C 
ATOM      7  C   UNL     1     102.939 127.408  81.288  0.00  0.00    +0.000 C 
ATOM      8  C   UNL     1     103.778 126.933  80.104  0.00  0.00    +0.000 C 
ENDBRANCH   1   6
BRANCH   1   9
ATOM      9  C   UNL     1     100.232 127.469  83.089  0.00  0.00    +0.000 C 
ATOM     10  S   UNL     1      98.743 126.900  82.566  0.00  0.00    +0.000 S 
BRANCH   9  11
ATOM     11  C   UNL     1     100.403 128.862  83.592  0.00  0.00    +0.000 A 
ATOM     12  C   UNL     1     101.604 129.221  84.218  0.00  0.00    +0.000 A 
ATOM     13  C   UNL     1     101.771 130.516  84.711  0.00  0.00    +0.000 A 
ATOM     14  C   UNL     1     100.743 131.450  84.580  0.00  0.00    +0.000 A 
ATOM     15  C   UNL     1      99.546 131.094  83.958  0.00  0.00    +0.000 A 
ATOM     16  C   UNL     1      99.372 129.800  83.463  0.00  0.00    +0.000 A 
ENDBRANCH   9  11
ENDBRANCH   1   9
TORSDOF 3
ENDMDL
