MODEL 1
REMARK VINA RESULT:      -3.8      0.000      0.000
REMARK  Name = *****
REMARK  6 active torsions:
REMARK  status: ('A' for Active; 'I' for Inactive)
REMARK    1  A    between atoms: C_1  and  C_2
REMARK    2  A    between atoms: C_2  and  N_3
REMARK    3  A    between atoms: C_8  and  C_9
REMARK    4  A    between atoms: C_10  and  C_11
REMARK    5  A    between atoms: N_12  and  C_16
REMARK    6  A    between atoms: C_16  and  C_17
REMARK                            x       y       z     vdW  Elec       q    Type
REMARK                         _______ _______ _______ _____ _____    ______ ____
ROOT
ATOM      1  C   UNL     1     103.410 125.430  81.612  0.00  0.00    +0.000 C 
ATOM      2  C   UNL     1     103.801 124.975  80.411  0.00  0.00    +0.000 C 
ENDROOT
BRANCH   1   8
ATOM      3  N   UNL     1     100.403 127.440  82.861  0.00  0.00    +0.000 N 
ATOM      4  C   UNL     1     100.420 128.611  83.607  0.00  0.00    +0.000 C 
ATOM      5  C   UNL     1     101.629 129.083  83.939  0.00  0.00    +0.000 C 
ATOM      6  S   UNL     1     102.937 128.091  83.331  0.00  0.00    +0.000 S 
ATOM      7  C   UNL     1     101.709 127.007  82.594  0.00  0.00    +0.000 C 
ATOM      8  C   UNL     1     102.073 125.912  81.898  0.00  0.00    +0.000 C 
BRANCH   3  10
ATOM      9  C   UNL     1      97.991 127.244  83.261  0.00  0.00    +0.000 C 
ATOM     10  C   UNL     1      99.167 126.820  82.395  0.00  0.00    +0.000 C 
ENDBRANCH   3  10
ENDBRANCH   1   8
BRANCH   2  11
ATOM     11  C   UNL     1     105.130 124.554  80.188  0.00  0.00    +0.000 C 
ATOM     12  N   UNL     1     105.605 123.317  80.236  0.00  0.00    +0.000 N 
ATOM     13  C   UNL     1     106.957 123.196  79.954  0.00  0.00    +0.000 C 
ATOM     14  C   UNL     1     107.541 124.406  79.670  0.00  0.00    +0.000 C 
ATOM     15  S   UNL     1     106.372 125.660  79.749  0.00  0.00    +0.000 S 
BRANCH  12  16
ATOM     16  C   UNL     1     104.789 122.134  80.524  0.00  0.00    +0.000 C 
ATOM     17  C   UNL     1     104.842 121.753  81.994  0.00  0.00    +0.000 C 
ENDBRANCH  12  16
ENDBRANCH   2  11
TORSDOF 4
ENDMDL
