MODEL 1
REMARK VINA RESULT:      -4.8      0.000      0.000
REMARK  Name = *****
REMARK  4 active torsions:
REMARK  status: ('A' for Active; 'I' for Inactive)
REMARK    1  A    between atoms: C_1  and  C_2
REMARK    2  A    between atoms: C_5  and  C_8
REMARK    3  A    between atoms: C_8  and  N_10
REMARK    4  A    between atoms: N_10  and  C_11
REMARK                            x       y       z     vdW  Elec       q    Type
REMARK                         _______ _______ _______ _____ _____    ______ ____
ROOT
ATOM      1  C   UNL     1      88.967  64.310  86.643  0.00  0.00    +0.000 C 
ATOM      2  S   UNL     1      88.805  63.530  85.168  0.00  0.00    +0.000 S 
ENDROOT
BRANCH   1   7
ATOM      3  C   UNL     1      89.162  70.094  86.893  0.00  0.00    +0.000 C 
ATOM      4  C   UNL     1      89.090  68.598  86.801  0.00  0.00    +0.000 A 
ATOM      5  C   UNL     1      87.983  67.907  87.311  0.00  0.00    +0.000 A 
ATOM      6  C   UNL     1      87.926  66.513  87.250  0.00  0.00    +0.000 A 
ATOM      7  C   UNL     1      88.988  65.803  86.682  0.00  0.00    +0.000 A 
ATOM      8  C   UNL     1      90.109  66.480  86.188  0.00  0.00    +0.000 A 
ATOM      9  C   UNL     1      90.157  67.873  86.251  0.00  0.00    +0.000 A 
ENDBRANCH   1   7
BRANCH   1  10
ATOM     10  N   UNL     1      89.052  63.772  87.922  0.00  0.00    +0.000 N 
ATOM     11  H   UNL     1      89.972  63.563  88.202  0.00  0.00    +0.000 HD
BRANCH  10  12
ATOM     12  C   UNL     1      88.079  63.466  88.901  0.00  0.00    +0.000 A 
ATOM     13  C   UNL     1      87.959  64.081  90.148  0.00  0.00    +0.000 A 
ATOM     14  C   UNL     1      86.943  63.707  91.038  0.00  0.00    +0.000 A 
ATOM     15  C   UNL     1      86.032  62.718  90.682  0.00  0.00    +0.000 A 
ATOM     16  C   UNL     1      86.123  62.103  89.439  0.00  0.00    +0.000 A 
ATOM     17  C   UNL     1      87.139  62.481  88.553  0.00  0.00    +0.000 A 
ATOM     18 CL   UNL     1      84.785  62.264  91.774  0.00  0.00    +0.000 Cl
ENDBRANCH  10  12
ENDBRANCH   1  10
TORSDOF 3
ENDMDL
