MODEL 1
REMARK VINA RESULT:      -4.7      0.000      0.000
REMARK  Name = *****
REMARK  2 active torsions:
REMARK  status: ('A' for Active; 'I' for Inactive)
REMARK    1  A    between atoms: C_5  and  N_7
REMARK    2  A    between atoms: C_8  and  C_9
REMARK                            x       y       z     vdW  Elec       q    Type
REMARK                         _______ _______ _______ _____ _____    ______ ____
ROOT
ATOM      1  N   UNL     1     101.443 125.951  82.539  0.00  0.00    +0.000 NA
ATOM      2  C   UNL     1     102.714 126.114  82.342  0.00  0.00    +0.000 C 
ENDROOT
BRANCH   2   3
ATOM      3  C   UNL     1     103.598 124.970  82.021  0.00  0.00    +0.000 A 
ATOM      4  C   UNL     1     104.085 124.110  83.015  0.00  0.00    +0.000 A 
ATOM      5  C   UNL     1     104.917 123.039  82.668  0.00  0.00    +0.000 A 
ATOM      6  C   UNL     1     105.259 122.827  81.334  0.00  0.00    +0.000 A 
ATOM      7  C   UNL     1     104.781 123.675  80.339  0.00  0.00    +0.000 A 
ATOM      8  C   UNL     1     103.951 124.745  80.681  0.00  0.00    +0.000 A 
ATOM      9 CL   UNL     1     106.282 121.510  80.914  0.00  0.00    +0.000 Cl
ATOM     10 CL   UNL     1     103.712 124.303  84.692  0.00  0.00    +0.000 Cl
ENDBRANCH   2   3
BRANCH   1  15
ATOM     11  C   UNL     1     100.651 129.351  83.769  0.00  0.00    +0.000 A 
ATOM     12  C   UNL     1      99.290 129.459  83.480  0.00  0.00    +0.000 A 
ATOM     13  C   UNL     1      98.624 128.398  82.873  0.00  0.00    +0.000 A 
ATOM     14  C   UNL     1      99.322 127.233  82.562  0.00  0.00    +0.000 A 
ATOM     15  C   UNL     1     100.687 127.096  82.858  0.00  0.00    +0.000 A 
ATOM     16  C   UNL     1     101.344 128.177  83.454  0.00  0.00    +0.000 A 
ATOM     17  F   UNL     1      98.657 126.226  81.973  0.00  0.00    +0.000 F 
ENDBRANCH   1  15
TORSDOF 2
ENDMDL
