MODEL 1
REMARK VINA RESULT:      -4.2      0.000      0.000
REMARK  Name = *****
REMARK  4 active torsions:
REMARK  status: ('A' for Active; 'I' for Inactive)
REMARK    1  A    between atoms: C_1  and  C_2
REMARK    2  A    between atoms: C_5  and  S_8
REMARK    3  A    between atoms: S_8  and  S_9
REMARK    4  A    between atoms: S_9  and  C_10
REMARK                            x       y       z     vdW  Elec       q    Type
REMARK                         _______ _______ _______ _____ _____    ______ ____
ROOT
ATOM      1  S   UNL     1      88.105  70.456  88.579  0.00  0.00    +0.000 S 
ENDROOT
BRANCH   1   6
ATOM      2  C   UNL     1      83.215  73.002  85.979  0.00  0.00    +0.000 C 
ATOM      3  C   UNL     1      84.432  72.402  86.619  0.00  0.00    +0.000 A 
ATOM      4  C   UNL     1      85.485  71.926  85.830  0.00  0.00    +0.000 A 
ATOM      5  C   UNL     1      86.607  71.341  86.424  0.00  0.00    +0.000 A 
ATOM      6  C   UNL     1      86.686  71.220  87.814  0.00  0.00    +0.000 A 
ATOM      7  C   UNL     1      85.628  71.676  88.604  0.00  0.00    +0.000 A 
ATOM      8  C   UNL     1      84.507  72.261  88.010  0.00  0.00    +0.000 A 
ENDBRANCH   1   6
BRANCH   1   9
ATOM      9  S   UNL     1      89.305  70.078  86.950  0.00  0.00    +0.000 S 
BRANCH   9  10
ATOM     10  C   UNL     1      89.189  68.306  86.801  0.00  0.00    +0.000 A 
ATOM     11  C   UNL     1      88.014  67.640  87.140  0.00  0.00    +0.000 A 
ATOM     12  C   UNL     1      87.964  66.255  87.003  0.00  0.00    +0.000 A 
ATOM     13  C   UNL     1      89.081  65.579  86.531  0.00  0.00    +0.000 A 
ATOM     14  C   UNL     1      90.206  66.319  86.210  0.00  0.00    +0.000 A 
ATOM     15  N   UNL     1      90.282  67.663  86.331  0.00  0.00    +0.000 NA
ENDBRANCH   9  10
ENDBRANCH   1   9
TORSDOF 3
ENDMDL
