MODEL 1
REMARK VINA RESULT:      -4.6      0.000      0.000
REMARK  Name = *****
REMARK  3 active torsions:
REMARK  status: ('A' for Active; 'I' for Inactive)
REMARK    1  A    between atoms: C_4  and  C_7
REMARK    2  A    between atoms: C_8  and  C_9
REMARK    3  A    between atoms: C_8  and  C_11
REMARK                            x       y       z     vdW  Elec       q    Type
REMARK                         _______ _______ _______ _____ _____    ______ ____
ROOT
ATOM      1  C   UNL     1     102.931 126.815  81.205  0.00  0.00    +0.000 C 
ATOM      2  C   UNL     1     102.320 126.502  82.366  0.00  0.00    +0.000 C 
ENDROOT
BRANCH   2   3
ATOM      3  C   UNL     1     101.106 127.254  82.736  0.00  0.00    +0.000 A 
ATOM      4  C   UNL     1      99.857 126.736  82.349  0.00  0.00    +0.000 A 
ATOM      5  C   UNL     1      98.677 127.406  82.678  0.00  0.00    +0.000 A 
ATOM      6  C   UNL     1      98.729 128.599  83.397  0.00  0.00    +0.000 A 
ATOM      7  C   UNL     1      99.960 129.124  83.789  0.00  0.00    +0.000 A 
ATOM      8  C   UNL     1     101.144 128.457  83.461  0.00  0.00    +0.000 A 
ATOM      9 BR   UNL     1     102.779 129.241  84.034  0.00  0.00    +0.000 Br
ENDBRANCH   2   3
BRANCH   1  13
ATOM     10  C   UNL     1     106.473 125.050  79.603  0.00  0.00    +0.000 A 
ATOM     11  C   UNL     1     105.298 124.301  79.667  0.00  0.00    +0.000 A 
ATOM     12  C   UNL     1     104.135 124.867  80.192  0.00  0.00    +0.000 A 
ATOM     13  C   UNL     1     104.143 126.184  80.669  0.00  0.00    +0.000 A 
ATOM     14  C   UNL     1     105.323 126.932  80.589  0.00  0.00    +0.000 A 
ATOM     15  C   UNL     1     106.484 126.366  80.061  0.00  0.00    +0.000 A 
ENDBRANCH   1  13
BRANCH   2  16
ATOM     16  C   UNL     1     102.799 125.500  83.267  0.00  0.00    +0.000 C 
ATOM     17  N   UNL     1     103.171 124.679  83.999  0.00  0.00    +0.000 NA
ENDBRANCH   2  16
TORSDOF 3
ENDMDL
