MODEL 1
REMARK VINA RESULT:      -5.0      0.000      0.000
REMARK  Name = *****
REMARK  4 active torsions:
REMARK  status: ('A' for Active; 'I' for Inactive)
REMARK    1  A    between atoms: C_1  and  O_2
REMARK    2  A    between atoms: O_2  and  C_3
REMARK    3  A    between atoms: C_6  and  C_9
REMARK    4  A    between atoms: C_10  and  C_11
REMARK                            x       y       z     vdW  Elec       q    Type
REMARK                         _______ _______ _______ _____ _____    ______ ____
ROOT
ATOM      1  C   UNL     1     102.848 125.988  81.435  0.00  0.00    +0.000 C 
ATOM      2  C   UNL     1     101.934 125.937  82.418  0.00  0.00    +0.000 C 
ATOM      3  F   UNL     1     102.861 127.051  80.596  0.00  0.00    +0.000 F 
ENDROOT
BRANCH   1   7
ATOM      4  C   UNL     1     105.830 123.012  80.563  0.00  0.00    +0.000 A 
ATOM      5  C   UNL     1     105.569 124.050  79.672  0.00  0.00    +0.000 A 
ATOM      6  C   UNL     1     104.592 125.009  79.977  0.00  0.00    +0.000 A 
ATOM      7  C   UNL     1     103.853 124.942  81.168  0.00  0.00    +0.000 A 
ATOM      8  C   UNL     1     104.136 123.901  82.061  0.00  0.00    +0.000 A 
ATOM      9  C   UNL     1     105.111 122.946  81.757  0.00  0.00    +0.000 A 
BRANCH   4  11
ATOM     10  C   UNL     1     106.712 120.939  81.320  0.00  0.00    +0.000 C 
ATOM     11  O   UNL     1     106.751 122.016  80.392  0.00  0.00    +0.000 OA
ENDBRANCH   4  11
ENDBRANCH   1   7
BRANCH   2  12
ATOM     12  C   UNL     1     100.920 126.967  82.688  0.00  0.00    +0.000 A 
ATOM     13  C   UNL     1      99.566 126.794  82.370  0.00  0.00    +0.000 A 
ATOM     14  C   UNL     1      98.629 127.783  82.679  0.00  0.00    +0.000 A 
ATOM     15  C   UNL     1      99.032 128.951  83.320  0.00  0.00    +0.000 A 
ATOM     16  C   UNL     1     100.372 129.130  83.657  0.00  0.00    +0.000 A 
ATOM     17  C   UNL     1     101.310 128.141  83.347  0.00  0.00    +0.000 A 
ENDBRANCH   2  12
TORSDOF 3
ENDMDL
