MODEL 1
REMARK VINA RESULT:      -4.6      0.000      0.000
REMARK  Name = *****
REMARK  4 active torsions:
REMARK  status: ('A' for Active; 'I' for Inactive)
REMARK    1  A    between atoms: C_2  and  C_3
REMARK    2  A    between atoms: C_4  and  C_9
REMARK    3  A    between atoms: C_9  and  C_10
REMARK    4  A    between atoms: C_10  and  C_11
REMARK                            x       y       z     vdW  Elec       q    Type
REMARK                         _______ _______ _______ _____ _____    ______ ____
ROOT
ATOM      1  C   UNL     1      89.690  69.847  84.911  0.00  0.00    +0.000 C 
ATOM      2  C   UNL     1      89.568  69.546  86.223  0.00  0.00    +0.000 C 
ATOM      3  C   UNL     1      89.645  68.116  86.714  0.00  0.00    +0.000 C 
ATOM      4  C   UNL     1      90.187  67.127  85.681  0.00  0.00    +0.000 C 
ATOM      5  C   UNL     1      89.574  67.381  84.311  0.00  0.00    +0.000 C 
ATOM      6  C   UNL     1      89.882  68.801  83.838  0.00  0.00    +0.000 C 
ENDROOT
BRANCH   1   8
ATOM      7  C   UNL     1      89.599  72.533  84.044  0.00  0.00    +0.000 C 
ATOM      8  C   UNL     1      89.641  71.293  84.444  0.00  0.00    +0.000 C 
ENDBRANCH   1   8
BRANCH   2   9
ATOM      9  C   UNL     1      89.319  70.575  87.310  0.00  0.00    +0.000 C 
BRANCH   9  10
ATOM     10  C   UNL     1      88.143  70.188  88.213  0.00  0.00    +0.000 C 
BRANCH  10  11
ATOM     11  C   UNL     1      86.889  70.943  87.850  0.00  0.00    +0.000 A 
ATOM     12  C   UNL     1      86.577  71.203  86.508  0.00  0.00    +0.000 A 
ATOM     13  C   UNL     1      85.424  71.918  86.177  0.00  0.00    +0.000 A 
ATOM     14  C   UNL     1      84.579  72.385  87.181  0.00  0.00    +0.000 A 
ATOM     15  C   UNL     1      84.885  72.139  88.519  0.00  0.00    +0.000 A 
ATOM     16  C   UNL     1      86.035  71.423  88.853  0.00  0.00    +0.000 A 
ENDBRANCH  10  11
ENDBRANCH   9  10
ENDBRANCH   2   9
TORSDOF 4
ENDMDL
