MODEL 1
REMARK VINA RESULT:      -4.9      0.000      0.000
REMARK  Name = *****
REMARK  4 active torsions:
REMARK  status: ('A' for Active; 'I' for Inactive)
REMARK    1  A    between atoms: C_1  and  C_2
REMARK    2  A    between atoms: C_4  and  O_8
REMARK    3  A    between atoms: O_8  and  C_9
REMARK    4  A    between atoms: C_9  and  C_11
REMARK                            x       y       z     vdW  Elec       q    Type
REMARK                         _______ _______ _______ _____ _____    ______ ____
ROOT
ATOM      1  C   UNL     1     102.722 125.588  83.404  0.00  0.00    +0.000 C 
ATOM      2  O   UNL     1     102.380 125.122  84.480  0.00  0.00    +0.000 OA
ENDROOT
BRANCH   1   3
ATOM      3  C   UNL     1     103.485 124.806  82.408  0.00  0.00    +0.000 A 
ATOM      4  C   UNL     1     103.610 125.327  81.111  0.00  0.00    +0.000 A 
ATOM      5  C   UNL     1     104.331 124.628  80.139  0.00  0.00    +0.000 A 
ATOM      6  C   UNL     1     104.936 123.412  80.457  0.00  0.00    +0.000 A 
ATOM      7  C   UNL     1     104.827 122.899  81.749  0.00  0.00    +0.000 A 
ATOM      8  C   UNL     1     104.107 123.597  82.718  0.00  0.00    +0.000 A 
ATOM      9  F   UNL     1     104.061 123.082  83.956  0.00  0.00    +0.000 F 
ENDBRANCH   1   3
BRANCH   1  10
ATOM     10  O   UNL     1     102.548 126.881  82.950  0.00  0.00    +0.000 OA
BRANCH  10  14
ATOM     11  C   UNL     1      99.383 130.526  84.117  0.00  0.00    +0.000 C 
ATOM     12  C   UNL     1      99.687 129.174  83.547  0.00  0.00    +0.000 A 
ATOM     13  C   UNL     1     100.994 128.672  83.549  0.00  0.00    +0.000 A 
ATOM     14  C   UNL     1     101.250 127.409  83.014  0.00  0.00    +0.000 A 
ATOM     15  C   UNL     1     100.235 126.656  82.427  0.00  0.00    +0.000 A 
ATOM     16  C   UNL     1      98.935 127.158  82.409  0.00  0.00    +0.000 A 
ATOM     17  C   UNL     1      98.662 128.409  82.967  0.00  0.00    +0.000 A 
ENDBRANCH  10  14
ENDBRANCH   1  10
TORSDOF 3
ENDMDL
