MODEL 1
REMARK VINA RESULT:      -4.8      0.000      0.000
REMARK  Name = *****
REMARK  6 active torsions:
REMARK  status: ('A' for Active; 'I' for Inactive)
REMARK    1  A    between atoms: C_1  and  C_2
REMARK    2  A    between atoms: C_5  and  C_8
REMARK    3  A    between atoms: C_8  and  O_10
REMARK    4  A    between atoms: O_10  and  C_11
REMARK    5  A    between atoms: C_12  and  C_18
REMARK    6  A    between atoms: C_14  and  C_17
REMARK                            x       y       z     vdW  Elec       q    Type
REMARK                         _______ _______ _______ _____ _____    ______ ____
ROOT
ATOM      1  C   UNL     1      88.143  70.300  87.132  0.00  0.00    +0.000 C 
ATOM      2  O   UNL     1      89.153  70.624  87.738  0.00  0.00    +0.000 OA
ENDROOT
BRANCH   1   7
ATOM      3  C   UNL     1      83.102  73.161  87.465  0.00  0.00    +0.000 C 
ATOM      4  C   UNL     1      84.391  72.395  87.393  0.00  0.00    +0.000 A 
ATOM      5  C   UNL     1      84.993  72.136  86.157  0.00  0.00    +0.000 A 
ATOM      6  C   UNL     1      86.210  71.451  86.092  0.00  0.00    +0.000 A 
ATOM      7  C   UNL     1      86.848  71.025  87.265  0.00  0.00    +0.000 A 
ATOM      8  C   UNL     1      86.254  71.296  88.504  0.00  0.00    +0.000 A 
ATOM      9  C   UNL     1      85.036  71.982  88.565  0.00  0.00    +0.000 A 
ENDBRANCH   1   7
BRANCH   1  10
ATOM     10  O   UNL     1      87.997  69.252  86.243  0.00  0.00    +0.000 OA
BRANCH  10  11
ATOM     11  C   UNL     1      88.089  67.985  86.834  0.00  0.00    +0.000 A 
ATOM     12  C   UNL     1      89.072  67.094  86.388  0.00  0.00    +0.000 A 
ATOM     13  C   UNL     1      89.115  65.815  86.960  0.00  0.00    +0.000 A 
ATOM     14  C   UNL     1      88.177  65.424  87.928  0.00  0.00    +0.000 A 
ATOM     15  C   UNL     1      87.200  66.336  88.346  0.00  0.00    +0.000 A 
ATOM     16  C   UNL     1      87.145  67.613  87.791  0.00  0.00    +0.000 A 
ATOM     17  C   UNL     1      88.262  64.064  88.556  0.00  0.00    +0.000 C 
ATOM     18  C   UNL     1      90.076  67.500  85.350  0.00  0.00    +0.000 C 
ENDBRANCH  10  11
ENDBRANCH   1  10
TORSDOF 3
ENDMDL
