MODEL 1
REMARK VINA RESULT:      -4.7      0.000      0.000
REMARK  Name = *****
REMARK  4 active torsions:
REMARK  status: ('A' for Active; 'I' for Inactive)
REMARK    1  A    between atoms: C_1  and  O_2
REMARK    2  A    between atoms: O_2  and  C_3
REMARK    3  A    between atoms: C_7  and  C_10
REMARK    4  A    between atoms: C_11  and  C_12
REMARK                            x       y       z     vdW  Elec       q    Type
REMARK                         _______ _______ _______ _____ _____    ______ ____
ROOT
ATOM      1  C   UNL     1     100.204 128.971  83.789  0.00  0.00    +0.000 A 
ATOM      2  C   UNL     1      98.889 128.532  83.597  0.00  0.00    +0.000 A 
ATOM      3  C   UNL     1      98.631 127.364  82.877  0.00  0.00    +0.000 A 
ATOM      4  C   UNL     1      99.685 126.628  82.338  0.00  0.00    +0.000 A 
ATOM      5  C   UNL     1     101.006 127.059  82.507  0.00  0.00    +0.000 A 
ATOM      6  C   UNL     1     101.266 128.238  83.227  0.00  0.00    +0.000 A 
ATOM      7 CL   UNL     1     102.901 128.789  83.448  0.00  0.00    +0.000 Cl
ENDROOT
BRANCH   1   9
ATOM      8  C   UNL     1      99.769 131.280  84.155  0.00  0.00    +0.000 C 
ATOM      9  O   UNL     1     100.524 130.117  84.475  0.00  0.00    +0.000 OA
ENDBRANCH   1   9
BRANCH   5  10
ATOM     10  C   UNL     1     102.055 126.260  81.942  0.00  0.00    +0.000 C 
ATOM     11  C   UNL     1     102.941 125.609  81.459  0.00  0.00    +0.000 C 
BRANCH  11  12
ATOM     12  C   UNL     1     104.000 124.857  80.861  0.00  0.00    +0.000 A 
ATOM     13  C   UNL     1     104.311 123.581  81.338  0.00  0.00    +0.000 A 
ATOM     14  C   UNL     1     105.350 122.852  80.755  0.00  0.00    +0.000 A 
ATOM     15  C   UNL     1     106.078 123.399  79.698  0.00  0.00    +0.000 A 
ATOM     16  C   UNL     1     105.768 124.672  79.220  0.00  0.00    +0.000 A 
ATOM     17  C   UNL     1     104.729 125.401  79.802  0.00  0.00    +0.000 A 
ENDBRANCH  11  12
ENDBRANCH   5  10
TORSDOF 3
ENDMDL
