MODEL 1
REMARK VINA RESULT:      -4.0      0.000      0.000
REMARK  Name = *****
REMARK  1 active torsions:
REMARK  status: ('A' for Active; 'I' for Inactive)
REMARK    1  A    between atoms: C_8  and  C_10
REMARK                            x       y       z     vdW  Elec       q    Type
REMARK                         _______ _______ _______ _____ _____    ______ ____
ROOT
ATOM      1  C   UNL     1     105.600 122.820  80.432  0.00  0.00    +0.000 A 
ATOM      2  C   UNL     1     105.958 123.724  79.441  0.00  0.00    +0.000 A 
ATOM      3  C   UNL     1     105.381 124.995  79.397  0.00  0.00    +0.000 A 
ATOM      4  C   UNL     1     104.431 125.346  80.376  0.00  0.00    +0.000 A 
ATOM      5  C   UNL     1     104.059 124.457  81.385  0.00  0.00    +0.000 A 
ATOM      6  C   UNL     1     104.659 123.176  81.403  0.00  0.00    +0.000 A 
ATOM      7  C   UNL     1     103.085 125.046  82.260  0.00  0.00    +0.000 A 
ATOM      8  C   UNL     1     102.731 126.335  81.912  0.00  0.00    +0.000 A 
ATOM      9  S   UNL     1     103.590 126.839  80.518  0.00  0.00    +0.000 S 
ENDROOT
BRANCH   8  10
ATOM     10  C   UNL     1     101.785 127.206  82.575  0.00  0.00    +0.000 A 
ATOM     11  C   UNL     1     102.045 128.381  83.261  0.00  0.00    +0.000 A 
ATOM     12  C   UNL     1     100.869 128.985  83.797  0.00  0.00    +0.000 A 
ATOM     13  C   UNL     1      99.740 128.253  83.511  0.00  0.00    +0.000 A 
ATOM     14  S   UNL     1     100.100 126.856  82.597  0.00  0.00    +0.000 S 
ENDBRANCH   8  10
TORSDOF 1
ENDMDL
