MODEL 1
REMARK VINA RESULT:      -4.4      0.000      0.000
REMARK  Name = *****
REMARK  3 active torsions:
REMARK  status: ('A' for Active; 'I' for Inactive)
REMARK    1  A    between atoms: C_6  and  C_7
REMARK    2  A    between atoms: C_7  and  O_9
REMARK    3  A    between atoms: O_9  and  C_10
REMARK                            x       y       z     vdW  Elec       q    Type
REMARK                         _______ _______ _______ _____ _____    ______ ____
ROOT
ATOM      1  C   UNL     1      88.128  70.453  87.701  0.00  0.00    +0.000 C 
ATOM      2  O   UNL     1      88.774  70.470  88.737  0.00  0.00    +0.000 OA
ENDROOT
BRANCH   1   8
ATOM      3  C   UNL     1      86.015  71.518  88.624  0.00  0.00    +0.000 A 
ATOM      4  C   UNL     1      84.791  72.157  88.407  0.00  0.00    +0.000 A 
ATOM      5  C   UNL     1      84.383  72.441  87.108  0.00  0.00    +0.000 A 
ATOM      6  C   UNL     1      85.177  72.101  86.019  0.00  0.00    +0.000 A 
ATOM      7  C   UNL     1      86.400  71.462  86.231  0.00  0.00    +0.000 A 
ATOM      8  C   UNL     1      86.828  71.163  87.536  0.00  0.00    +0.000 A 
ATOM      9  F   UNL     1      83.208  73.048  86.905  0.00  0.00    +0.000 F 
ENDBRANCH   1   8
BRANCH   1  10
ATOM     10  O   UNL     1      88.462  69.816  86.519  0.00  0.00    +0.000 OA
BRANCH  10  11
ATOM     11  C   UNL     1      88.640  68.426  86.576  0.00  0.00    +0.000 A 
ATOM     12  C   UNL     1      87.672  67.595  87.146  0.00  0.00    +0.000 A 
ATOM     13  C   UNL     1      87.931  66.230  87.266  0.00  0.00    +0.000 A 
ATOM     14  C   UNL     1      89.153  65.722  86.832  0.00  0.00    +0.000 A 
ATOM     15  C   UNL     1      90.124  66.553  86.280  0.00  0.00    +0.000 A 
ATOM     16  C   UNL     1      89.871  67.919  86.156  0.00  0.00    +0.000 A 
ATOM     17  F   UNL     1      89.403  64.413  86.960  0.00  0.00    +0.000 F 
ENDBRANCH  10  11
ENDBRANCH   1  10
TORSDOF 3
ENDMDL
