MODEL 1
REMARK VINA RESULT:      -4.4      0.000      0.000
REMARK  Name = *****
REMARK  5 active torsions:
REMARK  status: ('A' for Active; 'I' for Inactive)
REMARK    1  A    between atoms: C_1  and  C_2
REMARK    2  A    between atoms: C_7  and  C_8
REMARK    3  A    between atoms: C_7  and  O_9
REMARK    4  A    between atoms: O_9  and  C_10
REMARK    5  A    between atoms: C_10  and  C_12
REMARK                            x       y       z     vdW  Elec       q    Type
REMARK                         _______ _______ _______ _____ _____    ______ ____
ROOT
ATOM      1  O   UNL     1     102.370 125.626  81.528  0.00  0.00    +0.000 OA
ENDROOT
BRANCH   1   8
ATOM      2  C   UNL     1     105.327 124.996  82.791  0.00  0.00    +0.000 C 
ATOM      3  C   UNL     1     104.638 126.295  82.353  0.00  0.00    +0.000 C 
ATOM      4  C   UNL     1     105.667 127.393  82.159  0.00  0.00    +0.000 C 
ATOM      5  C   UNL     1     105.525 128.355  81.236  0.00  0.00    +0.000 C 
ATOM      6  C   UNL     1     104.373 128.407  80.371  0.00  0.00    +0.000 C 
ATOM      7  C   UNL     1     103.510 127.384  80.292  0.00  0.00    +0.000 C 
ATOM      8  C   UNL     1     103.678 126.116  81.113  0.00  0.00    +0.000 C 
ATOM      9  C   UNL     1     104.188 125.047  80.124  0.00  0.00    +0.000 C 
ENDBRANCH   1   8
BRANCH   1  10
ATOM     10  C   UNL     1     101.871 125.957  82.750  0.00  0.00    +0.000 C 
ATOM     11  O   UNL     1     102.100 125.381  83.804  0.00  0.00    +0.000 OA
BRANCH  10  12
ATOM     12  C   UNL     1     100.988 127.185  82.633  0.00  0.00    +0.000 C 
ATOM     13  C   UNL     1     101.338 128.169  83.754  0.00  0.00    +0.000 C 
ATOM     14  C   UNL     1     100.405 129.377  83.757  0.00  0.00    +0.000 C 
ATOM     15  C   UNL     1      98.939 128.954  83.814  0.00  0.00    +0.000 C 
ATOM     16  C   UNL     1      98.590 127.988  82.687  0.00  0.00    +0.000 C 
ATOM     17  C   UNL     1      99.514 126.772  82.682  0.00  0.00    +0.000 C 
ENDBRANCH  10  12
ENDBRANCH   1  10
TORSDOF 3
ENDMDL
