MODEL 1
REMARK VINA RESULT:      -4.7      0.000      0.000
REMARK  Name = *****
REMARK  3 active torsions:
REMARK  status: ('A' for Active; 'I' for Inactive)
REMARK    1  A    between atoms: C_3  and  C_8
REMARK    2  A    between atoms: C_8  and  O_10
REMARK    3  A    between atoms: O_10  and  C_11
REMARK                            x       y       z     vdW  Elec       q    Type
REMARK                         _______ _______ _______ _____ _____    ______ ____
ROOT
ATOM      1  C   UNL     1     103.422 127.078  81.770  0.00  0.00    +0.000 C 
ATOM      2  O   UNL     1     103.516 128.122  81.141  0.00  0.00    +0.000 OA
ENDROOT
BRANCH   1   5
ATOM      3  C   UNL     1     104.368 123.424  81.730  0.00  0.00    +0.000 A 
ATOM      4  C   UNL     1     103.855 124.662  82.124  0.00  0.00    +0.000 A 
ATOM      5  C   UNL     1     103.991 125.788  81.296  0.00  0.00    +0.000 A 
ATOM      6  C   UNL     1     104.642 125.660  80.064  0.00  0.00    +0.000 A 
ATOM      7  C   UNL     1     105.148 124.420  79.684  0.00  0.00    +0.000 A 
ATOM      8  C   UNL     1     105.019 123.305  80.504  0.00  0.00    +0.000 A 
ATOM      9  F   UNL     1     105.771 124.300  78.506  0.00  0.00    +0.000 F 
ENDBRANCH   1   5
BRANCH   1  10
ATOM     10  O   UNL     1     102.776 126.892  82.977  0.00  0.00    +0.000 OA
BRANCH  10  11
ATOM     11  C   UNL     1     101.453 127.351  82.947  0.00  0.00    +0.000 A 
ATOM     12  C   UNL     1     101.118 128.591  83.507  0.00  0.00    +0.000 A 
ATOM     13  C   UNL     1      99.779 128.995  83.485  0.00  0.00    +0.000 A 
ATOM     14  C   UNL     1      98.801 128.161  82.924  0.00  0.00    +0.000 A 
ATOM     15  C   UNL     1      99.151 126.921  82.387  0.00  0.00    +0.000 A 
ATOM     16  C   UNL     1     100.481 126.507  82.405  0.00  0.00    +0.000 A 
ATOM     17 CL   UNL     1      99.254 130.506  84.143  0.00  0.00    +0.000 Cl
ATOM     18 CL   UNL     1     102.356 129.570  84.219  0.00  0.00    +0.000 Cl
ENDBRANCH  10  11
ENDBRANCH   1  10
TORSDOF 3
ENDMDL
