REMARK  Name = *****
REMARK  4 active torsions:
REMARK  status: ('A' for Active; 'I' for Inactive)
REMARK    1  A    between atoms: C_1  and  C_2
REMARK    2  A    between atoms: C_3  and  N_9
REMARK    3  A    between atoms: N_9  and  S_10
REMARK    4  A    between atoms: S_10  and  N_13
REMARK                            x       y       z     vdW  Elec       q    Type
REMARK                         _______ _______ _______ _____ _____    ______ ____
ROOT
ATOM      1  N   UNL     1       2.202   2.464  -0.250  0.00  0.00    +0.000 N 
ATOM      2  H   UNL     1       1.477   2.432   0.415  0.00  0.00    +0.000 HD
ENDROOT
BRANCH   1   5
ATOM      3  C   UNL     1       1.369   0.073  -1.751  0.00  0.00    +0.000 C 
ATOM      4  C   UNL     1       1.544   1.421  -2.394  0.00  0.00    +0.000 A 
ATOM      5  C   UNL     1       1.935   2.557  -1.659  0.00  0.00    +0.000 A 
ATOM      6  C   UNL     1       2.124   3.780  -2.306  0.00  0.00    +0.000 A 
ATOM      7  C   UNL     1       1.897   3.887  -3.675  0.00  0.00    +0.000 A 
ATOM      8  C   UNL     1       1.489   2.780  -4.412  0.00  0.00    +0.000 A 
ATOM      9  C   UNL     1       1.315   1.551  -3.774  0.00  0.00    +0.000 A 
ATOM     10 CL   UNL     1       2.121   5.401  -4.462  0.00  0.00    +0.000 Cl
ENDBRANCH   1   5
BRANCH   1  11
ATOM     11  S   UNL     1       3.828   2.412   0.202  0.00  0.00    +0.000 S 
ATOM     12  O   UNL     1       3.868   1.870   1.541  0.00  0.00    +0.000 OA
ATOM     13  O   UNL     1       4.598   1.819  -0.865  0.00  0.00    +0.000 OA
BRANCH  11  14
ATOM     14  N   UNL     1       4.186   4.076   0.299  0.00  0.00    +0.000 NA
ATOM     15  C   UNL     1       3.533   4.783   1.433  0.00  0.00    +0.000 C 
ATOM     16  C   UNL     1       2.959   6.116   0.960  0.00  0.00    +0.000 C 
ATOM     17  C   UNL     1       3.990   7.214   0.717  0.00  0.00    +0.000 C 
ATOM     18  C   UNL     1       5.128   6.835  -0.227  0.00  0.00    +0.000 C 
ATOM     19  C   UNL     1       6.060   5.790   0.380  0.00  0.00    +0.000 C 
ATOM     20  C   UNL     1       5.640   4.343   0.141  0.00  0.00    +0.000 C 
ENDBRANCH  11  14
ENDBRANCH   1  11
TORSDOF 3
