REMARK  Name = *****
REMARK  3 active torsions:
REMARK  status: ('A' for Active; 'I' for Inactive)
REMARK    1  A    between atoms: C_1  and  C_2
REMARK    2  A    between atoms: C_5  and  C_7
REMARK    3  A    between atoms: C_8  and  C_9
REMARK                            x       y       z     vdW  Elec       q    Type
REMARK                         _______ _______ _______ _____ _____    ______ ____
ROOT
ATOM      1  C   UNL     1       5.798  -1.522   0.056  0.00  0.00    +0.000 C 
ATOM      2  C   UNL     1       6.722  -2.290   0.037  0.00  0.00    +0.000 C 
ENDROOT
BRANCH   1   7
ATOM      3  C   UNL     1       1.128  -0.229   0.091  0.00  0.00    +0.000 C 
ATOM      4  C   UNL     1       2.587   0.042   0.096  0.00  0.00    +0.000 A 
ATOM      5  C   UNL     1       3.200   1.280   0.124  0.00  0.00    +0.000 A 
ATOM      6  S   UNL     1       4.904   1.094   0.119  0.00  0.00    +0.000 S 
ATOM      7  C   UNL     1       4.704  -0.610   0.079  0.00  0.00    +0.000 A 
ATOM      8  N   UNL     1       3.459  -1.035   0.070  0.00  0.00    +0.000 NA
ENDBRANCH   1   7
BRANCH   2   9
ATOM      9  C   UNL     1       7.821  -3.204   0.014  0.00  0.00    +0.000 A 
ATOM     10  C   UNL     1       9.129  -2.725  -0.091  0.00  0.00    +0.000 A 
ATOM     11  C   UNL     1      10.201  -3.619  -0.113  0.00  0.00    +0.000 A 
ATOM     12  C   UNL     1       9.967  -4.991  -0.031  0.00  0.00    +0.000 A 
ATOM     13  C   UNL     1       8.662  -5.472   0.073  0.00  0.00    +0.000 A 
ATOM     14  C   UNL     1       7.589  -4.579   0.096  0.00  0.00    +0.000 A 
ENDBRANCH   2   9
TORSDOF 2
