MODEL 1
REMARK VINA RESULT:      -4.1      0.000      0.000
REMARK  Name = *****
REMARK  4 active torsions:
REMARK  status: ('A' for Active; 'I' for Inactive)
REMARK    1  A    between atoms: C_4  and  C_7
REMARK    2  A    between atoms: C_7  and  C_8
REMARK    3  A    between atoms: C_8  and  C_9
REMARK    4  A    between atoms: C_10  and  C_11
REMARK                            x       y       z     vdW  Elec       q    Type
REMARK                         _______ _______ _______ _____ _____    ______ ____
ROOT
ATOM      1  C   UNL     1      88.399  64.392  86.329  0.00  0.00    +0.000 C 
ATOM      2  C   UNL     1      88.523  65.215  87.382  0.00  0.00    +0.000 C 
ATOM      3  F   UNL     1      89.150  66.396  87.171  0.00  0.00    +0.000 F 
ENDROOT
BRANCH   2   4
ATOM      4  C   UNL     1      88.006  65.001  88.738  0.00  0.00    +0.000 A 
ATOM      5  C   UNL     1      86.806  65.580  89.172  0.00  0.00    +0.000 A 
ATOM      6  C   UNL     1      86.326  65.336  90.461  0.00  0.00    +0.000 A 
ATOM      7  C   UNL     1      87.035  64.501  91.323  0.00  0.00    +0.000 A 
ATOM      8  C   UNL     1      88.219  63.904  90.894  0.00  0.00    +0.000 A 
ATOM      9  C   UNL     1      88.699  64.148  89.605  0.00  0.00    +0.000 A 
ENDBRANCH   2   4
BRANCH   1  10
ATOM     10  C   UNL     1      87.681  63.074  86.257  0.00  0.00    +0.000 C 
BRANCH  10  11
ATOM     11  C   UNL     1      86.161  63.265  86.293  0.00  0.00    +0.000 C 
BRANCH  11  15
ATOM     12  C   UNL     1      84.460  61.738  89.949  0.00  0.00    +0.000 A 
ATOM     13  C   UNL     1      83.715  62.590  89.135  0.00  0.00    +0.000 A 
ATOM     14  C   UNL     1      84.264  63.081  87.950  0.00  0.00    +0.000 A 
ATOM     15  C   UNL     1      85.561  62.717  87.563  0.00  0.00    +0.000 A 
ATOM     16  C   UNL     1      86.303  61.865  88.390  0.00  0.00    +0.000 A 
ATOM     17  C   UNL     1      85.754  61.375  89.577  0.00  0.00    +0.000 A 
ENDBRANCH  11  15
ENDBRANCH  10  11
ENDBRANCH   1  10
TORSDOF 4
ENDMDL
