REMARK  Name = *****
REMARK  5 active torsions:
REMARK  status: ('A' for Active; 'I' for Inactive)
REMARK    1  A    between atoms: C_1  and  C_2
REMARK    2  A    between atoms: C_5  and  C_8
REMARK    3  A    between atoms: C_8  and  C_9
REMARK    4  A    between atoms: C_9  and  C_10
REMARK    5  A    between atoms: C_9  and  C_12
REMARK                            x       y       z     vdW  Elec       q    Type
REMARK                         _______ _______ _______ _____ _____    ______ ____
ROOT
ATOM      1  C   UNL     1      -3.980   1.598   0.411  0.00  0.00    +0.000 C 
ENDROOT
BRANCH   1   2
ATOM      2  C   UNL     1      -5.380   1.569  -0.195  0.00  0.00    +0.000 A 
ATOM      3  C   UNL     1      -6.447   0.922   0.454  0.00  0.00    +0.000 A 
ATOM      4  C   UNL     1      -7.719   0.897  -0.119  0.00  0.00    +0.000 A 
ATOM      5  C   UNL     1      -7.943   1.510  -1.349  0.00  0.00    +0.000 A 
ATOM      6  C   UNL     1      -6.895   2.150  -2.008  0.00  0.00    +0.000 A 
ATOM      7  C   UNL     1      -5.621   2.180  -1.436  0.00  0.00    +0.000 A 
ENDBRANCH   1   2
BRANCH   1   8
ATOM      8  C   UNL     1      -3.996   2.144   1.788  0.00  0.00    +0.000 C 
ATOM      9  N   UNL     1      -4.014   2.560   2.872  0.00  0.00    +0.000 NA
ENDBRANCH   1   8
BRANCH   1  10
ATOM     10  C   UNL     1      -3.359   0.186   0.375  0.00  0.00    +0.000 C 
BRANCH  10  15
ATOM     11  C   UNL     1       2.302   0.154   1.767  0.00  0.00    +0.000 C 
ATOM     12  C   UNL     1       0.844   0.180   1.414  0.00  0.00    +0.000 A 
ATOM     13  C   UNL     1      -0.119  -0.222   2.345  0.00  0.00    +0.000 A 
ATOM     14  C   UNL     1      -1.474  -0.223   2.008  0.00  0.00    +0.000 A 
ATOM     15  C   UNL     1      -1.889   0.166   0.728  0.00  0.00    +0.000 A 
ATOM     16  C   UNL     1      -0.923   0.553  -0.209  0.00  0.00    +0.000 A 
ATOM     17  C   UNL     1       0.432   0.555   0.130  0.00  0.00    +0.000 A 
ENDBRANCH  10  15
ENDBRANCH   1  10
TORSDOF 4
