MODEL 1
REMARK VINA RESULT:      -4.6      0.000      0.000
REMARK  Name = *****
REMARK  3 active torsions:
REMARK  status: ('A' for Active; 'I' for Inactive)
REMARK    1  A    between atoms: C_2  and  N_3
REMARK    2  A    between atoms: C_6  and  C_8
REMARK    3  A    between atoms: C_9  and  C_10
REMARK                            x       y       z     vdW  Elec       q    Type
REMARK                         _______ _______ _______ _____ _____    ______ ____
ROOT
ATOM      1  C   UNL     1     102.964 126.226  81.282  0.00  0.00    +0.000 C 
ATOM      2  C   UNL     1     101.960 125.967  82.137  0.00  0.00    +0.000 C 
ENDROOT
BRANCH   2   3
ATOM      3  C   UNL     1     101.011 126.982  82.616  0.00  0.00    +0.000 A 
ATOM      4  C   UNL     1     101.431 128.147  83.271  0.00  0.00    +0.000 A 
ATOM      5  C   UNL     1     100.502 129.104  83.684  0.00  0.00    +0.000 A 
ATOM      6  C   UNL     1      99.144 128.911  83.438  0.00  0.00    +0.000 A 
ATOM      7  C   UNL     1      98.715 127.764  82.773  0.00  0.00    +0.000 A 
ATOM      8  C   UNL     1      99.644 126.807  82.359  0.00  0.00    +0.000 A 
ENDBRANCH   2   3
BRANCH   1  12
ATOM      9  N   UNL     1     105.062 123.337  80.651  0.00  0.00    +0.000 N 
ATOM     10  C   UNL     1     105.512 124.185  79.657  0.00  0.00    +0.000 A 
ATOM     11  C   UNL     1     104.821 125.376  79.725  0.00  0.00    +0.000 A 
ATOM     12  C   UNL     1     103.907 125.271  80.797  0.00  0.00    +0.000 A 
ATOM     13  C   UNL     1     104.075 124.017  81.344  0.00  0.00    +0.000 A 
BRANCH   9  15
ATOM     14  C   UNL     1     104.734 121.010  81.348  0.00  0.00    +0.000 C 
ATOM     15  C   UNL     1     105.489 122.038  80.939  0.00  0.00    +0.000 C 
ENDBRANCH   9  15
ENDBRANCH   1  12
TORSDOF 3
ENDMDL
