MODEL 1
REMARK VINA RESULT:      -4.7      0.000      0.000
REMARK  Name = *****
REMARK  4 active torsions:
REMARK  status: ('A' for Active; 'I' for Inactive)
REMARK    1  A    between atoms: C_1  and  O_2
REMARK    2  A    between atoms: O_2  and  C_3
REMARK    3  A    between atoms: C_6  and  C_9
REMARK    4  A    between atoms: C_10  and  C_11
REMARK                            x       y       z     vdW  Elec       q    Type
REMARK                         _______ _______ _______ _____ _____    ______ ____
ROOT
ATOM      1  C   UNL     1     102.915 125.365  81.945  0.00  0.00    +0.000 C 
ATOM      2  C   UNL     1     102.049 126.137  82.260  0.00  0.00    +0.000 C 
ENDROOT
BRANCH   2   3
ATOM      3  C   UNL     1     101.020 127.054  82.638  0.00  0.00    +0.000 A 
ATOM      4  C   UNL     1     101.350 128.243  83.293  0.00  0.00    +0.000 A 
ATOM      5  C   UNL     1     100.338 129.129  83.659  0.00  0.00    +0.000 A 
ATOM      6  C   UNL     1      99.004 128.840  83.377  0.00  0.00    +0.000 A 
ATOM      7  C   UNL     1      98.675 127.653  82.723  0.00  0.00    +0.000 A 
ATOM      8  C   UNL     1      99.684 126.760  82.354  0.00  0.00    +0.000 A 
ATOM      9 CL   UNL     1     100.740 130.595  84.468  0.00  0.00    +0.000 Cl
ENDBRANCH   2   3
BRANCH   1  13
ATOM     10  C   UNL     1     105.973 122.651  80.839  0.00  0.00    +0.000 A 
ATOM     11  C   UNL     1     105.495 123.584  79.918  0.00  0.00    +0.000 A 
ATOM     12  C   UNL     1     104.483 124.480  80.285  0.00  0.00    +0.000 A 
ATOM     13  C   UNL     1     103.946 124.447  81.573  0.00  0.00    +0.000 A 
ATOM     14  C   UNL     1     104.420 123.515  82.496  0.00  0.00    +0.000 A 
ATOM     15  C   UNL     1     105.430 122.622  82.127  0.00  0.00    +0.000 A 
BRANCH  10  17
ATOM     16  C   UNL     1     106.934 120.558  81.425  0.00  0.00    +0.000 C 
ATOM     17  O   UNL     1     106.953 121.726  80.613  0.00  0.00    +0.000 OA
ENDBRANCH  10  17
ENDBRANCH   1  13
TORSDOF 3
ENDMDL
