MODEL 1
REMARK VINA RESULT:      -4.7      0.000      0.000
REMARK  Name = *****
REMARK  4 active torsions:
REMARK  status: ('A' for Active; 'I' for Inactive)
REMARK    1  A    between atoms: C_1  and  S_2
REMARK    2  A    between atoms: S_2  and  C_3
REMARK    3  A    between atoms: C_7  and  C_9
REMARK    4  A    between atoms: C_10  and  C_11
REMARK                            x       y       z     vdW  Elec       q    Type
REMARK                         _______ _______ _______ _____ _____    ______ ____
ROOT
ATOM      1  C   UNL     1     104.989 123.038  81.074  0.00  0.00    +0.000 A 
ATOM      2  C   UNL     1     105.901 123.340  80.060  0.00  0.00    +0.000 A 
ATOM      3  C   UNL     1     105.850 124.574  79.410  0.00  0.00    +0.000 A 
ATOM      4  C   UNL     1     104.874 125.508  79.760  0.00  0.00    +0.000 A 
ATOM      5  C   UNL     1     103.932 125.210  80.753  0.00  0.00    +0.000 A 
ATOM      6  C   UNL     1     104.003 123.974  81.410  0.00  0.00    +0.000 A 
ENDROOT
BRANCH   1   8
ATOM      7  C   UNL     1     104.459 121.875  83.519  0.00  0.00    +0.000 C 
ATOM      8  S   UNL     1     105.086 121.446  81.873  0.00  0.00    +0.000 S 
ENDBRANCH   1   8
BRANCH   5   9
ATOM      9  C   UNL     1     102.902 126.176  81.163  0.00  0.00    +0.000 C 
ATOM     10  C   UNL     1     102.118 126.010  82.240  0.00  0.00    +0.000 C 
BRANCH  10  11
ATOM     11  C   UNL     1     101.104 126.985  82.662  0.00  0.00    +0.000 A 
ATOM     12  C   UNL     1     101.445 128.183  83.304  0.00  0.00    +0.000 A 
ATOM     13  C   UNL     1     100.456 129.102  83.664  0.00  0.00    +0.000 A 
ATOM     14  C   UNL     1      99.118 128.836  83.378  0.00  0.00    +0.000 A 
ATOM     15  C   UNL     1      98.769 127.655  82.727  0.00  0.00    +0.000 A 
ATOM     16  C   UNL     1      99.758 126.737  82.365  0.00  0.00    +0.000 A 
ENDBRANCH  10  11
ENDBRANCH   5   9
TORSDOF 3
ENDMDL
