REMARK  Name = *****
REMARK  4 active torsions:
REMARK  status: ('A' for Active; 'I' for Inactive)
REMARK    1  A    between atoms: C_4  and  S_7
REMARK    2  A    between atoms: S_7  and  S_8
REMARK    3  A    between atoms: S_8  and  C_9
REMARK    4  A    between atoms: C_9  and  C_10
REMARK                            x       y       z     vdW  Elec       q    Type
REMARK                         _______ _______ _______ _____ _____    ______ ____
ROOT
ATOM      1  S   UNL     1       4.317  -1.741   1.329  0.00  0.00    +0.000 S 
ENDROOT
BRANCH   1   2
ATOM      2  S   UNL     1       3.517   0.011   0.606  0.00  0.00    +0.000 S 
BRANCH   2   6
ATOM      3  C   UNL     1      -0.923  -0.216  -0.764  0.00  0.00    +0.000 C 
ATOM      4  C   UNL     1      -0.236  -1.538  -0.442  0.00  0.00    +0.000 C 
ATOM      5  C   UNL     1       1.284  -1.390  -0.375  0.00  0.00    +0.000 C 
ATOM      6  C   UNL     1       1.702  -0.290   0.608  0.00  0.00    +0.000 C 
ATOM      7  C   UNL     1       1.005   1.038   0.275  0.00  0.00    +0.000 C 
ATOM      8  C   UNL     1      -0.513   0.876   0.218  0.00  0.00    +0.000 C 
ENDBRANCH   2   6
ENDBRANCH   1   2
BRANCH   1   9
ATOM      9  C   UNL     1       4.759  -2.633  -0.198  0.00  0.00    +0.000 C 
BRANCH   9  10
ATOM     10  C   UNL     1       5.256  -4.025   0.102  0.00  0.00    +0.000 A 
ATOM     11  C   UNL     1       4.364  -5.107   0.146  0.00  0.00    +0.000 A 
ATOM     12  C   UNL     1       4.824  -6.393   0.435  0.00  0.00    +0.000 A 
ATOM     13  C   UNL     1       6.177  -6.610   0.687  0.00  0.00    +0.000 A 
ATOM     14  C   UNL     1       7.072  -5.542   0.656  0.00  0.00    +0.000 A 
ATOM     15  C   UNL     1       6.614  -4.255   0.367  0.00  0.00    +0.000 A 
ENDBRANCH   9  10
ENDBRANCH   1   9
TORSDOF 4
