MODEL 1
REMARK VINA RESULT:      -4.7      0.000      0.000
REMARK  Name = *****
REMARK  4 active torsions:
REMARK  status: ('A' for Active; 'I' for Inactive)
REMARK    1  A    between atoms: C_1  and  C_2
REMARK    2  A    between atoms: C_6  and  C_9
REMARK    3  A    between atoms: C_9  and  C_10
REMARK    4  A    between atoms: C_11  and  C_12
REMARK                            x       y       z     vdW  Elec       q    Type
REMARK                         _______ _______ _______ _____ _____    ______ ____
ROOT
ATOM      1  C   UNL     1      89.264  70.462  85.248  0.00  0.00    +0.000 C 
ENDROOT
BRANCH   1   7
ATOM      2  C   UNL     1      92.964  71.630  82.765  0.00  0.00    +0.000 C 
ATOM      3  C   UNL     1      91.557  71.429  82.210  0.00  0.00    +0.000 C 
ATOM      4  C   UNL     1      90.859  72.743  81.856  0.00  0.00    +0.000 C 
ATOM      5  C   UNL     1      90.394  73.522  83.084  0.00  0.00    +0.000 C 
ATOM      6  C   UNL     1      89.490  72.665  83.968  0.00  0.00    +0.000 C 
ATOM      7  C   UNL     1      90.188  71.375  84.421  0.00  0.00    +0.000 C 
ATOM      8  C   UNL     1      90.715  70.631  83.195  0.00  0.00    +0.000 C 
ATOM      9  O   UNL     1      90.555  69.419  83.036  0.00  0.00    +0.000 OA
ENDBRANCH   1   7
BRANCH   1  10
ATOM     10  C   UNL     1      87.954  71.108  85.610  0.00  0.00    +0.000 C 
ATOM     11  C   UNL     1      87.336  70.922  86.788  0.00  0.00    +0.000 C 
BRANCH  11  12
ATOM     12  C   UNL     1      86.059  71.555  87.139  0.00  0.00    +0.000 A 
ATOM     13  C   UNL     1      85.158  71.994  86.161  0.00  0.00    +0.000 A 
ATOM     14  C   UNL     1      83.938  72.569  86.528  0.00  0.00    +0.000 A 
ATOM     15  C   UNL     1      83.606  72.700  87.875  0.00  0.00    +0.000 A 
ATOM     16  C   UNL     1      84.490  72.254  88.856  0.00  0.00    +0.000 A 
ATOM     17  C   UNL     1      85.708  71.678  88.489  0.00  0.00    +0.000 A 
ENDBRANCH  11  12
ENDBRANCH   1  10
TORSDOF 3
ENDMDL
