MODEL 1
REMARK VINA RESULT:      -3.9      0.000      0.000
REMARK  Name = *****
REMARK  2 active torsions:
REMARK  status: ('A' for Active; 'I' for Inactive)
REMARK    1  A    between atoms: C_4  and  P_7
REMARK    2  A    between atoms: P_7  and  C_9
REMARK                            x       y       z     vdW  Elec       q    Type
REMARK                         _______ _______ _______ _____ _____    ______ ____
ROOT
ATOM      1  P   UNL     1      89.024  70.403  86.689  0.00  0.00    +0.000 P 
ATOM      2  S   UNL     1      89.765  70.963  84.961  0.00  0.00    +0.000 S 
ATOM      3  H   UNL     1      89.043  71.316  87.723  0.00  0.00    +0.000 HD
ENDROOT
BRANCH   1   7
ATOM      4  C   UNL     1      84.756  72.372  86.934  0.00  0.00    +0.000 C 
ATOM      5  C   UNL     1      85.206  71.756  85.612  0.00  0.00    +0.000 C 
ATOM      6  C   UNL     1      86.719  71.555  85.570  0.00  0.00    +0.000 C 
ATOM      7  C   UNL     1      87.223  70.757  86.779  0.00  0.00    +0.000 C 
ATOM      8  C   UNL     1      86.744  71.348  88.106  0.00  0.00    +0.000 C 
ATOM      9  C   UNL     1      85.230  71.545  88.125  0.00  0.00    +0.000 C 
ENDBRANCH   1   7
BRANCH   1  10
ATOM     10  C   UNL     1      89.259  68.601  87.041  0.00  0.00    +0.000 C 
ATOM     11  C   UNL     1      90.056  67.879  85.945  0.00  0.00    +0.000 C 
ATOM     12  C   UNL     1      90.152  66.372  86.169  0.00  0.00    +0.000 C 
ATOM     13  C   UNL     1      88.780  65.735  86.328  0.00  0.00    +0.000 C 
ATOM     14  C   UNL     1      87.994  66.412  87.443  0.00  0.00    +0.000 C 
ATOM     15  C   UNL     1      87.887  67.916  87.218  0.00  0.00    +0.000 C 
ENDBRANCH   1  10
TORSDOF 2
ENDMDL
