MODEL 1
REMARK VINA RESULT:      -4.5      0.000      0.000
REMARK  Name = *****
REMARK  5 active torsions:
REMARK  status: ('A' for Active; 'I' for Inactive)
REMARK    1  A    between atoms: C_1  and  O_2
REMARK    2  A    between atoms: O_2  and  C_3
REMARK    3  A    between atoms: C_8  and  C_9
REMARK    4  A    between atoms: C_9  and  C_10
REMARK    5  A    between atoms: C_10  and  C_11
REMARK                            x       y       z     vdW  Elec       q    Type
REMARK                         _______ _______ _______ _____ _____    ______ ____
ROOT
ATOM      1  C   UNL     1     104.140 123.650  82.531  0.00  0.00    +0.000 A 
ATOM      2  C   UNL     1     104.811 123.043  81.463  0.00  0.00    +0.000 A 
ATOM      3  C   UNL     1     104.898 123.683  80.224  0.00  0.00    +0.000 A 
ATOM      4  C   UNL     1     104.314 124.932  80.039  0.00  0.00    +0.000 A 
ATOM      5  C   UNL     1     103.642 125.545  81.095  0.00  0.00    +0.000 A 
ATOM      6  C   UNL     1     103.551 124.915  82.348  0.00  0.00    +0.000 A 
ENDROOT
BRANCH   1   8
ATOM      7  C   UNL     1     104.447 121.761  83.955  0.00  0.00    +0.000 C 
ATOM      8  O   UNL     1     103.993 123.096  83.776  0.00  0.00    +0.000 OA
ENDBRANCH   1   8
BRANCH   6   9
ATOM      9  C   UNL     1     102.795 125.605  83.463  0.00  0.00    +0.000 C 
BRANCH   9  10
ATOM     10  C   UNL     1     102.658 127.108  83.207  0.00  0.00    +0.000 C 
BRANCH  10  11
ATOM     11  C   UNL     1     101.211 127.528  83.117  0.00  0.00    +0.000 A 
ATOM     12  C   UNL     1     100.263 126.689  82.517  0.00  0.00    +0.000 A 
ATOM     13  C   UNL     1      98.929 127.088  82.417  0.00  0.00    +0.000 A 
ATOM     14  C   UNL     1      98.533 128.330  82.912  0.00  0.00    +0.000 A 
ATOM     15  C   UNL     1      99.471 129.174  83.505  0.00  0.00    +0.000 A 
ATOM     16  C   UNL     1     100.805 128.777  83.604  0.00  0.00    +0.000 A 
ENDBRANCH  10  11
ENDBRANCH   9  10
ENDBRANCH   6   9
TORSDOF 4
ENDMDL
