MODEL 1
REMARK VINA RESULT:      -4.0      0.000      0.000
REMARK  Name = *****
REMARK  2 active torsions:
REMARK  status: ('A' for Active; 'I' for Inactive)
REMARK    1  A    between atoms: C_4  and  C_6
REMARK    2  A    between atoms: N_7  and  C_8
REMARK                            x       y       z     vdW  Elec       q    Type
REMARK                         _______ _______ _______ _____ _____    ______ ____
ROOT
ATOM      1  C   UNL     1     101.875 127.042  82.265  0.00  0.00    +0.000 A 
ATOM      2  C   UNL     1     102.179 128.201  83.004  0.00  0.00    +0.000 A 
ATOM      3  C   UNL     1     101.197 128.833  83.775  0.00  0.00    +0.000 A 
ATOM      4  C   UNL     1      99.900 128.319  83.806  0.00  0.00    +0.000 A 
ATOM      5  C   UNL     1      99.589 127.182  83.063  0.00  0.00    +0.000 A 
ATOM      6  C   UNL     1     100.565 126.549  82.294  0.00  0.00    +0.000 A 
ATOM      7 CL   UNL     1      97.987 126.555  83.095  0.00  0.00    +0.000 Cl
ATOM      8 CL   UNL     1     103.767 128.885  82.996  0.00  0.00    +0.000 Cl
ENDROOT
BRANCH   1  10
ATOM      9  C   UNL     1     103.226 125.224  81.878  0.00  0.00    +0.000 C 
ATOM     10  N   UNL     1     102.813 126.378  81.453  0.00  0.00    +0.000 NA
BRANCH   9  14
ATOM     11  C   UNL     1     105.542 122.751  80.307  0.00  0.00    +0.000 A 
ATOM     12  C   UNL     1     105.930 123.804  79.509  0.00  0.00    +0.000 A 
ATOM     13  S   UNL     1     105.084 125.242  79.887  0.00  0.00    +0.000 S 
ATOM     14  C   UNL     1     104.192 124.466  81.123  0.00  0.00    +0.000 A 
ATOM     15  C   UNL     1     104.536 123.135  81.242  0.00  0.00    +0.000 A 
ENDBRANCH   9  14
ENDBRANCH   1  10
TORSDOF 2
ENDMDL
