MODEL 1
REMARK VINA RESULT:      -4.1      0.000      0.000
REMARK  Name = *****
REMARK  6 active torsions:
REMARK  status: ('A' for Active; 'I' for Inactive)
REMARK    1  A    between atoms: C_1  and  C_2
REMARK    2  A    between atoms: C_6  and  C_16
REMARK    3  A    between atoms: C_7  and  C_8
REMARK    4  A    between atoms: C_7  and  C_9
REMARK    5  A    between atoms: C_9  and  C_10
REMARK    6  A    between atoms: C_10  and  C_11
REMARK                            x       y       z     vdW  Elec       q    Type
REMARK                         _______ _______ _______ _____ _____    ______ ____
ROOT
ATOM      1  C   UNL     1      89.953  70.299  85.157  0.00  0.00    +0.000 C 
ATOM      2  C   UNL     1      89.035  70.788  86.285  0.00  0.00    +0.000 C 
ATOM      3  C   UNL     1      89.390  70.027  87.576  0.00  0.00    +0.000 C 
ATOM      4  C   UNL     1      88.619  70.547  88.782  0.00  0.00    +0.000 C 
ATOM      5  C   UNL     1      87.247  71.057  88.470  0.00  0.00    +0.000 C 
ATOM      6  C   UNL     1      86.713  71.166  87.237  0.00  0.00    +0.000 C 
ATOM      7  C   UNL     1      87.481  70.720  85.972  0.00  0.00    +0.000 C 
ATOM      8  C   UNL     1      87.196  71.684  84.794  0.00  0.00    +0.000 C 
ATOM      9  C   UNL     1      85.356  71.817  87.100  0.00  0.00    +0.000 C 
ENDROOT
BRANCH   7  10
ATOM     10  C   UNL     1      87.085  69.263  85.555  0.00  0.00    +0.000 C 
BRANCH  10  11
ATOM     11  C   UNL     1      86.340  68.411  86.591  0.00  0.00    +0.000 C 
BRANCH  11  12
ATOM     12  C   UNL     1      87.168  67.262  87.068  0.00  0.00    +0.000 A 
ATOM     13  C   UNL     1      86.986  66.523  88.220  0.00  0.00    +0.000 A 
ATOM     14  O   UNL     1      87.932  65.556  88.328  0.00  0.00    +0.000 OA
ATOM     15  C   UNL     1      88.735  65.667  87.239  0.00  0.00    +0.000 A 
ATOM     16  C   UNL     1      88.310  66.697  86.434  0.00  0.00    +0.000 A 
ENDBRANCH  11  12
ENDBRANCH  10  11
ENDBRANCH   7  10
TORSDOF 3
ENDMDL
