MODEL 1
REMARK VINA RESULT:      -4.3      0.000      0.000
REMARK  Name = *****
REMARK  3 active torsions:
REMARK  status: ('A' for Active; 'I' for Inactive)
REMARK    1  A    between atoms: C_4  and  C_7
REMARK    2  A    between atoms: N_8  and  S_9
REMARK    3  A    between atoms: S_9  and  C_10
REMARK                            x       y       z     vdW  Elec       q    Type
REMARK                         _______ _______ _______ _____ _____    ______ ____
ROOT
ATOM      1  C   UNL     1      99.212 127.337  82.612  0.00  0.00    +0.000 C 
ATOM      2  N   UNL     1     100.230 126.565  82.379  0.00  0.00    +0.000 NA
ENDROOT
BRANCH   1   6
ATOM      3  C   UNL     1      98.543 130.399  85.496  0.00  0.00    +0.000 A 
ATOM      4  C   UNL     1      99.210 130.710  84.311  0.00  0.00    +0.000 A 
ATOM      5  C   UNL     1      99.449 129.716  83.362  0.00  0.00    +0.000 A 
ATOM      6  C   UNL     1      99.031 128.407  83.613  0.00  0.00    +0.000 A 
ATOM      7  C   UNL     1      98.340 128.096  84.788  0.00  0.00    +0.000 A 
ATOM      8  C   UNL     1      98.105 129.095  85.733  0.00  0.00    +0.000 A 
ENDBRANCH   1   6
BRANCH   2   9
ATOM      9  S   UNL     1     101.570 126.621  83.370  0.00  0.00    +0.000 S 
BRANCH   9  10
ATOM     10  C   UNL     1     102.720 125.624  82.432  0.00  0.00    +0.000 A 
ATOM     11  C   UNL     1     103.480 124.604  83.018  0.00  0.00    +0.000 A 
ATOM     12  C   UNL     1     104.378 123.858  82.251  0.00  0.00    +0.000 A 
ATOM     13  C   UNL     1     104.529 124.129  80.892  0.00  0.00    +0.000 A 
ATOM     14  C   UNL     1     103.783 125.146  80.300  0.00  0.00    +0.000 A 
ATOM     15  C   UNL     1     102.885 125.892  81.068  0.00  0.00    +0.000 A 
ENDBRANCH   9  10
ENDBRANCH   2   9
TORSDOF 3
ENDMDL
