MODEL 1
REMARK VINA RESULT:      -4.2      0.000      0.000
REMARK  Name = *****
REMARK  4 active torsions:
REMARK  status: ('A' for Active; 'I' for Inactive)
REMARK    1  A    between atoms: C_1  and  C_2
REMARK    2  A    between atoms: C_7  and  N_8
REMARK    3  A    between atoms: C_9  and  C_10
REMARK    4  A    between atoms: C_13  and  C_15
REMARK                            x       y       z     vdW  Elec       q    Type
REMARK                         _______ _______ _______ _____ _____    ______ ____
ROOT
ATOM      1  N   UNL     1     102.058 126.071  82.805  0.00  0.00    +0.000 NA
ATOM      2  C   UNL     1     102.533 125.925  81.607  0.00  0.00    +0.000 C 
ENDROOT
BRANCH   1   9
ATOM      3  C   UNL     1     102.607 128.631  84.070  0.00  0.00    +0.000 C 
ATOM      4  C   UNL     1     101.251 128.266  83.536  0.00  0.00    +0.000 A 
ATOM      5  C   UNL     1     100.185 129.172  83.651  0.00  0.00    +0.000 A 
ATOM      6  C   UNL     1      98.922 128.852  83.154  0.00  0.00    +0.000 A 
ATOM      7  C   UNL     1      98.709 127.623  82.535  0.00  0.00    +0.000 A 
ATOM      8  C   UNL     1      99.759 126.712  82.423  0.00  0.00    +0.000 A 
ATOM      9  C   UNL     1     101.026 127.015  82.935  0.00  0.00    +0.000 A 
ENDBRANCH   1   9
BRANCH   2  10
ATOM     10  C   UNL     1     103.592 124.982  81.347  0.00  0.00    +0.000 A 
ATOM     11  C   UNL     1     104.243 124.714  80.162  0.00  0.00    +0.000 A 
ATOM     12  C   UNL     1     105.241 123.708  80.310  0.00  0.00    +0.000 A 
ATOM     13  C   UNL     1     105.321 123.240  81.605  0.00  0.00    +0.000 A 
ATOM     14  S   UNL     1     104.188 124.020  82.626  0.00  0.00    +0.000 S 
ATOM     15  C   UNL     1     106.229 122.198  82.162  0.00  0.00    +0.000 C 
ENDBRANCH   2  10
TORSDOF 2
ENDMDL
