MODEL 1
REMARK VINA RESULT:      -4.4      0.000      0.000
REMARK  Name = *****
REMARK  1 active torsions:
REMARK  status: ('A' for Active; 'I' for Inactive)
REMARK    1  A    between atoms: C_4  and  N_7
REMARK                            x       y       z     vdW  Elec       q    Type
REMARK                         _______ _______ _______ _____ _____    ______ ____
ROOT
ATOM      1  N   UNL     1     103.037 126.787  81.735  0.00  0.00    +0.000 NA
ATOM      2  C   UNL     1     103.033 125.337  82.024  0.00  0.00    +0.000 C 
ATOM      3  C   UNL     1     104.083 124.716  81.142  0.00  0.00    +0.000 A 
ATOM      4  C   UNL     1     104.474 123.381  81.149  0.00  0.00    +0.000 A 
ATOM      5  C   UNL     1     105.449 122.960  80.242  0.00  0.00    +0.000 A 
ATOM      6  C   UNL     1     106.021 123.868  79.338  0.00  0.00    +0.000 A 
ATOM      7  C   UNL     1     105.623 125.207  79.332  0.00  0.00    +0.000 A 
ATOM      8  C   UNL     1     104.655 125.615  80.236  0.00  0.00    +0.000 A 
ATOM      9  S   UNL     1     103.985 127.246  80.433  0.00  0.00    +0.000 S 
ENDROOT
BRANCH   1  13
ATOM     10  C   UNL     1      99.499 128.014  83.929  0.00  0.00    +0.000 C 
ATOM     11  C   UNL     1     100.633 129.019  83.757  0.00  0.00    +0.000 C 
ATOM     12  C   UNL     1     101.947 128.333  83.386  0.00  0.00    +0.000 C 
ATOM     13  C   UNL     1     101.787 127.453  82.130  0.00  0.00    +0.000 C 
ATOM     14  C   UNL     1     100.644 126.438  82.321  0.00  0.00    +0.000 C 
ATOM     15  C   UNL     1      99.335 127.135  82.694  0.00  0.00    +0.000 C 
ENDBRANCH   1  13
TORSDOF 1
ENDMDL
