REMARK  Name = *****
REMARK  4 active torsions:
REMARK  status: ('A' for Active; 'I' for Inactive)
REMARK    1  A    between atoms: C_4  and  N_7
REMARK    2  A    between atoms: C_8  and  C_9
REMARK    3  A    between atoms: C_14  and  O_15
REMARK    4  A    between atoms: O_15  and  O_16
REMARK                            x       y       z     vdW  Elec       q    Type
REMARK                         _______ _______ _______ _____ _____    ______ ____
ROOT
ATOM      1  C   UNL     1      -5.013  -0.194  -0.612  0.00  0.00    +0.000 A 
ATOM      2  C   UNL     1      -5.476   1.022  -1.133  0.00  0.00    +0.000 A 
ATOM      3  C   UNL     1      -6.838   1.209  -1.371  0.00  0.00    +0.000 A 
ATOM      4  C   UNL     1      -7.741   0.188  -1.084  0.00  0.00    +0.000 A 
ATOM      5  C   UNL     1      -7.285  -1.027  -0.566  0.00  0.00    +0.000 A 
ATOM      6  C   UNL     1      -5.918  -1.230  -0.342  0.00  0.00    +0.000 A 
ENDROOT
BRANCH   1   8
ATOM      7  N   UNL     1      -2.700   0.541  -0.650  0.00  0.00    +0.000 NA
ATOM      8  C   UNL     1      -3.569  -0.376  -0.355  0.00  0.00    +0.000 C 
BRANCH   7  12
ATOM      9  C   UNL     1       1.310  -0.344   0.236  0.00  0.00    +0.000 A 
ATOM     10  C   UNL     1       0.778  -0.689  -1.006  0.00  0.00    +0.000 A 
ATOM     11  C   UNL     1      -0.555  -0.394  -1.299  0.00  0.00    +0.000 A 
ATOM     12  C   UNL     1      -1.365   0.236  -0.351  0.00  0.00    +0.000 A 
ATOM     13  C   UNL     1      -0.820   0.592   0.885  0.00  0.00    +0.000 A 
ATOM     14  C   UNL     1       0.513   0.300   1.181  0.00  0.00    +0.000 A 
ENDBRANCH   7  12
ENDBRANCH   1   8
BRANCH   6  15
ATOM     15  O   UNL     1      -5.434  -2.406   0.186  0.00  0.00    +0.000 OA
BRANCH  15  16
ATOM     16  O   UNL     1      -6.296  -3.494  -0.252  0.00  0.00    +0.000 OA
ATOM     17  H   UNL     1      -5.969  -4.332   0.111  0.00  0.00    +0.000 HD
ENDBRANCH  15  16
ENDBRANCH   6  15
TORSDOF 4
