MODEL 1
REMARK VINA RESULT:      -4.8      0.000      0.000
REMARK  Name = *****
REMARK  6 active torsions:
REMARK  status: ('A' for Active; 'I' for Inactive)
REMARK    1  A    between atoms: C_1  and  C_2
REMARK    2  A    between atoms: C_4  and  C_8
REMARK    3  A    between atoms: C_8  and  C_9
REMARK    4  A    between atoms: C_8  and  C_10
REMARK    5  A    between atoms: C_8  and  C_17
REMARK    6  A    between atoms: C_10  and  C_11
REMARK                            x       y       z     vdW  Elec       q    Type
REMARK                         _______ _______ _______ _____ _____    ______ ____
ROOT
ATOM      1  C   UNL     1      88.163  70.774  85.429  0.00  0.00    +0.000 C 
ATOM      2  C   UNL     1      89.055  71.769  84.652  0.00  0.00    +0.000 C 
ENDROOT
BRANCH   1   6
ATOM      3  C   UNL     1      84.933  71.985  89.137  0.00  0.00    +0.000 C 
ATOM      4  C   UNL     1      85.260  71.954  87.673  0.00  0.00    +0.000 A 
ATOM      5  C   UNL     1      86.479  71.421  87.231  0.00  0.00    +0.000 A 
ATOM      6  C   UNL     1      86.803  71.350  85.859  0.00  0.00    +0.000 A 
ATOM      7  C   UNL     1      85.860  71.837  84.941  0.00  0.00    +0.000 A 
ATOM      8  C   UNL     1      84.638  72.355  85.372  0.00  0.00    +0.000 A 
ATOM      9  C   UNL     1      84.335  72.407  86.731  0.00  0.00    +0.000 A 
ENDBRANCH   1   6
BRANCH   1  10
ATOM     10  C   UNL     1      87.904  69.649  84.415  0.00  0.00    +0.000 C 
ATOM     11  O   UNL     1      88.438  69.556  83.313  0.00  0.00    +0.000 OA
ENDBRANCH   1  10
BRANCH   1  12
ATOM     12  C   UNL     1      88.945  70.181  86.640  0.00  0.00    +0.000 C 
BRANCH  12  13
ATOM     13  C   UNL     1      88.933  68.671  86.768  0.00  0.00    +0.000 A 
ATOM     14  C   UNL     1      89.994  67.900  86.270  0.00  0.00    +0.000 A 
ATOM     15  C   UNL     1      89.975  66.510  86.383  0.00  0.00    +0.000 A 
ATOM     16  C   UNL     1      88.899  65.873  87.000  0.00  0.00    +0.000 A 
ATOM     17  C   UNL     1      87.843  66.628  87.504  0.00  0.00    +0.000 A 
ATOM     18  C   UNL     1      87.860  68.019  87.392  0.00  0.00    +0.000 A 
ENDBRANCH  12  13
ENDBRANCH   1  12
TORSDOF 4
ENDMDL
