MODEL 1
REMARK VINA RESULT:      -5.2      0.000      0.000
REMARK  Name = *****
REMARK  1 active torsions:
REMARK  status: ('A' for Active; 'I' for Inactive)
REMARK    1  A    between atoms: C_4  and  P_7
REMARK                            x       y       z     vdW  Elec       q    Type
REMARK                         _______ _______ _______ _____ _____    ______ ____
ROOT
ATOM      1  P   UNL     1      89.314  69.556  86.180  0.00  0.00    +0.000 P 
ATOM      2  C   UNL     1      88.915  70.097  87.883  0.00  0.00    +0.000 C 
ATOM      3  C   UNL     1      87.851  70.771  88.366  0.00  0.00    +0.000 C 
ATOM      4  C   UNL     1      86.591  71.321  87.772  0.00  0.00    +0.000 A 
ATOM      5  C   UNL     1      85.562  71.674  88.663  0.00  0.00    +0.000 A 
ATOM      6  C   UNL     1      84.357  72.216  88.202  0.00  0.00    +0.000 A 
ATOM      7  C   UNL     1      84.154  72.422  86.841  0.00  0.00    +0.000 A 
ATOM      8  C   UNL     1      85.156  72.090  85.933  0.00  0.00    +0.000 A 
ATOM      9  C   UNL     1      86.360  71.544  86.391  0.00  0.00    +0.000 A 
ATOM     10  C   UNL     1      87.417  71.214  85.432  0.00  0.00    +0.000 C 
ATOM     11  C   UNL     1      87.700  69.901  85.416  0.00  0.00    +0.000 C 
ENDROOT
BRANCH   1  15
ATOM     12  C   UNL     1      89.118  64.961  86.778  0.00  0.00    +0.000 A 
ATOM     13  C   UNL     1      90.157  65.503  86.027  0.00  0.00    +0.000 A 
ATOM     14  C   UNL     1      90.236  66.886  85.835  0.00  0.00    +0.000 A 
ATOM     15  C   UNL     1      89.277  67.746  86.390  0.00  0.00    +0.000 A 
ATOM     16  C   UNL     1      88.236  67.181  87.145  0.00  0.00    +0.000 A 
ATOM     17  C   UNL     1      88.156  65.799  87.337  0.00  0.00    +0.000 A 
ENDBRANCH   1  15
TORSDOF 1
ENDMDL
