MODEL 1
REMARK VINA RESULT:      -4.4      0.000      0.000
REMARK  Name = *****
REMARK  1 active torsions:
REMARK  status: ('A' for Active; 'I' for Inactive)
REMARK    1  A    between atoms: C_4  and  P_7
REMARK                            x       y       z     vdW  Elec       q    Type
REMARK                         _______ _______ _______ _____ _____    ______ ____
ROOT
ATOM      1  P   UNL     1      87.139  63.392  86.306  0.00  0.00    +0.000 P 
ATOM      2  N   UNL     1      87.842  64.924  86.380  0.00  0.00    +0.000 N 
ATOM      3  C   UNL     1      89.176  64.863  85.887  0.00  0.00    +0.000 A 
ATOM      4  C   UNL     1      90.069  65.915  85.803  0.00  0.00    +0.000 A 
ATOM      5  C   UNL     1      91.359  65.646  85.337  0.00  0.00    +0.000 A 
ATOM      6  C   UNL     1      91.734  64.342  84.966  0.00  0.00    +0.000 A 
ATOM      7  C   UNL     1      90.830  63.280  85.065  0.00  0.00    +0.000 A 
ATOM      8  C   UNL     1      89.565  63.546  85.553  0.00  0.00    +0.000 A 
ATOM      9  N   UNL     1      88.481  62.639  85.644  0.00  0.00    +0.000 N 
ATOM     10  H   UNL     1      87.397  65.736  86.712  0.00  0.00    +0.000 HD
ATOM     11  H   UNL     1      88.513  61.698  85.358  0.00  0.00    +0.000 HD
ENDROOT
BRANCH   1  15
ATOM     12  C   UNL     1      86.073  62.896  90.856  0.00  0.00    +0.000 C 
ATOM     13  C   UNL     1      85.870  61.692  89.943  0.00  0.00    +0.000 C 
ATOM     14  C   UNL     1      85.892  62.090  88.468  0.00  0.00    +0.000 C 
ATOM     15  C   UNL     1      87.180  62.847  88.108  0.00  0.00    +0.000 C 
ATOM     16  C   UNL     1      87.371  64.062  89.031  0.00  0.00    +0.000 C 
ATOM     17  C   UNL     1      87.347  63.657  90.504  0.00  0.00    +0.000 C 
ENDBRANCH   1  15
TORSDOF 1
ENDMDL
