REMARK  Name = *****
REMARK  2 active torsions:
REMARK  status: ('A' for Active; 'I' for Inactive)
REMARK    1  A    between atoms: C_1  and  C_2
REMARK    2  A    between atoms: C_9  and  C_11
REMARK                            x       y       z     vdW  Elec       q    Type
REMARK                         _______ _______ _______ _____ _____    ______ ____
ROOT
ATOM      1  C   UNL     1       0.945  -0.095  -0.052  0.00  0.00    +0.000 C 
ATOM      2  C   UNL     1       2.447  -0.104  -0.038  0.00  0.00    +0.000 A 
ATOM      3  C   UNL     1       3.151  -1.324  -0.058  0.00  0.00    +0.000 A 
ATOM      4  C   UNL     1       4.552  -1.289  -0.048  0.00  0.00    +0.000 A 
ATOM      5  C   UNL     1       5.191  -0.063  -0.020  0.00  0.00    +0.000 A 
ATOM      6  C   UNL     1       4.547   1.166  -0.001  0.00  0.00    +0.000 A 
ATOM      7  C   UNL     1       3.147   1.117  -0.012  0.00  0.00    +0.000 A 
ATOM      8  O   UNL     1       6.534  -0.294  -0.016  0.00  0.00    +0.000 OA
ATOM      9  C   UNL     1       6.641  -1.661  -0.042  0.00  0.00    +0.000 A 
ATOM     10  N   UNL     1       5.481  -2.298  -0.061  0.00  0.00    +0.000 NA
ENDROOT
BRANCH   9  11
ATOM     11  C   UNL     1       7.985  -2.230  -0.047  0.00  0.00    +0.000 A 
ATOM     12  C   UNL     1       8.136  -3.628  -0.078  0.00  0.00    +0.000 A 
ATOM     13  C   UNL     1       9.404  -4.218  -0.085  0.00  0.00    +0.000 A 
ATOM     14  C   UNL     1      10.544  -3.419  -0.060  0.00  0.00    +0.000 A 
ATOM     15  C   UNL     1      10.414  -2.032  -0.028  0.00  0.00    +0.000 A 
ATOM     16  C   UNL     1       9.146  -1.449  -0.022  0.00  0.00    +0.000 A 
ATOM     17  F   UNL     1       9.082  -0.109   0.010  0.00  0.00    +0.000 F 
ENDBRANCH   9  11
TORSDOF 1
