MODEL 1
REMARK VINA RESULT:      -4.6      0.000      0.000
REMARK  Name = *****
REMARK  3 active torsions:
REMARK  status: ('A' for Active; 'I' for Inactive)
REMARK    1  A    between atoms: C_5  and  N_7
REMARK    2  A    between atoms: N_7  and  O_18
REMARK    3  A    between atoms: C_8  and  C_10
REMARK                            x       y       z     vdW  Elec       q    Type
REMARK                         _______ _______ _______ _____ _____    ______ ____
ROOT
ATOM      1  N   UNL     1     101.160 126.625  83.217  0.00  0.00    +0.000 N 
ATOM      2  C   UNL     1     102.552 126.688  83.268  0.00  0.00    +0.000 C 
ATOM      3  O   UNL     1     103.238 127.443  83.950  0.00  0.00    +0.000 OA
ENDROOT
BRANCH   2   4
ATOM      4  C   UNL     1     103.275 125.708  82.438  0.00  0.00    +0.000 A 
ATOM      5  C   UNL     1     103.663 126.006  81.128  0.00  0.00    +0.000 A 
ATOM      6  C   UNL     1     104.358 125.052  80.382  0.00  0.00    +0.000 A 
ATOM      7  C   UNL     1     104.665 123.816  80.953  0.00  0.00    +0.000 A 
ATOM      8  C   UNL     1     104.289 123.522  82.265  0.00  0.00    +0.000 A 
ATOM      9  C   UNL     1     103.594 124.471  83.015  0.00  0.00    +0.000 A 
ATOM     10 CL   UNL     1     105.521 122.641  80.032  0.00  0.00    +0.000 Cl
ATOM     11 CL   UNL     1     103.305 127.521  80.383  0.00  0.00    +0.000 Cl
ENDBRANCH   2   4
BRANCH   1  16
ATOM     12  C   UNL     1      99.438 129.862  83.877  0.00  0.00    +0.000 A 
ATOM     13  C   UNL     1      98.713 129.572  85.029  0.00  0.00    +0.000 A 
ATOM     14  C   UNL     1      98.759 128.290  85.572  0.00  0.00    +0.000 A 
ATOM     15  C   UNL     1      99.548 127.295  84.978  0.00  0.00    +0.000 A 
ATOM     16  C   UNL     1     100.321 127.587  83.840  0.00  0.00    +0.000 A 
ATOM     17  C   UNL     1     100.227 128.874  83.282  0.00  0.00    +0.000 A 
ATOM     18 CL   UNL     1      99.358 125.688  85.598  0.00  0.00    +0.000 Cl
ENDBRANCH   1  16
BRANCH   1  19
ATOM     19  O   UNL     1     100.615 126.010  82.060  0.00  0.00    +0.000 OA
ATOM     20  H   UNL     1     100.052 126.645  81.591  0.00  0.00    +0.000 HD
ENDBRANCH   1  19
TORSDOF 3
ENDMDL
