MODEL 1
REMARK VINA RESULT:      -4.0      0.000      0.000
REMARK  Name = *****
REMARK  4 active torsions:
REMARK  status: ('A' for Active; 'I' for Inactive)
REMARK    1  A    between atoms: C_1  and  N_2
REMARK    2  A    between atoms: N_2  and  C_3
REMARK    3  A    between atoms: N_2  and  C_9
REMARK    4  A    between atoms: C_3  and  C_4
REMARK                            x       y       z     vdW  Elec       q    Type
REMARK                         _______ _______ _______ _____ _____    ______ ____
ROOT
ATOM      1  C   UNL     1      86.048  64.854  86.787  0.00  0.00    +0.000 C 
ATOM      2  N   UNL     1      87.341  64.182  86.860  0.00  0.00    +0.000 N 
ENDROOT
BRANCH   2   3
ATOM      3  C   UNL     1      88.505  64.841  86.467  0.00  0.00    +0.000 A 
ATOM      4  C   UNL     1      89.542  64.190  85.778  0.00  0.00    +0.000 A 
ATOM      5  C   UNL     1      90.710  64.863  85.402  0.00  0.00    +0.000 A 
ATOM      6  C   UNL     1      90.887  66.205  85.711  0.00  0.00    +0.000 A 
ATOM      7  C   UNL     1      89.888  66.875  86.405  0.00  0.00    +0.000 A 
ATOM      8  C   UNL     1      88.720  66.196  86.777  0.00  0.00    +0.000 A 
ATOM      9 CL   UNL     1      91.943  64.018  84.545  0.00  0.00    +0.000 Cl
ENDBRANCH   2   3
BRANCH   2  10
ATOM     10  C   UNL     1      87.418  63.035  87.773  0.00  0.00    +0.000 C 
BRANCH  10  11
ATOM     11  C   UNL     1      87.873  63.454  89.133  0.00  0.00    +0.000 C 
ATOM     12  C   UNL     1      89.109  63.540  89.657  0.00  0.00    +0.000 C 
ATOM     13  C   UNL     1      89.026  64.001  91.020  0.00  0.00    +0.000 C 
ATOM     14  C   UNL     1      87.741  64.202  91.343  0.00  0.00    +0.000 C 
ATOM     15  C   UNL     1      86.864  63.874  90.171  0.00  0.00    +0.000 C 
ENDBRANCH  10  11
ENDBRANCH   2  10
TORSDOF 3
ENDMDL
