MODEL 1
REMARK VINA RESULT:      -4.3      0.000      0.000
REMARK  Name = *****
REMARK  3 active torsions:
REMARK  status: ('A' for Active; 'I' for Inactive)
REMARK    1  A    between atoms: C_1  and  N_2
REMARK    2  A    between atoms: C_6  and  C_7
REMARK    3  A    between atoms: C_8  and  C_9
REMARK                            x       y       z     vdW  Elec       q    Type
REMARK                         _______ _______ _______ _____ _____    ______ ____
ROOT
ATOM      1  C   UNL     1     103.097 126.243  82.356  0.00  0.00    +0.000 C 
ATOM      2  C   UNL     1     101.761 126.369  82.378  0.00  0.00    +0.000 C 
ENDROOT
BRANCH   2   3
ATOM      3  C   UNL     1     101.081 127.535  82.967  0.00  0.00    +0.000 A 
ATOM      4  C   UNL     1      99.679 127.653  82.987  0.00  0.00    +0.000 A 
ATOM      5  C   UNL     1      99.065 128.763  83.576  0.00  0.00    +0.000 A 
ATOM      6  C   UNL     1      99.847 129.757  84.156  0.00  0.00    +0.000 A 
ATOM      7  C   UNL     1     101.235 129.654  84.159  0.00  0.00    +0.000 A 
ATOM      8  C   UNL     1     101.850 128.545  83.571  0.00  0.00    +0.000 A 
ATOM      9 CL   UNL     1      99.092 131.123  84.882  0.00  0.00    +0.000 Cl
ATOM     10 CL   UNL     1      98.650 126.456  82.278  0.00  0.00    +0.000 Cl
ENDBRANCH   2   3
BRANCH   1  16
ATOM     11  C   UNL     1     104.064 123.962  84.016  0.00  0.00    +0.000 C 
ATOM     12  N   UNL     1     104.146 124.052  82.572  0.00  0.00    +0.000 N 
ATOM     13  C   UNL     1     104.701 123.071  81.787  0.00  0.00    +0.000 A 
ATOM     14  C   UNL     1     104.645 123.485  80.477  0.00  0.00    +0.000 A 
ATOM     15  C   UNL     1     104.033 124.759  80.472  0.00  0.00    +0.000 A 
ATOM     16  C   UNL     1     103.721 125.104  81.778  0.00  0.00    +0.000 A 
ENDBRANCH   1  16
TORSDOF 2
ENDMDL
