MODEL 1
REMARK VINA RESULT:      -4.8      0.000      0.000
REMARK  Name = *****
REMARK  3 active torsions:
REMARK  status: ('A' for Active; 'I' for Inactive)
REMARK    1  A    between atoms: C_1  and  C_2
REMARK    2  A    between atoms: C_2  and  C_9
REMARK    3  A    between atoms: C_9  and  C_11
REMARK                            x       y       z     vdW  Elec       q    Type
REMARK                         _______ _______ _______ _____ _____    ______ ____
ROOT
ATOM      1  C   UNL     1      87.449  68.040  87.935  0.00  0.00    +0.000 C 
ATOM      2  C   UNL     1      88.194  69.306  87.634  0.00  0.00    +0.000 C 
ATOM      3  C   UNL     1      89.191  69.440  86.730  0.00  0.00    +0.000 C 
ATOM      4  C   UNL     1      89.724  68.285  85.906  0.00  0.00    +0.000 C 
ATOM      5  C   UNL     1      89.609  68.590  84.412  0.00  0.00    +0.000 C 
ATOM      6  C   UNL     1      90.287  69.911  84.049  0.00  0.00    +0.000 C 
ATOM      7  C   UNL     1      89.777  71.063  84.915  0.00  0.00    +0.000 C 
ATOM      8  C   UNL     1      89.891  70.747  86.406  0.00  0.00    +0.000 C 
ENDROOT
BRANCH   2   9
ATOM      9  C   UNL     1      87.698  70.506  88.372  0.00  0.00    +0.000 C 
ATOM     10  O   UNL     1      88.296  70.917  89.361  0.00  0.00    +0.000 OA
BRANCH   9  11
ATOM     11  C   UNL     1      86.494  71.210  87.845  0.00  0.00    +0.000 A 
ATOM     12  C   UNL     1      86.272  71.402  86.476  0.00  0.00    +0.000 A 
ATOM     13  C   UNL     1      85.124  72.069  86.038  0.00  0.00    +0.000 A 
ATOM     14  C   UNL     1      84.193  72.543  86.962  0.00  0.00    +0.000 A 
ATOM     15  C   UNL     1      84.402  72.346  88.325  0.00  0.00    +0.000 A 
ATOM     16  C   UNL     1      85.547  71.679  88.766  0.00  0.00    +0.000 A 
ENDBRANCH   9  11
ENDBRANCH   2   9
TORSDOF 2
ENDMDL
