MODEL 1
REMARK VINA RESULT:      -4.6      0.000      0.000
REMARK  Name = *****
REMARK  3 active torsions:
REMARK  status: ('A' for Active; 'I' for Inactive)
REMARK    1  A    between atoms: C_4  and  C_7
REMARK    2  A    between atoms: C_8  and  C_9
REMARK    3  A    between atoms: C_10  and  C_15
REMARK                            x       y       z     vdW  Elec       q    Type
REMARK                         _______ _______ _______ _____ _____    ______ ____
ROOT
ATOM      1  C   UNL     1     102.111 126.173  82.147  0.00  0.00    +0.000 C 
ATOM      2  C   UNL     1     102.988 125.445  81.766  0.00  0.00    +0.000 C 
ENDROOT
BRANCH   1   6
ATOM      3  C   UNL     1      99.021 128.747  83.432  0.00  0.00    +0.000 A 
ATOM      4  C   UNL     1      98.711 127.571  82.750  0.00  0.00    +0.000 A 
ATOM      5  C   UNL     1      99.732 126.719  82.325  0.00  0.00    +0.000 A 
ATOM      6  C   UNL     1     101.066 127.045  82.583  0.00  0.00    +0.000 A 
ATOM      7  C   UNL     1     101.376 128.223  83.266  0.00  0.00    +0.000 A 
ATOM      8  C   UNL     1     100.353 129.073  83.691  0.00  0.00    +0.000 A 
ENDBRANCH   1   6
BRANCH   2   9
ATOM      9  C   UNL     1     104.030 124.593  81.289  0.00  0.00    +0.000 A 
ATOM     10  C   UNL     1     104.613 123.595  82.052  0.00  0.00    +0.000 A 
ATOM     11  C   UNL     1     105.624 122.827  81.475  0.00  0.00    +0.000 A 
ATOM     12  C   UNL     1     105.989 123.105  80.172  0.00  0.00    +0.000 A 
ATOM     13  N   UNL     1     105.404 124.082  79.454  0.00  0.00    +0.000 NA
ATOM     14  N   UNL     1     104.414 124.836  80.018  0.00  0.00    +0.000 NA
BRANCH  10  15
ATOM     15  C   UNL     1     104.203 123.343  83.396  0.00  0.00    +0.000 C 
ATOM     16  N   UNL     1     103.867 123.163  84.493  0.00  0.00    +0.000 NA
ENDBRANCH  10  15
ENDBRANCH   2   9
TORSDOF 3
ENDMDL
