MODEL 1
REMARK VINA RESULT:      -5.4      0.000      0.000
REMARK  Name = *****
REMARK  2 active torsions:
REMARK  status: ('A' for Active; 'I' for Inactive)
REMARK    1  A    between atoms: C_1  and  C_2
REMARK    2  A    between atoms: C_9  and  C_12
REMARK                            x       y       z     vdW  Elec       q    Type
REMARK                         _______ _______ _______ _____ _____    ______ ____
ROOT
ATOM      1  C   UNL     1     105.519 122.261  83.443  0.00  0.00    +0.000 C 
ATOM      2  C   UNL     1     105.142 123.106  82.256  0.00  0.00    +0.000 A 
ATOM      3  C   UNL     1     104.133 124.074  82.381  0.00  0.00    +0.000 A 
ATOM      4  C   UNL     1     103.809 124.861  81.261  0.00  0.00    +0.000 A 
ATOM      5  C   UNL     1     104.495 124.682  80.049  0.00  0.00    +0.000 A 
ATOM      6  C   UNL     1     105.502 123.726  79.941  0.00  0.00    +0.000 A 
ATOM      7  C   UNL     1     105.826 122.941  81.041  0.00  0.00    +0.000 A 
ATOM      8  C   UNL     1     102.796 125.824  81.383  0.00  0.00    +0.000 A 
ATOM      9  C   UNL     1     102.133 125.985  82.592  0.00  0.00    +0.000 A 
ATOM     10  N   UNL     1     102.477 125.219  83.646  0.00  0.00    +0.000 NA
ATOM     11  N   UNL     1     103.474 124.267  83.536  0.00  0.00    +0.000 NA
ENDROOT
BRANCH   9  12
ATOM     12  C   UNL     1     101.056 126.969  82.815  0.00  0.00    +0.000 A 
ATOM     13  C   UNL     1      99.730 126.733  82.408  0.00  0.00    +0.000 A 
ATOM     14  C   UNL     1      98.722 127.680  82.624  0.00  0.00    +0.000 A 
ATOM     15  C   UNL     1      99.018 128.884  83.257  0.00  0.00    +0.000 A 
ATOM     16  C   UNL     1     100.319 129.140  83.678  0.00  0.00    +0.000 A 
ATOM     17  C   UNL     1     101.324 128.192  83.460  0.00  0.00    +0.000 A 
ENDBRANCH   9  12
TORSDOF 1
ENDMDL
