REMARK  Name = *****
REMARK  1 active torsions:
REMARK  status: ('A' for Active; 'I' for Inactive)
REMARK    1  A    between atoms: C_8  and  C_10
REMARK                            x       y       z     vdW  Elec       q    Type
REMARK                         _______ _______ _______ _____ _____    ______ ____
ROOT
ATOM      1  C   UNL     1       2.208   0.619  -0.091  0.00  0.00    +0.000 A 
ATOM      2  C   UNL     1       2.116  -0.767   0.091  0.00  0.00    +0.000 A 
ATOM      3  C   UNL     1       0.875  -1.408   0.194  0.00  0.00    +0.000 A 
ATOM      4  C   UNL     1      -0.238  -0.581   0.104  0.00  0.00    +0.000 A 
ATOM      5  C   UNL     1      -0.190   0.790  -0.075  0.00  0.00    +0.000 A 
ATOM      6  C   UNL     1       1.057   1.418  -0.177  0.00  0.00    +0.000 A 
ATOM      7  N   UNL     1      -1.464   1.295  -0.122  0.00  0.00    +0.000 NA
ATOM      8  C   UNL     1      -2.237   0.234   0.033  0.00  0.00    +0.000 A 
ATOM      9  O   UNL     1      -1.549  -0.947   0.171  0.00  0.00    +0.000 OA
ENDROOT
BRANCH   8  10
ATOM     10  C   UNL     1      -3.689   0.148   0.053  0.00  0.00    +0.000 A 
ATOM     11  C   UNL     1      -4.469   1.164  -0.514  0.00  0.00    +0.000 A 
ATOM     12  C   UNL     1      -5.862   1.111  -0.507  0.00  0.00    +0.000 A 
ATOM     13  C   UNL     1      -6.495   0.026   0.080  0.00  0.00    +0.000 A 
ATOM     14  C   UNL     1      -5.759  -0.998   0.655  0.00  0.00    +0.000 A 
ATOM     15  C   UNL     1      -4.367  -0.930   0.638  0.00  0.00    +0.000 A 
ATOM     16  F   UNL     1      -3.693  -1.931   1.223  0.00  0.00    +0.000 F 
ATOM     17  F   UNL     1      -7.832  -0.032   0.092  0.00  0.00    +0.000 F 
ATOM     18  F   UNL     1      -3.894   2.222  -1.104  0.00  0.00    +0.000 F 
ENDBRANCH   8  10
TORSDOF 1
