MODEL 1
REMARK VINA RESULT:      -4.5      0.000      0.000
REMARK  Name = *****
REMARK  3 active torsions:
REMARK  status: ('A' for Active; 'I' for Inactive)
REMARK    1  A    between atoms: C_6  and  C_7
REMARK    2  A    between atoms: C_7  and  O_9
REMARK    3  A    between atoms: O_9  and  C_10
REMARK                            x       y       z     vdW  Elec       q    Type
REMARK                         _______ _______ _______ _____ _____    ______ ____
ROOT
ATOM      1  C   UNL     1      89.711  68.908  85.776  0.00  0.00    +0.000 C 
ATOM      2  O   UNL     1      89.896  68.995  84.571  0.00  0.00    +0.000 OA
ENDROOT
BRANCH   1   8
ATOM      3  C   UNL     1      87.594  70.310  85.867  0.00  0.00    +0.000 A 
ATOM      4  C   UNL     1      86.681  71.068  86.604  0.00  0.00    +0.000 A 
ATOM      5  C   UNL     1      86.873  71.244  87.970  0.00  0.00    +0.000 A 
ATOM      6  C   UNL     1      87.963  70.673  88.618  0.00  0.00    +0.000 A 
ATOM      7  C   UNL     1      88.878  69.914  87.885  0.00  0.00    +0.000 A 
ATOM      8  C   UNL     1      88.701  69.727  86.505  0.00  0.00    +0.000 A 
ATOM      9  F   UNL     1      85.996  71.972  88.672  0.00  0.00    +0.000 F 
ENDBRANCH   1   8
BRANCH   1  10
ATOM     10  O   UNL     1      90.350  68.057  86.656  0.00  0.00    +0.000 OA
BRANCH  10  11
ATOM     11  C   UNL     1      90.156  66.716  86.327  0.00  0.00    +0.000 A 
ATOM     12  C   UNL     1      89.026  66.038  86.787  0.00  0.00    +0.000 A 
ATOM     13  C   UNL     1      88.809  64.715  86.432  0.00  0.00    +0.000 A 
ATOM     14  C   UNL     1      89.730  64.086  85.601  0.00  0.00    +0.000 A 
ATOM     15  C   UNL     1      90.852  64.759  85.119  0.00  0.00    +0.000 A 
ATOM     16  C   UNL     1      91.069  66.091  85.478  0.00  0.00    +0.000 A 
ATOM     17  F   UNL     1      89.530  62.810  85.247  0.00  0.00    +0.000 F 
ATOM     18  F   UNL     1      88.135  66.666  87.568  0.00  0.00    +0.000 F 
ENDBRANCH  10  11
ENDBRANCH   1  10
TORSDOF 3
ENDMDL
