MODEL 1
REMARK VINA RESULT:      -4.7      0.000      0.000
REMARK  Name = *****
REMARK  6 active torsions:
REMARK  status: ('A' for Active; 'I' for Inactive)
REMARK    1  A    between atoms: C_1  and  C_2
REMARK    2  A    between atoms: C_2  and  C_9
REMARK    3  A    between atoms: C_9  and  O_11
REMARK    4  A    between atoms: O_11  and  C_12
REMARK    5  A    between atoms: C_12  and  C_13
REMARK    6  A    between atoms: C_16  and  C_19
REMARK                            x       y       z     vdW  Elec       q    Type
REMARK                         _______ _______ _______ _____ _____    ______ ____
ROOT
ATOM      1  C   UNL     1     101.158 128.206  83.592  0.00  0.00    +0.000 C 
ATOM      2  O   UNL     1     101.802 129.052  84.197  0.00  0.00    +0.000 OA
ENDROOT
BRANCH   1   4
ATOM      3  C   UNL     1      99.120 129.605  83.242  0.00  0.00    +0.000 C 
ATOM      4  C   UNL     1      99.642 128.187  83.503  0.00  0.00    +0.000 C 
ATOM      5  C   UNL     1      99.209 127.213  82.427  0.00  0.00    +0.000 C 
ATOM      6  O   UNL     1      97.802 126.934  82.453  0.00  0.00    +0.000 OA
ATOM      7  C   UNL     1      97.035 127.009  83.572  0.00  0.00    +0.000 C 
ATOM      8  O   UNL     1      95.840 126.750  83.549  0.00  0.00    +0.000 OA
ATOM      9  O   UNL     1      97.652 127.426  84.707  0.00  0.00    +0.000 OA
ATOM     10  C   UNL     1      99.070 127.621  84.788  0.00  0.00    +0.000 C 
ENDBRANCH   1   4
BRANCH   1  11
ATOM     11  O   UNL     1     101.693 127.158  82.909  0.00  0.00    +0.000 OA
BRANCH  11  12
ATOM     12  C   UNL     1     102.926 127.417  82.225  0.00  0.00    +0.000 C 
BRANCH  12  13
ATOM     13  C   UNL     1     103.500 126.109  81.746  0.00  0.00    +0.000 A 
ATOM     14  C   UNL     1     103.660 125.038  82.634  0.00  0.00    +0.000 A 
ATOM     15  C   UNL     1     104.213 123.832  82.197  0.00  0.00    +0.000 A 
ATOM     16  C   UNL     1     104.631 123.680  80.867  0.00  0.00    +0.000 A 
ATOM     17  C   UNL     1     104.472 124.754  79.982  0.00  0.00    +0.000 A 
ATOM     18  C   UNL     1     103.918 125.961  80.419  0.00  0.00    +0.000 A 
BRANCH  16  19
ATOM     19  C   UNL     1     105.211 122.377  80.392  0.00  0.00    +0.000 C 
ATOM     20 CL   UNL     1     104.374 121.010  81.153  0.00  0.00    +0.000 Cl
ENDBRANCH  16  19
ENDBRANCH  12  13
ENDBRANCH  11  12
ENDBRANCH   1  11
TORSDOF 5
ENDMDL
