MODEL 1
REMARK VINA RESULT:      -4.7      0.000      0.000
REMARK  Name = *****
REMARK  5 active torsions:
REMARK  status: ('A' for Active; 'I' for Inactive)
REMARK    1  A    between atoms: C_1  and  C_2
REMARK    2  A    between atoms: C_4  and  O_8
REMARK    3  A    between atoms: O_8  and  C_9
REMARK    4  A    between atoms: C_9  and  C_11
REMARK    5  A    between atoms: C_16  and  C_17
REMARK                            x       y       z     vdW  Elec       q    Type
REMARK                         _______ _______ _______ _____ _____    ______ ____
ROOT
ATOM      1  C   UNL     1      88.537  70.428  85.919  0.00  0.00    +0.000 C 
ATOM      2  O   UNL     1      89.661  70.877  86.074  0.00  0.00    +0.000 OA
ENDROOT
BRANCH   1   3
ATOM      3  C   UNL     1      87.321  70.970  86.587  0.00  0.00    +0.000 A 
ATOM      4  C   UNL     1      86.299  71.530  85.800  0.00  0.00    +0.000 A 
ATOM      5  C   UNL     1      85.160  72.070  86.398  0.00  0.00    +0.000 A 
ATOM      6  C   UNL     1      85.034  72.061  87.783  0.00  0.00    +0.000 A 
ATOM      7  C   UNL     1      86.045  71.511  88.574  0.00  0.00    +0.000 A 
ATOM      8  C   UNL     1      87.195  70.954  87.992  0.00  0.00    +0.000 A 
ATOM      9  C   UNL     1      88.256  70.378  88.890  0.00  0.00    +0.000 C 
ENDBRANCH   1   3
BRANCH   1  10
ATOM     10  O   UNL     1      88.159  69.337  85.153  0.00  0.00    +0.000 OA
BRANCH  10  14
ATOM     11  C   UNL     1      91.398  65.599  85.373  0.00  0.00    +0.000 C 
ATOM     12  C   UNL     1      90.120  66.260  85.798  0.00  0.00    +0.000 A 
ATOM     13  C   UNL     1      89.734  67.484  85.239  0.00  0.00    +0.000 A 
ATOM     14  C   UNL     1      88.548  68.089  85.655  0.00  0.00    +0.000 A 
ATOM     15  C   UNL     1      87.761  67.524  86.656  0.00  0.00    +0.000 A 
ATOM     16  C   UNL     1      88.152  66.315  87.227  0.00  0.00    +0.000 A 
ATOM     17  C   UNL     1      89.326  65.686  86.802  0.00  0.00    +0.000 A 
ENDBRANCH  10  14
ENDBRANCH   1  10
TORSDOF 3
ENDMDL
