REMARK  Name = *****
REMARK  4 active torsions:
REMARK  status: ('A' for Active; 'I' for Inactive)
REMARK    1  A    between atoms: C_4  and  C_7
REMARK    2  A    between atoms: C_7  and  C_8
REMARK    3  A    between atoms: C_8  and  C_9
REMARK    4  A    between atoms: C_14  and  N_15
REMARK                            x       y       z     vdW  Elec       q    Type
REMARK                         _______ _______ _______ _____ _____    ______ ____
ROOT
ATOM      1  C   UNL     1      -3.602  -0.880  -0.256  0.00  0.00    +0.000 C 
ENDROOT
BRANCH   1   2
ATOM      2  C   UNL     1      -5.062  -0.474  -0.346  0.00  0.00    +0.000 A 
ATOM      3  C   UNL     1      -5.775  -0.271   0.851  0.00  0.00    +0.000 A 
ATOM      4  C   UNL     1      -7.115   0.117   0.829  0.00  0.00    +0.000 A 
ATOM      5  C   UNL     1      -7.763   0.309  -0.386  0.00  0.00    +0.000 A 
ATOM      6  C   UNL     1      -7.067   0.118  -1.581  0.00  0.00    +0.000 A 
ATOM      7  C   UNL     1      -5.714  -0.263  -1.580  0.00  0.00    +0.000 A 
BRANCH   7   8
ATOM      8  N   UNL     1      -5.049  -0.470  -2.774  0.00  0.00    +0.000 NA
ATOM      9  O   UNL     1      -5.149   0.488  -3.551  0.00  0.00    +0.000 OA
ENDBRANCH   7   8
ENDBRANCH   1   2
BRANCH   1  10
ATOM     10  C   UNL     1      -2.664   0.331  -0.348  0.00  0.00    +0.000 C 
BRANCH  10  14
ATOM     11  C   UNL     1       1.589  -0.293   0.166  0.00  0.00    +0.000 A 
ATOM     12  C   UNL     1       0.752  -1.398   0.029  0.00  0.00    +0.000 A 
ATOM     13  C   UNL     1      -0.625  -1.223  -0.136  0.00  0.00    +0.000 A 
ATOM     14  C   UNL     1      -1.186   0.061  -0.158  0.00  0.00    +0.000 A 
ATOM     15  C   UNL     1      -0.325   1.165  -0.027  0.00  0.00    +0.000 A 
ATOM     16  C   UNL     1       1.050   0.989   0.136  0.00  0.00    +0.000 A 
ENDBRANCH  10  14
ENDBRANCH   1  10
TORSDOF 4
