MODEL 1
REMARK VINA RESULT:      -4.5      0.000      0.000
REMARK  Name = *****
REMARK  5 active torsions:
REMARK  status: ('A' for Active; 'I' for Inactive)
REMARK    1  A    between atoms: C_1  and  C_2
REMARK    2  A    between atoms: C_4  and  O_11
REMARK    3  A    between atoms: C_5  and  C_8
REMARK    4  A    between atoms: O_11  and  C_12
REMARK    5  A    between atoms: C_12  and  C_13
REMARK                            x       y       z     vdW  Elec       q    Type
REMARK                         _______ _______ _______ _____ _____    ______ ____
ROOT
ATOM      1  C   UNL     1      87.519  70.942  88.986  0.00  0.00    +0.000 C 
ATOM      2  C   UNL     1      88.164  70.029  87.983  0.00  0.00    +0.000 A 
ATOM      3  C   UNL     1      87.647  68.741  87.763  0.00  0.00    +0.000 A 
ATOM      4  C   UNL     1      88.254  67.862  86.857  0.00  0.00    +0.000 A 
ATOM      5  C   UNL     1      89.394  68.292  86.159  0.00  0.00    +0.000 A 
ATOM      6  C   UNL     1      89.934  69.565  86.403  0.00  0.00    +0.000 A 
ATOM      7  C   UNL     1      89.323  70.428  87.312  0.00  0.00    +0.000 A 
ENDROOT
BRANCH   5   8
ATOM      8  C   UNL     1      90.093  67.436  85.162  0.00  0.00    +0.000 C 
ATOM      9  O   UNL     1      89.919  67.722  83.976  0.00  0.00    +0.000 OA
ATOM     10 CL   UNL     1      91.008  66.047  85.699  0.00  0.00    +0.000 Cl
ENDBRANCH   5   8
BRANCH   4  11
ATOM     11  O   UNL     1      87.831  66.582  86.626  0.00  0.00    +0.000 OA
BRANCH  11  12
ATOM     12  C   UNL     1      86.723  66.085  87.377  0.00  0.00    +0.000 C 
BRANCH  12  13
ATOM     13  C   UNL     1      87.218  65.266  88.549  0.00  0.00    +0.000 A 
ATOM     14  C   UNL     1      88.375  64.480  88.453  0.00  0.00    +0.000 A 
ATOM     15  C   UNL     1      88.839  63.761  89.557  0.00  0.00    +0.000 A 
ATOM     16  C   UNL     1      88.161  63.830  90.771  0.00  0.00    +0.000 A 
ATOM     17  C   UNL     1      87.019  64.621  90.886  0.00  0.00    +0.000 A 
ATOM     18  C   UNL     1      86.553  65.340  89.783  0.00  0.00    +0.000 A 
ENDBRANCH  12  13
ENDBRANCH  11  12
ENDBRANCH   4  11
TORSDOF 4
ENDMDL
