MODEL 1
REMARK VINA RESULT:      -4.9      0.000      0.000
REMARK  Name = *****
REMARK  1 active torsions:
REMARK  status: ('A' for Active; 'I' for Inactive)
REMARK    1  A    between atoms: C_3  and  C_8
REMARK                            x       y       z     vdW  Elec       q    Type
REMARK                         _______ _______ _______ _____ _____    ______ ____
ROOT
ATOM      1  C   UNL     1     102.623 126.139  81.775  0.00  0.00    +0.000 A 
ATOM      2  N   UNL     1     103.288 126.357  80.653  0.00  0.00    +0.000 NA
ATOM      3  C   UNL     1     104.120 125.273  80.548  0.00  0.00    +0.000 A 
ATOM      4  C   UNL     1     103.923 124.424  81.624  0.00  0.00    +0.000 A 
ATOM      5  O   UNL     1     102.960 124.974  82.418  0.00  0.00    +0.000 OA
ATOM      6  C   UNL     1     104.602 123.230  81.830  0.00  0.00    +0.000 A 
ATOM      7  C   UNL     1     105.546 122.906  80.851  0.00  0.00    +0.000 A 
ATOM      8  C   UNL     1     105.782 123.733  79.745  0.00  0.00    +0.000 A 
ATOM      9  C   UNL     1     105.069 124.931  79.577  0.00  0.00    +0.000 A 
ATOM     10 CL   UNL     1     106.447 121.444  81.012  0.00  0.00    +0.000 Cl
ENDROOT
BRANCH   1  13
ATOM     11  C   UNL     1     100.908 128.897  83.725  0.00  0.00    +0.000 A 
ATOM     12  C   UNL     1     101.913 128.122  83.135  0.00  0.00    +0.000 A 
ATOM     13  C   UNL     1     101.594 126.964  82.404  0.00  0.00    +0.000 A 
ATOM     14  C   UNL     1     100.247 126.602  82.277  0.00  0.00    +0.000 A 
ATOM     15  C   UNL     1      99.256 127.379  82.867  0.00  0.00    +0.000 A 
ATOM     16  C   UNL     1      99.574 128.522  83.589  0.00  0.00    +0.000 A 
ATOM     17  F   UNL     1      97.972 127.020  82.738  0.00  0.00    +0.000 F 
ENDBRANCH   1  13
TORSDOF 1
ENDMDL
