REMARK  Name = *****
REMARK  2 active torsions:
REMARK  status: ('A' for Active; 'I' for Inactive)
REMARK    1  A    between atoms: C_8  and  C_9
REMARK    2  A    between atoms: C_9  and  C_10
REMARK                            x       y       z     vdW  Elec       q    Type
REMARK                         _______ _______ _______ _____ _____    ______ ____
ROOT
ATOM      1  C   UNL     1      -1.298  -0.483  -0.508  0.00  0.00    +0.000 C 
ATOM      2  C   UNL     1      -0.853   0.983  -0.271  0.00  0.00    +0.000 C 
ATOM      3  C   UNL     1       0.461   0.812   0.527  0.00  0.00    +0.000 C 
ATOM      4  C   UNL     1       0.094  -0.395   1.408  0.00  0.00    +0.000 C 
ATOM      5  C   UNL     1      -0.178  -1.292   0.186  0.00  0.00    +0.000 C 
ATOM      6  C   UNL     1       1.080  -1.130  -0.661  0.00  0.00    +0.000 C 
ATOM      7  C   UNL     1       1.500   0.247  -0.437  0.00  0.00    +0.000 C 
ATOM      8  C   UNL     1       2.407  -0.861  -0.075  0.00  0.00    +0.000 C 
ENDROOT
BRANCH   8   9
ATOM      9  C   UNL     1       3.569  -1.113  -0.698  0.00  0.00    +0.000 C 
BRANCH   9  10
ATOM     10  C   UNL     1       4.762  -1.613   0.003  0.00  0.00    +0.000 A 
ATOM     11  C   UNL     1       4.765  -1.916   1.372  0.00  0.00    +0.000 A 
ATOM     12  C   UNL     1       5.920  -2.396   1.996  0.00  0.00    +0.000 A 
ATOM     13  C   UNL     1       7.087  -2.580   1.259  0.00  0.00    +0.000 A 
ATOM     14  C   UNL     1       7.100  -2.284  -0.102  0.00  0.00    +0.000 A 
ATOM     15  C   UNL     1       5.945  -1.804  -0.725  0.00  0.00    +0.000 A 
ENDBRANCH   9  10
ENDBRANCH   8   9
TORSDOF 2
