MODEL 1
REMARK VINA RESULT:      -4.7      0.000      0.000
REMARK  Name = *****
REMARK  4 active torsions:
REMARK  status: ('A' for Active; 'I' for Inactive)
REMARK    1  A    between atoms: C_1  and  C_2
REMARK    2  A    between atoms: C_5  and  N_8
REMARK    3  A    between atoms: C_9  and  C_10
REMARK    4  A    between atoms: C_9  and  C_11
REMARK                            x       y       z     vdW  Elec       q    Type
REMARK                         _______ _______ _______ _____ _____    ______ ____
ROOT
ATOM      1  N   UNL     1     102.446 125.671  82.795  0.00  0.00    +0.000 NA
ATOM      2  C   UNL     1     103.251 125.634  81.772  0.00  0.00    +0.000 C 
ATOM      3  C   UNL     1     103.415 126.770  80.778  0.00  0.00    +0.000 C 
ENDROOT
BRANCH   1   8
ATOM      4  C   UNL     1      99.185 130.242  83.842  0.00  0.00    +0.000 C 
ATOM      5  C   UNL     1     100.050 129.056  83.537  0.00  0.00    +0.000 A 
ATOM      6  C   UNL     1      99.512 127.934  82.893  0.00  0.00    +0.000 A 
ATOM      7  C   UNL     1     100.309 126.815  82.642  0.00  0.00    +0.000 A 
ATOM      8  C   UNL     1     101.652 126.800  83.025  0.00  0.00    +0.000 A 
ATOM      9  C   UNL     1     102.179 127.902  83.700  0.00  0.00    +0.000 A 
ATOM     10  C   UNL     1     101.386 129.024  83.954  0.00  0.00    +0.000 A 
ENDBRANCH   1   8
BRANCH   2  11
ATOM     11  C   UNL     1     104.054 124.390  81.554  0.00  0.00    +0.000 A 
ATOM     12  C   UNL     1     104.253 123.457  82.581  0.00  0.00    +0.000 A 
ATOM     13  C   UNL     1     105.016 122.309  82.345  0.00  0.00    +0.000 A 
ATOM     14  C   UNL     1     105.579 122.102  81.090  0.00  0.00    +0.000 A 
ATOM     15  C   UNL     1     105.401 123.023  80.066  0.00  0.00    +0.000 A 
ATOM     16  C   UNL     1     104.642 124.172  80.298  0.00  0.00    +0.000 A 
ATOM     17  F   UNL     1     106.309 121.002  80.869  0.00  0.00    +0.000 F 
ENDBRANCH   2  11
TORSDOF 2
ENDMDL
