REMARK  Name = *****
REMARK  4 active torsions:
REMARK  status: ('A' for Active; 'I' for Inactive)
REMARK    1  A    between atoms: C_4  and  S_16
REMARK    2  A    between atoms: C_5  and  C_7
REMARK    3  A    between atoms: C_8  and  C_9
REMARK    4  A    between atoms: C_14  and  S_15
REMARK                            x       y       z     vdW  Elec       q    Type
REMARK                         _______ _______ _______ _____ _____    ______ ____
ROOT
ATOM      1  C   UNL     1       0.439  -2.477   0.201  0.00  0.00    +0.000 C 
ATOM      2  C   UNL     1       1.754  -2.691   0.367  0.00  0.00    +0.000 C 
ENDROOT
BRANCH   1   7
ATOM      3  C   UNL     1      -0.501   0.974   1.398  0.00  0.00    +0.000 A 
ATOM      4  C   UNL     1      -1.333   1.420   0.377  0.00  0.00    +0.000 A 
ATOM      5  C   UNL     1      -1.587   0.599  -0.722  0.00  0.00    +0.000 A 
ATOM      6  C   UNL     1      -1.006  -0.675  -0.814  0.00  0.00    +0.000 A 
ATOM      7  C   UNL     1      -0.160  -1.132   0.218  0.00  0.00    +0.000 A 
ATOM      8  C   UNL     1       0.078  -0.294   1.321  0.00  0.00    +0.000 A 
BRANCH   6   9
ATOM      9  S   UNL     1      -1.383  -1.640  -2.275  0.00  0.00    +0.000 S 
ATOM     10  H   UNL     1      -2.221  -0.935  -3.081  0.00  0.00    +0.000 HD
ENDBRANCH   6   9
ENDBRANCH   1   7
BRANCH   2  11
ATOM     11  C   UNL     1       2.339  -4.040   0.353  0.00  0.00    +0.000 A 
ATOM     12  C   UNL     1       2.227  -4.811  -0.817  0.00  0.00    +0.000 A 
ATOM     13  C   UNL     1       2.793  -6.085  -0.889  0.00  0.00    +0.000 A 
ATOM     14  C   UNL     1       3.482  -6.602   0.204  0.00  0.00    +0.000 A 
ATOM     15  C   UNL     1       3.605  -5.846   1.371  0.00  0.00    +0.000 A 
ATOM     16  C   UNL     1       3.037  -4.568   1.457  0.00  0.00    +0.000 A 
BRANCH  16  17
ATOM     17  S   UNL     1       3.235  -3.683   3.002  0.00  0.00    +0.000 S 
ATOM     18  H   UNL     1       2.627  -2.470   2.912  0.00  0.00    +0.000 HD
ENDBRANCH  16  17
ENDBRANCH   2  11
TORSDOF 4
