MODEL 1
REMARK VINA RESULT:      -4.5      0.000      0.000
REMARK  Name = *****
REMARK  3 active torsions:
REMARK  status: ('A' for Active; 'I' for Inactive)
REMARK    1  A    between atoms: C_4  and  C_7
REMARK    2  A    between atoms: C_7  and  O_8
REMARK    3  A    between atoms: O_8  and  C_9
REMARK                            x       y       z     vdW  Elec       q    Type
REMARK                         _______ _______ _______ _____ _____    ______ ____
ROOT
ATOM      1  O   UNL     1     102.506 126.985  83.131  0.00  0.00    +0.000 OA
ENDROOT
BRANCH   1   2
ATOM      2  C   UNL     1     101.245 127.513  83.091  0.00  0.00    +0.000 A 
ATOM      3  C   UNL     1     100.840 128.775  83.531  0.00  0.00    +0.000 A 
ATOM      4  C   UNL     1      99.507 129.161  83.418  0.00  0.00    +0.000 A 
ATOM      5  C   UNL     1      98.556 128.306  82.870  0.00  0.00    +0.000 A 
ATOM      6  C   UNL     1      98.947 127.045  82.428  0.00  0.00    +0.000 A 
ATOM      7  C   UNL     1     100.284 126.653  82.540  0.00  0.00    +0.000 A 
ATOM      8  F   UNL     1      99.124 130.374  83.842  0.00  0.00    +0.000 F 
ATOM      9  F   UNL     1     101.710 129.642  84.070  0.00  0.00    +0.000 F 
ENDBRANCH   1   2
BRANCH   1  10
ATOM     10  C   UNL     1     102.629 125.602  83.467  0.00  0.00    +0.000 C 
BRANCH  10  14
ATOM     11  C   UNL     1     104.972 123.590  80.446  0.00  0.00    +0.000 A 
ATOM     12  C   UNL     1     104.944 123.097  81.749  0.00  0.00    +0.000 A 
ATOM     13  C   UNL     1     104.195 123.750  82.727  0.00  0.00    +0.000 A 
ATOM     14  C   UNL     1     103.470 124.912  82.417  0.00  0.00    +0.000 A 
ATOM     15  C   UNL     1     103.499 125.391  81.099  0.00  0.00    +0.000 A 
ATOM     16  C   UNL     1     104.249 124.735  80.121  0.00  0.00    +0.000 A 
ENDBRANCH  10  14
ENDBRANCH   1  10
TORSDOF 3
ENDMDL
