MODEL 1
REMARK VINA RESULT:      -4.7      0.000      0.000
REMARK  Name = *****
REMARK  5 active torsions:
REMARK  status: ('A' for Active; 'I' for Inactive)
REMARK    1  A    between atoms: C_1  and  C_2
REMARK    2  A    between atoms: C_5  and  N_8
REMARK    3  A    between atoms: C_9  and  C_10
REMARK    4  A    between atoms: C_12  and  C_17
REMARK    5  A    between atoms: C_13  and  C_16
REMARK                            x       y       z     vdW  Elec       q    Type
REMARK                         _______ _______ _______ _____ _____    ______ ____
ROOT
ATOM      1  N   UNL     1      88.175  65.076  88.327  0.00  0.00    +0.000 NA
ATOM      2  C   UNL     1      87.456  66.045  87.858  0.00  0.00    +0.000 C 
ENDROOT
BRANCH   2   3
ATOM      3  C   UNL     1      88.060  67.257  87.271  0.00  0.00    +0.000 A 
ATOM      4  C   UNL     1      87.394  68.485  87.315  0.00  0.00    +0.000 A 
ATOM      5  C   UNL     1      87.975  69.633  86.753  0.00  0.00    +0.000 A 
ATOM      6  C   UNL     1      89.243  69.537  86.141  0.00  0.00    +0.000 A 
ATOM      7  C   UNL     1      89.898  68.295  86.104  0.00  0.00    +0.000 A 
ATOM      8  C   UNL     1      89.311  67.159  86.665  0.00  0.00    +0.000 A 
ATOM      9  C   UNL     1      89.907  70.738  85.525  0.00  0.00    +0.000 C 
ATOM     10  C   UNL     1      87.232  70.939  86.817  0.00  0.00    +0.000 C 
ENDBRANCH   2   3
BRANCH   1  15
ATOM     11  C   UNL     1      85.209  60.670  90.435  0.00  0.00    +0.000 C 
ATOM     12  C   UNL     1      86.015  61.813  89.893  0.00  0.00    +0.000 A 
ATOM     13  C   UNL     1      86.266  62.940  90.684  0.00  0.00    +0.000 A 
ATOM     14  C   UNL     1      86.985  64.020  90.165  0.00  0.00    +0.000 A 
ATOM     15  C   UNL     1      87.463  63.989  88.853  0.00  0.00    +0.000 A 
ATOM     16  C   UNL     1      87.187  62.879  88.054  0.00  0.00    +0.000 A 
ATOM     17  C   UNL     1      86.467  61.796  88.568  0.00  0.00    +0.000 A 
ENDBRANCH   1  15
TORSDOF 2
ENDMDL
