MODEL 1
REMARK VINA RESULT:      -4.9      0.000      0.000
REMARK  Name = *****
REMARK  3 active torsions:
REMARK  status: ('A' for Active; 'I' for Inactive)
REMARK    1  A    between atoms: C_4  and  C_7
REMARK    2  A    between atoms: C_7  and  C_16
REMARK    3  A    between atoms: C_8  and  C_9
REMARK                            x       y       z     vdW  Elec       q    Type
REMARK                         _______ _______ _______ _____ _____    ______ ____
ROOT
ATOM      1  C   UNL     1     103.078 125.711  81.693  0.00  0.00    +0.000 C 
ATOM      2  C   UNL     1     102.086 125.727  82.607  0.00  0.00    +0.000 C 
ENDROOT
BRANCH   2   3
ATOM      3  C   UNL     1     101.153 126.838  82.825  0.00  0.00    +0.000 A 
ATOM      4  C   UNL     1     101.558 128.002  83.488  0.00  0.00    +0.000 A 
ATOM      5  C   UNL     1     100.645 129.038  83.694  0.00  0.00    +0.000 A 
ATOM      6  C   UNL     1      99.330 128.923  83.246  0.00  0.00    +0.000 A 
ATOM      7  C   UNL     1      98.921 127.761  82.590  0.00  0.00    +0.000 A 
ATOM      8  C   UNL     1      99.829 126.720  82.383  0.00  0.00    +0.000 A 
ATOM      9 CL   UNL     1     101.144 130.466  84.514  0.00  0.00    +0.000 Cl
ENDBRANCH   2   3
BRANCH   1  13
ATOM     10  C   UNL     1     105.519 122.199  81.390  0.00  0.00    +0.000 A 
ATOM     11  C   UNL     1     104.931 122.539  82.608  0.00  0.00    +0.000 A 
ATOM     12  C   UNL     1     104.137 123.683  82.706  0.00  0.00    +0.000 A 
ATOM     13  C   UNL     1     103.926 124.503  81.587  0.00  0.00    +0.000 A 
ATOM     14  C   UNL     1     104.519 124.146  80.366  0.00  0.00    +0.000 A 
ATOM     15  C   UNL     1     105.312 123.000  80.270  0.00  0.00    +0.000 A 
ENDBRANCH   1  13
BRANCH   1  16
ATOM     16  C   UNL     1     103.310 126.799  80.792  0.00  0.00    +0.000 C 
ATOM     17  N   UNL     1     103.507 127.677  80.060  0.00  0.00    +0.000 NA
ENDBRANCH   1  16
TORSDOF 3
ENDMDL
