REMARK  Name = *****
REMARK  3 active torsions:
REMARK  status: ('A' for Active; 'I' for Inactive)
REMARK    1  A    between atoms: C_5  and  N_7
REMARK    2  A    between atoms: N_7  and  O_18
REMARK    3  A    between atoms: C_8  and  C_10
REMARK                            x       y       z     vdW  Elec       q    Type
REMARK                         _______ _______ _______ _____ _____    ______ ____
ROOT
ATOM      1  N   UNL     1      -0.382  -2.361  -0.240  0.00  0.00    +0.000 N 
ATOM      2  C   UNL     1       0.210  -3.543   0.202  0.00  0.00    +0.000 C 
ATOM      3  O   UNL     1       1.349  -3.688   0.635  0.00  0.00    +0.000 OA
ENDROOT
BRANCH   2   4
ATOM      4  C   UNL     1      -0.646  -4.742   0.183  0.00  0.00    +0.000 A 
ATOM      5  C   UNL     1      -0.663  -5.609  -0.914  0.00  0.00    +0.000 A 
ATOM      6  C   UNL     1      -1.480  -6.741  -0.884  0.00  0.00    +0.000 A 
ATOM      7  C   UNL     1      -2.263  -7.000   0.242  0.00  0.00    +0.000 A 
ATOM      8  C   UNL     1      -2.237  -6.142   1.343  0.00  0.00    +0.000 A 
ATOM      9  C   UNL     1      -1.424  -5.009   1.318  0.00  0.00    +0.000 A 
ATOM     10 CL   UNL     1      -3.270  -8.395   0.277  0.00  0.00    +0.000 Cl
ATOM     11 CL   UNL     1       0.289  -5.328  -2.326  0.00  0.00    +0.000 Cl
ENDBRANCH   2   4
BRANCH   1  16
ATOM     12  C   UNL     1       0.991   0.682  -1.892  0.00  0.00    +0.000 A 
ATOM     13  C   UNL     1       1.784   1.224  -0.885  0.00  0.00    +0.000 A 
ATOM     14  C   UNL     1       1.838   0.605   0.362  0.00  0.00    +0.000 A 
ATOM     15  C   UNL     1       1.115  -0.572   0.603  0.00  0.00    +0.000 A 
ATOM     16  C   UNL     1       0.345  -1.154  -0.421  0.00  0.00    +0.000 A 
ATOM     17  C   UNL     1       0.270  -0.491  -1.658  0.00  0.00    +0.000 A 
ATOM     18 CL   UNL     1       1.074  -1.130   2.243  0.00  0.00    +0.000 Cl
ENDBRANCH   1  16
BRANCH   1  19
ATOM     19  O   UNL     1      -1.508  -2.518  -1.089  0.00  0.00    +0.000 OA
ATOM     20  H   UNL     1      -1.847  -1.645  -1.341  0.00  0.00    +0.000 HD
ENDBRANCH   1  19
TORSDOF 3
