MODEL 1
REMARK VINA RESULT:      -4.7      0.000      0.000
REMARK  Name = *****
REMARK  4 active torsions:
REMARK  status: ('A' for Active; 'I' for Inactive)
REMARK    1  A    between atoms: C_1  and  C_2
REMARK    2  A    between atoms: C_3  and  C_9
REMARK    3  A    between atoms: C_4  and  C_8
REMARK    4  A    between atoms: C_10  and  C_11
REMARK                            x       y       z     vdW  Elec       q    Type
REMARK                         _______ _______ _______ _____ _____    ______ ____
ROOT
ATOM      1  C   UNL     1     103.237 129.364  84.000  0.00  0.00    +0.000 C 
ATOM      2  C   UNL     1     101.744 129.219  83.862  0.00  0.00    +0.000 A 
ATOM      3  C   UNL     1     101.163 128.108  83.214  0.00  0.00    +0.000 A 
ATOM      4  C   UNL     1      99.761 127.996  83.118  0.00  0.00    +0.000 A 
ATOM      5  C   UNL     1      98.954 129.001  83.670  0.00  0.00    +0.000 A 
ATOM      6  C   UNL     1      99.525 130.095  84.315  0.00  0.00    +0.000 A 
ATOM      7  C   UNL     1     100.910 130.203  84.413  0.00  0.00    +0.000 A 
ATOM      8  C   UNL     1      99.108 126.829  82.424  0.00  0.00    +0.000 C 
ENDROOT
BRANCH   3   9
ATOM      9  C   UNL     1     102.004 127.088  82.650  0.00  0.00    +0.000 C 
ATOM     10  C   UNL     1     102.711 126.238  82.180  0.00  0.00    +0.000 C 
BRANCH  10  11
ATOM     11  C   UNL     1     103.556 125.229  81.620  0.00  0.00    +0.000 A 
ATOM     12  C   UNL     1     103.922 124.119  82.386  0.00  0.00    +0.000 A 
ATOM     13  C   UNL     1     104.745 123.133  81.838  0.00  0.00    +0.000 A 
ATOM     14  C   UNL     1     105.202 123.256  80.526  0.00  0.00    +0.000 A 
ATOM     15  C   UNL     1     104.838 124.363  79.760  0.00  0.00    +0.000 A 
ATOM     16  C   UNL     1     104.015 125.351  80.307  0.00  0.00    +0.000 A 
ENDBRANCH  10  11
ENDBRANCH   3   9
TORSDOF 2
ENDMDL
