MODEL 1
REMARK VINA RESULT:      -4.4      0.000      0.000
REMARK  Name = *****
REMARK  4 active torsions:
REMARK  status: ('A' for Active; 'I' for Inactive)
REMARK    1  A    between atoms: C_6  and  C_7
REMARK    2  A    between atoms: C_7  and  O_8
REMARK    3  A    between atoms: O_8  and  C_9
REMARK    4  A    between atoms: C_12  and  C_15
REMARK                            x       y       z     vdW  Elec       q    Type
REMARK                         _______ _______ _______ _____ _____    ______ ____
ROOT
ATOM      1  O   UNL     1     102.367 127.075  81.615  0.00  0.00    +0.000 OA
ENDROOT
BRANCH   1   2
ATOM      2  C   UNL     1     103.079 125.910  81.690  0.00  0.00    +0.000 A 
ATOM      3  C   UNL     1     103.329 125.169  82.845  0.00  0.00    +0.000 A 
ATOM      4  C   UNL     1     104.079 123.990  82.775  0.00  0.00    +0.000 A 
ATOM      5  C   UNL     1     104.594 123.538  81.553  0.00  0.00    +0.000 A 
ATOM      6  C   UNL     1     104.331 124.280  80.396  0.00  0.00    +0.000 A 
ATOM      7  C   UNL     1     103.583 125.458  80.468  0.00  0.00    +0.000 A 
BRANCH   5   8
ATOM      8  C   UNL     1     105.389 122.263  81.479  0.00  0.00    +0.000 C 
ATOM      9 CL   UNL     1     104.314 120.872  81.244  0.00  0.00    +0.000 Cl
ENDBRANCH   5   8
ENDBRANCH   1   2
BRANCH   1  10
ATOM     10  C   UNL     1     102.085 127.745  82.843  0.00  0.00    +0.000 C 
BRANCH  10  16
ATOM     11  C   UNL     1      99.802 126.738  82.398  0.00  0.00    +0.000 A 
ATOM     12  C   UNL     1      98.433 126.654  82.654  0.00  0.00    +0.000 A 
ATOM     13  C   UNL     1      97.864 127.464  83.629  0.00  0.00    +0.000 A 
ATOM     14  C   UNL     1      98.639 128.359  84.356  0.00  0.00    +0.000 A 
ATOM     15  C   UNL     1     100.008 128.446  84.102  0.00  0.00    +0.000 A 
ATOM     16  C   UNL     1     100.604 127.636  83.120  0.00  0.00    +0.000 A 
ATOM     17  F   UNL     1      96.549 127.380  83.874  0.00  0.00    +0.000 F 
ENDBRANCH  10  16
ENDBRANCH   1  10
TORSDOF 4
ENDMDL
