MODEL 1
REMARK VINA RESULT:      -4.4      0.000      0.000
REMARK  Name = *****
REMARK  4 active torsions:
REMARK  status: ('A' for Active; 'I' for Inactive)
REMARK    1  A    between atoms: C_4  and  C_7
REMARK    2  A    between atoms: C_7  and  N_8
REMARK    3  A    between atoms: N_8  and  N_9
REMARK    4  A    between atoms: N_9  and  C_10
REMARK                            x       y       z     vdW  Elec       q    Type
REMARK                         _______ _______ _______ _____ _____    ______ ____
ROOT
ATOM      1  N   UNL     1     102.870 125.284  82.034  0.00  0.00    +0.000 NA
ENDROOT
BRANCH   1   2
ATOM      2  C   UNL     1     102.037 126.063  82.311  0.00  0.00    +0.000 C 
BRANCH   2   6
ATOM      3  C   UNL     1      99.060 128.876  83.363  0.00  0.00    +0.000 A 
ATOM      4  C   UNL     1      98.704 127.696  82.708  0.00  0.00    +0.000 A 
ATOM      5  C   UNL     1      99.688 126.768  82.362  0.00  0.00    +0.000 A 
ATOM      6  C   UNL     1     101.028 127.017  82.671  0.00  0.00    +0.000 A 
ATOM      7  C   UNL     1     101.381 128.198  83.328  0.00  0.00    +0.000 A 
ATOM      8  C   UNL     1     100.397 129.128  83.675  0.00  0.00    +0.000 A 
ENDBRANCH   2   6
ENDBRANCH   1   2
BRANCH   1   9
ATOM      9  N   UNL     1     103.156 125.302  80.725  0.00  0.00    +0.000 NA
BRANCH   9  10
ATOM     10  C   UNL     1     104.319 124.687  80.401  0.00  0.00    +0.000 A 
ATOM     11  C   UNL     1     104.662 123.367  80.750  0.00  0.00    +0.000 A 
ATOM     12  C   UNL     1     105.887 122.800  80.383  0.00  0.00    +0.000 A 
ATOM     13  C   UNL     1     106.799 123.552  79.654  0.00  0.00    +0.000 A 
ATOM     14  C   UNL     1     106.498 124.859  79.289  0.00  0.00    +0.000 A 
ATOM     15  C   UNL     1     105.270 125.413  79.663  0.00  0.00    +0.000 A 
ATOM     16 CL   UNL     1     108.312 122.861  79.197  0.00  0.00    +0.000 Cl
ENDBRANCH   9  10
ENDBRANCH   1   9
TORSDOF 4
ENDMDL
