REMARK  Name = *****
REMARK  3 active torsions:
REMARK  status: ('A' for Active; 'I' for Inactive)
REMARK    1  A    between atoms: C_1  and  C_2
REMARK    2  A    between atoms: C_4  and  C_8
REMARK    3  A    between atoms: C_9  and  C_10
REMARK                            x       y       z     vdW  Elec       q    Type
REMARK                         _______ _______ _______ _____ _____    ______ ____
ROOT
ATOM      1  C   UNL     1      -1.813   2.494   0.147  0.00  0.00    +0.000 C 
ATOM      2  C   UNL     1      -1.510   3.605  -0.548  0.00  0.00    +0.000 C 
ENDROOT
BRANCH   1   6
ATOM      3  C   UNL     1       2.532  -0.034  -0.047  0.00  0.00    +0.000 C 
ATOM      4  C   UNL     1       1.033  -0.011  -0.072  0.00  0.00    +0.000 A 
ATOM      5  C   UNL     1       0.339   1.205   0.022  0.00  0.00    +0.000 A 
ATOM      6  C   UNL     1      -1.063   1.236   0.027  0.00  0.00    +0.000 A 
ATOM      7  C   UNL     1      -1.768   0.029  -0.025  0.00  0.00    +0.000 A 
ATOM      8  C   UNL     1      -1.086  -1.187  -0.105  0.00  0.00    +0.000 A 
ATOM      9  C   UNL     1       0.308  -1.207  -0.126  0.00  0.00    +0.000 A 
ENDBRANCH   1   6
BRANCH   2  10
ATOM     10  C   UNL     1      -2.205   4.863  -0.487  0.00  0.00    +0.000 A 
ATOM     11  C   UNL     1      -3.066   5.216   0.537  0.00  0.00    +0.000 A 
ATOM     12  S   UNL     1      -3.735   6.782   0.340  0.00  0.00    +0.000 S 
ATOM     13  C   UNL     1      -2.877   7.021  -1.118  0.00  0.00    +0.000 A 
ATOM     14  C   UNL     1      -2.105   5.929  -1.436  0.00  0.00    +0.000 A 
ATOM     15 BR   UNL     1      -1.036   5.873  -3.000  0.00  0.00    +0.000 Br
ENDBRANCH   2  10
TORSDOF 2
