REMARK  Name = *****
REMARK  5 active torsions:
REMARK  status: ('A' for Active; 'I' for Inactive)
REMARK    1  A    between atoms: C_1  and  C_2
REMARK    2  A    between atoms: C_5  and  C_8
REMARK    3  A    between atoms: C_9  and  C_10
REMARK    4  A    between atoms: C_10  and  C_19
REMARK    5  A    between atoms: C_14  and  C_18
REMARK                            x       y       z     vdW  Elec       q    Type
REMARK                         _______ _______ _______ _____ _____    ______ ____
ROOT
ATOM      1  C   UNL     1       9.480   0.175  -1.070  0.00  0.00    +0.000 C 
ATOM      2  C   UNL     1       9.907  -0.932  -2.072  0.00  0.00    +0.000 C 
ATOM      3  C   UNL     1       9.099  -0.574  -3.350  0.00  0.00    +0.000 C 
ATOM      4  C   UNL     1       9.093   0.971  -3.345  0.00  0.00    +0.000 C 
ATOM      5  C   UNL     1       9.867   1.313  -2.049  0.00  0.00    +0.000 C 
ATOM      6  C   UNL     1      11.302   0.893  -2.371  0.00  0.00    +0.000 C 
ATOM      7  O   UNL     1      12.232   1.645  -2.619  0.00  0.00    +0.000 OA
ATOM      8  C   UNL     1      11.393  -0.619  -2.364  0.00  0.00    +0.000 C 
ATOM      9  C   UNL     1       9.724   2.739  -1.573  0.00  0.00    +0.000 C 
ATOM     10  C   UNL     1      10.238   0.172   0.269  0.00  0.00    +0.000 C 
ENDROOT
BRANCH   1  12
ATOM     11  C   UNL     1       6.851   0.105  -0.541  0.00  0.00    +0.000 C 
ATOM     12  C   UNL     1       8.031   0.128  -0.763  0.00  0.00    +0.000 C 
BRANCH  11  17
ATOM     13  C   UNL     1       1.165   0.047   0.205  0.00  0.00    +0.000 C 
ATOM     14  C   UNL     1       2.656   0.072   0.040  0.00  0.00    +0.000 A 
ATOM     15  C   UNL     1       3.349   1.284  -0.055  0.00  0.00    +0.000 A 
ATOM     16  C   UNL     1       4.735   1.294  -0.234  0.00  0.00    +0.000 A 
ATOM     17  C   UNL     1       5.438   0.092  -0.323  0.00  0.00    +0.000 A 
ATOM     18  C   UNL     1       4.755  -1.121  -0.226  0.00  0.00    +0.000 A 
ATOM     19  C   UNL     1       3.370  -1.131  -0.046  0.00  0.00    +0.000 A 
ENDBRANCH  11  17
ENDBRANCH   1  12
TORSDOF 2
