MODEL 1
REMARK VINA RESULT:      -4.2      0.000      0.000
REMARK  Name = *****
REMARK  6 active torsions:
REMARK  status: ('A' for Active; 'I' for Inactive)
REMARK    1  A    between atoms: C_1  and  C_2
REMARK    2  A    between atoms: C_2  and  N_3
REMARK    3  A    between atoms: N_3  and  C_4
REMARK    4  A    between atoms: N_3  and  C_11
REMARK    5  A    between atoms: C_4  and  C_5
REMARK    6  A    between atoms: C_16  and  C_17
REMARK                            x       y       z     vdW  Elec       q    Type
REMARK                         _______ _______ _______ _____ _____    ______ ____
ROOT
ATOM      1  N   UNL     1      88.405  70.487  85.657  0.00  0.00    +0.000 N 
ENDROOT
BRANCH   1   2
ATOM      2  C   UNL     1      87.269  71.037  86.319  0.00  0.00    +0.000 A 
ATOM      3  C   UNL     1      86.196  71.601  85.603  0.00  0.00    +0.000 A 
ATOM      4  C   UNL     1      85.078  72.109  86.265  0.00  0.00    +0.000 A 
ATOM      5  C   UNL     1      85.010  72.054  87.654  0.00  0.00    +0.000 A 
ATOM      6  C   UNL     1      86.061  71.495  88.379  0.00  0.00    +0.000 A 
ATOM      7  C   UNL     1      87.198  70.991  87.726  0.00  0.00    +0.000 A 
ATOM      8  C   UNL     1      88.304  70.379  88.542  0.00  0.00    +0.000 C 
ENDBRANCH   1   2
BRANCH   1  10
ATOM      9  C   UNL     1      90.495  71.020  84.443  0.00  0.00    +0.000 C 
ATOM     10  C   UNL     1      89.112  71.506  84.852  0.00  0.00    +0.000 C 
ENDBRANCH   1  10
BRANCH   1  11
ATOM     11  C   UNL     1      87.993  69.265  84.929  0.00  0.00    +0.000 C 
BRANCH  11  12
ATOM     12  C   UNL     1      88.369  67.997  85.665  0.00  0.00    +0.000 A 
ATOM     13  C   UNL     1      89.692  67.530  85.658  0.00  0.00    +0.000 A 
ATOM     14  C   UNL     1      90.043  66.377  86.361  0.00  0.00    +0.000 A 
ATOM     15  C   UNL     1      89.079  65.684  87.091  0.00  0.00    +0.000 A 
ATOM     16  C   UNL     1      87.763  66.143  87.116  0.00  0.00    +0.000 A 
ATOM     17  C   UNL     1      87.410  67.295  86.410  0.00  0.00    +0.000 A 
ENDBRANCH  11  12
ENDBRANCH   1  11
TORSDOF 4
ENDMDL
