MODEL 1
REMARK VINA RESULT:      -4.1      0.000      0.000
REMARK  Name = *****
REMARK  4 active torsions:
REMARK  status: ('A' for Active; 'I' for Inactive)
REMARK    1  A    between atoms: C_4  and  C_7
REMARK    2  A    between atoms: C_8  and  C_9
REMARK    3  A    between atoms: C_9  and  C_10
REMARK    4  A    between atoms: C_10  and  C_11
REMARK                            x       y       z     vdW  Elec       q    Type
REMARK                         _______ _______ _______ _____ _____    ______ ____
ROOT
ATOM      1  C   UNL     1     101.499 126.837  82.241  0.00  0.00    +0.000 C 
ATOM      2  C   UNL     1     100.207 126.543  82.462  0.00  0.00    +0.000 C 
ENDROOT
BRANCH   1   6
ATOM      3  C   UNL     1     104.562 123.886  81.778  0.00  0.00    +0.000 A 
ATOM      4  C   UNL     1     104.032 124.131  83.042  0.00  0.00    +0.000 A 
ATOM      5  C   UNL     1     103.035 125.096  83.210  0.00  0.00    +0.000 A 
ATOM      6  C   UNL     1     102.565 125.833  82.116  0.00  0.00    +0.000 A 
ATOM      7  C   UNL     1     103.094 125.564  80.846  0.00  0.00    +0.000 A 
ATOM      8  C   UNL     1     104.090 124.600  80.679  0.00  0.00    +0.000 A 
ENDBRANCH   1   6
BRANCH   2   9
ATOM      9  C   UNL     1      99.129 127.586  82.604  0.00  0.00    +0.000 C 
BRANCH   9  10
ATOM     10  C   UNL     1      99.091 128.261  83.977  0.00  0.00    +0.000 C 
ATOM     11  F   UNL     1      97.803 128.229  84.424  0.00  0.00    +0.000 F 
ATOM     12  F   UNL     1      99.812 127.511  84.857  0.00  0.00    +0.000 F 
BRANCH  10  13
ATOM     13  C   UNL     1      99.611 129.693  83.958  0.00  0.00    +0.000 C 
ATOM     14  F   UNL     1     100.969 129.718  83.880  0.00  0.00    +0.000 F 
ATOM     15  F   UNL     1      99.152 130.360  82.865  0.00  0.00    +0.000 F 
ENDBRANCH  10  13
ENDBRANCH   9  10
ENDBRANCH   2   9
TORSDOF 4
ENDMDL
