REMARK  Name = *****
REMARK  4 active torsions:
REMARK  status: ('A' for Active; 'I' for Inactive)
REMARK    1  A    between atoms: C_4  and  C_7
REMARK    2  A    between atoms: C_7  and  S_9
REMARK    3  A    between atoms: S_9  and  C_10
REMARK    4  A    between atoms: C_10  and  C_12
REMARK                            x       y       z     vdW  Elec       q    Type
REMARK                         _______ _______ _______ _____ _____    ______ ____
ROOT
ATOM      1  S   UNL     1       3.399  -2.611   0.150  0.00  0.00    +0.000 S 
ENDROOT
BRANCH   1   2
ATOM      2  C   UNL     1       2.876  -1.025  -0.400  0.00  0.00    +0.000 C 
ATOM      3  O   UNL     1       3.248  -0.017   0.188  0.00  0.00    +0.000 OA
BRANCH   2   7
ATOM      4  C   UNL     1      -0.356   0.176  -3.053  0.00  0.00    +0.000 C 
ATOM      5  C   UNL     1       1.076   0.281  -3.569  0.00  0.00    +0.000 C 
ATOM      6  C   UNL     1       2.089   0.226  -2.428  0.00  0.00    +0.000 C 
ATOM      7  C   UNL     1       1.900  -1.031  -1.568  0.00  0.00    +0.000 C 
ATOM      8  C   UNL     1       0.461  -1.124  -1.047  0.00  0.00    +0.000 C 
ATOM      9  C   UNL     1      -0.553  -1.064  -2.186  0.00  0.00    +0.000 C 
ENDBRANCH   2   7
ENDBRANCH   1   2
BRANCH   1  10
ATOM     10  C   UNL     1       4.895  -2.575  -0.772  0.00  0.00    +0.000 C 
ATOM     11  O   UNL     1       4.899  -2.254  -1.954  0.00  0.00    +0.000 OA
BRANCH  10  12
ATOM     12  C   UNL     1       6.124  -3.054  -0.013  0.00  0.00    +0.000 C 
ATOM     13  C   UNL     1       7.377  -2.316  -0.504  0.00  0.00    +0.000 C 
ATOM     14  C   UNL     1       8.639  -2.835   0.180  0.00  0.00    +0.000 C 
ATOM     15  C   UNL     1       8.787  -4.344   0.010  0.00  0.00    +0.000 C 
ATOM     16  C   UNL     1       7.546  -5.088   0.492  0.00  0.00    +0.000 C 
ATOM     17  C   UNL     1       6.279  -4.570  -0.185  0.00  0.00    +0.000 C 
ENDBRANCH  10  12
ENDBRANCH   1  10
TORSDOF 4
