REMARK  Name = *****
REMARK  3 active torsions:
REMARK  status: ('A' for Active; 'I' for Inactive)
REMARK    1  A    between atoms: C_5  and  S_8
REMARK    2  A    between atoms: S_8  and  C_9
REMARK    3  A    between atoms: C_9  and  C_10
REMARK                            x       y       z     vdW  Elec       q    Type
REMARK                         _______ _______ _______ _____ _____    ______ ____
ROOT
ATOM      1  S   UNL     1      -0.356  -3.320   0.310  0.00  0.00    +0.000 S 
ENDROOT
BRANCH   1   6
ATOM      2  C   UNL     1       0.683   1.405   0.132  0.00  0.00    +0.000 C 
ATOM      3  C   UNL     1      -0.648   1.509   0.024  0.00  0.00    +0.000 C 
ATOM      4  C   UNL     1      -1.561   0.472  -0.390  0.00  0.00    +0.000 C 
ATOM      5  C   UNL     1      -1.416  -0.843  -0.156  0.00  0.00    +0.000 C 
ATOM      6  C   UNL     1      -0.253  -1.499   0.548  0.00  0.00    +0.000 C 
ATOM      7  C   UNL     1       1.098  -1.039   0.055  0.00  0.00    +0.000 C 
ATOM      8  C   UNL     1       1.482   0.233  -0.137  0.00  0.00    +0.000 C 
ENDBRANCH   1   6
BRANCH   1   9
ATOM      9  C   UNL     1      -1.600  -3.700   1.582  0.00  0.00    +0.000 C 
BRANCH   9  10
ATOM     10  C   UNL     1      -1.891  -5.178   1.646  0.00  0.00    +0.000 A 
ATOM     11  C   UNL     1      -1.162  -6.012   2.506  0.00  0.00    +0.000 A 
ATOM     12  C   UNL     1      -1.428  -7.381   2.560  0.00  0.00    +0.000 A 
ATOM     13  C   UNL     1      -2.420  -7.932   1.751  0.00  0.00    +0.000 A 
ATOM     14  C   UNL     1      -3.144  -7.116   0.884  0.00  0.00    +0.000 A 
ATOM     15  C   UNL     1      -2.880  -5.746   0.829  0.00  0.00    +0.000 A 
ENDBRANCH   9  10
ENDBRANCH   1   9
TORSDOF 3
