MODEL 1
REMARK VINA RESULT:      -5.3      0.000      0.000
REMARK  Name = *****
REMARK  2 active torsions:
REMARK  status: ('A' for Active; 'I' for Inactive)
REMARK    1  A    between atoms: C_3  and  C_8
REMARK    2  A    between atoms: C_9  and  C_10
REMARK                            x       y       z     vdW  Elec       q    Type
REMARK                         _______ _______ _______ _____ _____    ______ ____
ROOT
ATOM      1  C   UNL     1     102.008 125.939  82.064  0.00  0.00    +0.000 C 
ATOM      2  C   UNL     1     103.065 126.183  81.270  0.00  0.00    +0.000 C 
ENDROOT
BRANCH   1   5
ATOM      3  C   UNL     1     100.495 128.889  84.060  0.00  0.00    +0.000 C 
ATOM      4  C   UNL     1     101.556 128.196  83.204  0.00  0.00    +0.000 C 
ATOM      5  C   UNL     1     101.049 126.929  82.550  0.00  0.00    +0.000 C 
ATOM      6  C   UNL     1      99.734 126.682  82.413  0.00  0.00    +0.000 C 
ATOM      7  C   UNL     1      98.711 127.678  82.818  0.00  0.00    +0.000 C 
ATOM      8  O   UNL     1      97.521 127.414  82.668  0.00  0.00    +0.000 OA
ATOM      9  C   UNL     1      99.179 129.023  83.318  0.00  0.00    +0.000 C 
ENDBRANCH   1   5
BRANCH   2  10
ATOM     10  C   UNL     1     104.001 125.146  80.806  0.00  0.00    +0.000 A 
ATOM     11  C   UNL     1     104.832 125.331  79.693  0.00  0.00    +0.000 A 
ATOM     12  C   UNL     1     105.728 124.329  79.313  0.00  0.00    +0.000 A 
ATOM     13  C   UNL     1     105.815 123.142  80.037  0.00  0.00    +0.000 A 
ATOM     14  C   UNL     1     105.005 122.957  81.155  0.00  0.00    +0.000 A 
ATOM     15  C   UNL     1     104.107 123.956  81.540  0.00  0.00    +0.000 A 
ATOM     16 CL   UNL     1     106.738 124.564  77.939  0.00  0.00    +0.000 Cl
ENDBRANCH   2  10
TORSDOF 2
ENDMDL
