REMARK  Name = *****
REMARK  4 active torsions:
REMARK  status: ('A' for Active; 'I' for Inactive)
REMARK    1  A    between atoms: C_1  and  O_2
REMARK    2  A    between atoms: O_2  and  C_3
REMARK    3  A    between atoms: C_6  and  C_9
REMARK    4  A    between atoms: C_10  and  C_11
REMARK                            x       y       z     vdW  Elec       q    Type
REMARK                         _______ _______ _______ _____ _____    ______ ____
ROOT
ATOM      1  C   UNL     1       5.334   2.212   4.398  0.00  0.00    +0.000 C 
ATOM      2  C   UNL     1       4.976   2.108   5.689  0.00  0.00    +0.000 C 
ENDROOT
BRANCH   2   3
ATOM      3  C   UNL     1       5.737   2.693   6.803  0.00  0.00    +0.000 A 
ATOM      4  C   UNL     1       6.397   3.924   6.698  0.00  0.00    +0.000 A 
ATOM      5  C   UNL     1       7.079   4.448   7.795  0.00  0.00    +0.000 A 
ATOM      6  C   UNL     1       7.113   3.778   9.009  0.00  0.00    +0.000 A 
ATOM      7  C   UNL     1       6.445   2.568   9.116  0.00  0.00    +0.000 A 
ATOM      8  C   UNL     1       5.757   2.024   8.033  0.00  0.00    +0.000 A 
ATOM      9  F   UNL     1       6.459   1.910  10.283  0.00  0.00    +0.000 F 
ATOM     10  F   UNL     1       7.708   5.625   7.675  0.00  0.00    +0.000 F 
ENDBRANCH   2   3
BRANCH   1  14
ATOM     11  C   UNL     1       3.197   0.500   1.094  0.00  0.00    +0.000 A 
ATOM     12  C   UNL     1       2.492   1.030   2.174  0.00  0.00    +0.000 A 
ATOM     13  C   UNL     1       3.179   1.585   3.262  0.00  0.00    +0.000 A 
ATOM     14  C   UNL     1       4.579   1.609   3.290  0.00  0.00    +0.000 A 
ATOM     15  C   UNL     1       5.279   1.092   2.195  0.00  0.00    +0.000 A 
ATOM     16  C   UNL     1       4.592   0.538   1.111  0.00  0.00    +0.000 A 
BRANCH  11  18
ATOM     17  C   UNL     1       1.234  -0.144  -0.080  0.00  0.00    +0.000 C 
ATOM     18  O   UNL     1       2.653  -0.067  -0.024  0.00  0.00    +0.000 OA
ENDBRANCH  11  18
ENDBRANCH   1  14
TORSDOF 3
