MODEL 1
REMARK VINA RESULT:      -4.9      0.000      0.000
REMARK  Name = *****
REMARK  3 active torsions:
REMARK  status: ('A' for Active; 'I' for Inactive)
REMARK    1  A    between atoms: C_7  and  O_18
REMARK    2  A    between atoms: N_8  and  C_11
REMARK    3  A    between atoms: O_18  and  O_19
REMARK                            x       y       z     vdW  Elec       q    Type
REMARK                         _______ _______ _______ _____ _____    ______ ____
ROOT
ATOM      1  C   UNL     1      99.231 130.452  84.595  0.00  0.00    +0.000 C 
ATOM      2  C   UNL     1     100.458 131.363  84.643  0.00  0.00    +0.000 C 
ATOM      3  C   UNL     1     101.742 130.566  84.903  0.00  0.00    +0.000 C 
ATOM      4  C   UNL     1     101.792 129.315  84.091  0.00  0.00    +0.000 C 
ATOM      5  C   UNL     1     100.737 128.787  83.458  0.00  0.00    +0.000 C 
ATOM      6  C   UNL     1      99.362 129.372  83.513  0.00  0.00    +0.000 C 
ATOM      7  C   UNL     1     101.027 127.529  82.703  0.00  0.00    +0.000 C 
ATOM      8  N   UNL     1     102.404 127.158  83.039  0.00  0.00    +0.000 N 
ATOM      9  S   UNL     1     103.275 128.382  83.806  0.00  0.00    +0.000 S 
ATOM     10  O   UNL     1     103.753 127.926  85.150  0.00  0.00    +0.000 OA
ENDROOT
BRANCH   8  11
ATOM     11  C   UNL     1     103.040 126.061  82.429  0.00  0.00    +0.000 A 
ATOM     12  C   UNL     1     103.526 124.967  83.170  0.00  0.00    +0.000 A 
ATOM     13  C   UNL     1     104.152 123.874  82.553  0.00  0.00    +0.000 A 
ATOM     14  C   UNL     1     104.320 123.856  81.176  0.00  0.00    +0.000 A 
ATOM     15  C   UNL     1     103.872 124.924  80.412  0.00  0.00    +0.000 A 
ATOM     16  C   UNL     1     103.241 126.009  81.036  0.00  0.00    +0.000 A 
ATOM     17 CL   UNL     1     105.089 122.518  80.419  0.00  0.00    +0.000 Cl
ENDBRANCH   8  11
BRANCH   7  18
ATOM     18  O   UNL     1     100.101 126.484  83.056  0.00  0.00    +0.000 OA
BRANCH  18  19
ATOM     19  O   UNL     1      99.407 126.055  81.834  0.00  0.00    +0.000 OA
ATOM     20  H   UNL     1      99.504 125.096  81.726  0.00  0.00    +0.000 HD
ENDBRANCH  18  19
ENDBRANCH   7  18
TORSDOF 3
ENDMDL
