MODEL 1
REMARK VINA RESULT:      -5.0      0.000      0.000
REMARK  Name = *****
REMARK  3 active torsions:
REMARK  status: ('A' for Active; 'I' for Inactive)
REMARK    1  A    between atoms: C_1  and  C_2
REMARK    2  A    between atoms: C_4  and  N_8
REMARK    3  A    between atoms: C_9  and  C_11
REMARK                            x       y       z     vdW  Elec       q    Type
REMARK                         _______ _______ _______ _____ _____    ______ ____
ROOT
ATOM      1  N   UNL     1     102.104 126.064  82.187  0.00  0.00    +0.000 N 
ATOM      2  C   UNL     1     103.044 126.220  81.183  0.00  0.00    +0.000 C 
ATOM      3  O   UNL     1     103.226 127.218  80.495  0.00  0.00    +0.000 OA
ATOM      4  H   UNL     1     102.109 125.200  82.659  0.00  0.00    +0.000 HD
ENDROOT
BRANCH   1   8
ATOM      5  C   UNL     1     100.748 130.322  84.448  0.00  0.00    +0.000 C 
ATOM      6  C   UNL     1     100.421 129.063  83.699  0.00  0.00    +0.000 A 
ATOM      7  C   UNL     1     101.438 128.183  83.297  0.00  0.00    +0.000 A 
ATOM      8  C   UNL     1     101.138 127.004  82.609  0.00  0.00    +0.000 A 
ATOM      9  C   UNL     1      99.798 126.717  82.315  0.00  0.00    +0.000 A 
ATOM     10  C   UNL     1      98.780 127.591  82.703  0.00  0.00    +0.000 A 
ATOM     11  C   UNL     1      99.090 128.759  83.393  0.00  0.00    +0.000 A 
ENDBRANCH   1   8
BRANCH   2  12
ATOM     12  C   UNL     1     103.944 125.049  80.963  0.00  0.00    +0.000 A 
ATOM     13  C   UNL     1     104.768 124.935  79.833  0.00  0.00    +0.000 A 
ATOM     14  C   UNL     1     105.591 123.815  79.680  0.00  0.00    +0.000 A 
ATOM     15  C   UNL     1     105.597 122.824  80.657  0.00  0.00    +0.000 A 
ATOM     16  C   UNL     1     104.802 122.932  81.791  0.00  0.00    +0.000 A 
ATOM     17  C   UNL     1     103.977 124.047  81.948  0.00  0.00    +0.000 A 
ATOM     18  F   UNL     1     106.389 121.755  80.505  0.00  0.00    +0.000 F 
ENDBRANCH   2  12
TORSDOF 2
ENDMDL
