MODEL 1
REMARK VINA RESULT:      -5.0      0.000      0.000
REMARK  Name = *****
REMARK  0 active torsions:
REMARK  status: ('A' for Active; 'I' for Inactive)
REMARK                            x       y       z     vdW  Elec       q    Type
REMARK                         _______ _______ _______ _____ _____    ______ ____
ROOT
ATOM      1  C   UNL     1      89.475  68.722  86.323  0.00  0.00    +0.000 C 
ATOM      2  C   UNL     1      89.454  69.810  87.400  0.00  0.00    +0.000 C 
ATOM      3  C   UNL     1      88.134  70.486  87.730  0.00  0.00    +0.000 A 
ATOM      4  C   UNL     1      88.005  70.948  89.061  0.00  0.00    +0.000 A 
ATOM      5  C   UNL     1      86.853  71.594  89.509  0.00  0.00    +0.000 A 
ATOM      6  C   UNL     1      85.798  71.805  88.634  0.00  0.00    +0.000 A 
ATOM      7  C   UNL     1      85.907  71.379  87.312  0.00  0.00    +0.000 A 
ATOM      8  C   UNL     1      87.067  70.734  86.840  0.00  0.00    +0.000 A 
ATOM      9  S   UNL     1      87.018  70.283  85.107  0.00  0.00    +0.000 S 
ATOM     10  C   UNL     1      88.452  71.152  84.505  0.00  0.00    +0.000 A 
ATOM     11  C   UNL     1      88.266  72.457  84.022  0.00  0.00    +0.000 A 
ATOM     12  C   UNL     1      89.336  73.191  83.512  0.00  0.00    +0.000 A 
ATOM     13  C   UNL     1      90.603  72.621  83.470  0.00  0.00    +0.000 A 
ATOM     14  C   UNL     1      90.797  71.323  83.945  0.00  0.00    +0.000 A 
ATOM     15  C   UNL     1      89.731  70.572  84.478  0.00  0.00    +0.000 A 
ATOM     16  C   UNL     1      90.027  69.167  84.958  0.00  0.00    +0.000 C 
ENDROOT
TORSDOF 0
ENDMDL
