MODEL 1
REMARK VINA RESULT:      -5.0      0.000      0.000
REMARK  Name = *****
REMARK  4 active torsions:
REMARK  status: ('A' for Active; 'I' for Inactive)
REMARK    1  A    between atoms: C_1  and  S_2
REMARK    2  A    between atoms: S_2  and  N_3
REMARK    3  A    between atoms: S_2  and  C_16
REMARK    4  A    between atoms: N_3  and  C_4
REMARK                            x       y       z     vdW  Elec       q    Type
REMARK                         _______ _______ _______ _____ _____    ______ ____
ROOT
ATOM      1  C   UNL     1      89.486  66.851  86.486  0.00  0.00    +0.000 A 
ATOM      2  C   UNL     1      88.375  66.423  87.222  0.00  0.00    +0.000 A 
ATOM      3  C   UNL     1      87.965  65.091  87.194  0.00  0.00    +0.000 A 
ATOM      4  C   UNL     1      88.648  64.160  86.431  0.00  0.00    +0.000 A 
ATOM      5  C   UNL     1      89.744  64.558  85.687  0.00  0.00    +0.000 A 
ATOM      6  C   UNL     1      90.159  65.887  85.711  0.00  0.00    +0.000 A 
ATOM      7  F   UNL     1      91.230  66.229  84.975  0.00  0.00    +0.000 F 
ATOM      8  F   UNL     1      90.407  63.663  84.943  0.00  0.00    +0.000 F 
ATOM      9  F   UNL     1      88.245  62.882  86.408  0.00  0.00    +0.000 F 
ATOM     10  F   UNL     1      86.893  64.714  87.905  0.00  0.00    +0.000 F 
ATOM     11  F   UNL     1      87.650  67.277  87.956  0.00  0.00    +0.000 F 
ENDROOT
BRANCH   1  12
ATOM     12  N   UNL     1      90.007  68.188  86.440  0.00  0.00    +0.000 NA
BRANCH  12  14
ATOM     13  C   UNL     1      88.485  69.066  84.397  0.00  0.00    +0.000 C 
ATOM     14  S   UNL     1      89.460  69.485  85.815  0.00  0.00    +0.000 S 
ATOM     15  O   UNL     1      90.325  70.562  85.367  0.00  0.00    +0.000 OA
BRANCH  14  16
ATOM     16  C   UNL     1      88.404  70.266  87.021  0.00  0.00    +0.000 A 
ATOM     17  C   UNL     1      88.887  70.369  88.331  0.00  0.00    +0.000 A 
ATOM     18  C   UNL     1      88.102  70.966  89.315  0.00  0.00    +0.000 A 
ATOM     19  C   UNL     1      86.841  71.465  88.989  0.00  0.00    +0.000 A 
ATOM     20  C   UNL     1      86.366  71.374  87.679  0.00  0.00    +0.000 A 
ATOM     21  C   UNL     1      87.147  70.778  86.687  0.00  0.00    +0.000 A 
ENDBRANCH  14  16
ENDBRANCH  12  14
ENDBRANCH   1  12
TORSDOF 3
ENDMDL
