MODEL 1
REMARK VINA RESULT:      -4.6      0.000      0.000
REMARK  Name = *****
REMARK  3 active torsions:
REMARK  status: ('A' for Active; 'I' for Inactive)
REMARK    1  A    between atoms: C_4  and  O_7
REMARK    2  A    between atoms: O_7  and  C_8
REMARK    3  A    between atoms: C_9  and  C_10
REMARK                            x       y       z     vdW  Elec       q    Type
REMARK                         _______ _______ _______ _____ _____    ______ ____
ROOT
ATOM      1  C   UNL     1      89.249  68.629  86.427  0.00  0.00    +0.000 C 
ATOM      2  C   UNL     1      89.002  69.623  87.286  0.00  0.00    +0.000 C 
ENDROOT
BRANCH   2   3
ATOM      3  C   UNL     1      87.791  70.452  87.266  0.00  0.00    +0.000 A 
ATOM      4  C   UNL     1      87.268  70.856  86.028  0.00  0.00    +0.000 A 
ATOM      5  C   UNL     1      86.105  71.625  85.964  0.00  0.00    +0.000 A 
ATOM      6  C   UNL     1      85.453  71.980  87.138  0.00  0.00    +0.000 A 
ATOM      7  C   UNL     1      85.942  71.578  88.374  0.00  0.00    +0.000 A 
ATOM      8  C   UNL     1      87.108  70.810  88.438  0.00  0.00    +0.000 A 
ATOM      9  F   UNL     1      84.336  72.716  87.077  0.00  0.00    +0.000 F 
ENDBRANCH   2   3
BRANCH   1  10
ATOM     10  O   UNL     1      90.407  67.886  86.498  0.00  0.00    +0.000 OA
BRANCH  10  14
ATOM     11  C   UNL     1      89.941  63.834  85.697  0.00  0.00    +0.000 A 
ATOM     12  C   UNL     1      91.034  64.515  85.161  0.00  0.00    +0.000 A 
ATOM     13  C   UNL     1      91.208  65.874  85.425  0.00  0.00    +0.000 A 
ATOM     14  C   UNL     1      90.292  66.541  86.240  0.00  0.00    +0.000 A 
ATOM     15  C   UNL     1      89.185  65.870  86.759  0.00  0.00    +0.000 A 
ATOM     16  C   UNL     1      89.014  64.511  86.493  0.00  0.00    +0.000 A 
ENDBRANCH  10  14
ENDBRANCH   1  10
TORSDOF 3
ENDMDL
