MODEL 1
REMARK VINA RESULT:      -4.3      0.000      0.000
REMARK  Name = *****
REMARK  3 active torsions:
REMARK  status: ('A' for Active; 'I' for Inactive)
REMARK    1  A    between atoms: C_4  and  O_7
REMARK    2  A    between atoms: O_7  and  C_8
REMARK    3  A    between atoms: C_8  and  C_10
REMARK                            x       y       z     vdW  Elec       q    Type
REMARK                         _______ _______ _______ _____ _____    ______ ____
ROOT
ATOM      1  O   UNL     1     100.433 127.514  82.239  0.00  0.00    +0.000 OA
ENDROOT
BRANCH   1   5
ATOM      2  C   UNL     1     104.006 127.548  81.985  0.00  0.00    +0.000 C 
ATOM      3  C   UNL     1     103.233 128.446  82.947  0.00  0.00    +0.000 C 
ATOM      4  C   UNL     1     102.305 127.634  83.850  0.00  0.00    +0.000 C 
ATOM      5  C   UNL     1     101.351 126.754  83.038  0.00  0.00    +0.000 C 
ATOM      6  C   UNL     1     102.140 125.851  82.086  0.00  0.00    +0.000 C 
ATOM      7  C   UNL     1     103.075 126.647  81.178  0.00  0.00    +0.000 C 
ATOM      8  F   UNL     1     100.635 125.947  83.863  0.00  0.00    +0.000 F 
ENDBRANCH   1   5
BRANCH   1   9
ATOM      9  C   UNL     1      99.138 127.528  82.626  0.00  0.00    +0.000 C 
ATOM     10  O   UNL     1      98.241 126.812  82.214  0.00  0.00    +0.000 OA
BRANCH   9  11
ATOM     11  C   UNL     1      98.930 128.568  83.669  0.00  0.00    +0.000 A 
ATOM     12  C   UNL     1      98.273 128.302  84.879  0.00  0.00    +0.000 A 
ATOM     13  C   UNL     1      98.098 129.319  85.821  0.00  0.00    +0.000 A 
ATOM     14  C   UNL     1      98.576 130.603  85.562  0.00  0.00    +0.000 A 
ATOM     15  C   UNL     1      99.227 130.876  84.360  0.00  0.00    +0.000 A 
ATOM     16  C   UNL     1      99.402 129.864  83.414  0.00  0.00    +0.000 A 
ENDBRANCH   9  11
ENDBRANCH   1   9
TORSDOF 3
ENDMDL
