MODEL 1
REMARK VINA RESULT:      -4.2      0.000      0.000
REMARK  Name = *****
REMARK  3 active torsions:
REMARK  status: ('A' for Active; 'I' for Inactive)
REMARK    1  A    between atoms: C_6  and  C_7
REMARK    2  A    between atoms: C_7  and  N_8
REMARK    3  A    between atoms: C_9  and  C_10
REMARK                            x       y       z     vdW  Elec       q    Type
REMARK                         _______ _______ _______ _____ _____    ______ ____
ROOT
ATOM      1  N   UNL     1      87.842  70.206  85.211  0.00  0.00    +0.000 NA
ATOM      2  C   UNL     1      87.315  71.364  85.011  0.00  0.00    +0.000 C 
ATOM      3 CL   UNL     1      88.289  72.443  84.066  0.00  0.00    +0.000 Cl
ENDROOT
BRANCH   2   4
ATOM      4  C   UNL     1      86.004  71.835  85.510  0.00  0.00    +0.000 A 
ATOM      5  C   UNL     1      85.752  71.871  86.886  0.00  0.00    +0.000 A 
ATOM      6  C   UNL     1      84.519  72.331  87.347  0.00  0.00    +0.000 A 
ATOM      7  C   UNL     1      83.549  72.757  86.439  0.00  0.00    +0.000 A 
ATOM      8  C   UNL     1      83.808  72.731  85.066  0.00  0.00    +0.000 A 
ATOM      9  C   UNL     1      85.040  72.273  84.598  0.00  0.00    +0.000 A 
ENDBRANCH   2   4
BRANCH   1  10
ATOM     10  C   UNL     1      87.098  69.157  85.921  0.00  0.00    +0.000 C 
BRANCH  10  16
ATOM     11  C   UNL     1      89.159  69.464  87.443  0.00  0.00    +0.000 C 
ATOM     12  C   UNL     1      88.880  70.563  88.440  0.00  0.00    +0.000 C 
ATOM     13  C   UNL     1      87.852  70.489  89.298  0.00  0.00    +0.000 C 
ATOM     14  C   UNL     1      86.980  69.340  89.313  0.00  0.00    +0.000 C 
ATOM     15  C   UNL     1      86.988  68.448  88.311  0.00  0.00    +0.000 C 
ATOM     16  C   UNL     1      87.918  68.583  87.112  0.00  0.00    +0.000 C 
ATOM     17 CL   UNL     1      88.482  66.914  86.690  0.00  0.00    +0.000 Cl
ENDBRANCH  10  16
ENDBRANCH   1  10
TORSDOF 3
ENDMDL
