MODEL 1
REMARK VINA RESULT:      -4.5      0.000      0.000
REMARK  Name = *****
REMARK  1 active torsions:
REMARK  status: ('A' for Active; 'I' for Inactive)
REMARK    1  A    between atoms: C_2  and  C_11
REMARK                            x       y       z     vdW  Elec       q    Type
REMARK                         _______ _______ _______ _____ _____    ______ ____
ROOT
ATOM      1  C   UNL     1     103.097 125.624  83.593  0.00  0.00    +0.000 C 
ATOM      2  C   UNL     1     102.154 125.849  82.412  0.00  0.00    +0.000 C 
ATOM      3  S   UNL     1     103.100 126.321  80.915  0.00  0.00    +0.000 S 
ATOM      4  C   UNL     1     104.339 125.034  80.823  0.00  0.00    +0.000 A 
ATOM      5  C   UNL     1     105.023 124.971  79.594  0.00  0.00    +0.000 A 
ATOM      6  C   UNL     1     106.017 124.020  79.362  0.00  0.00    +0.000 A 
ATOM      7  C   UNL     1     106.347 123.114  80.359  0.00  0.00    +0.000 A 
ATOM      8  C   UNL     1     105.684 123.168  81.585  0.00  0.00    +0.000 A 
ATOM      9  C   UNL     1     104.684 124.125  81.839  0.00  0.00    +0.000 A 
ATOM     10  S   UNL     1     103.959 124.029  83.473  0.00  0.00    +0.000 S 
ENDROOT
BRANCH   2  11
ATOM     11  C   UNL     1     101.110 126.915  82.722  0.00  0.00    +0.000 A 
ATOM     12  C   UNL     1     101.450 128.133  83.337  0.00  0.00    +0.000 A 
ATOM     13  C   UNL     1     100.472 129.088  83.618  0.00  0.00    +0.000 A 
ATOM     14  C   UNL     1      99.142 128.843  83.287  0.00  0.00    +0.000 A 
ATOM     15  C   UNL     1      98.788 127.646  82.671  0.00  0.00    +0.000 A 
ATOM     16  C   UNL     1      99.764 126.689  82.388  0.00  0.00    +0.000 A 
ENDBRANCH   2  11
TORSDOF 1
ENDMDL
