REMARK  Name = *****
REMARK  3 active torsions:
REMARK  status: ('A' for Active; 'I' for Inactive)
REMARK    1  A    between atoms: C_4  and  C_7
REMARK    2  A    between atoms: C_7  and  C_8
REMARK    3  A    between atoms: C_8  and  C_9
REMARK                            x       y       z     vdW  Elec       q    Type
REMARK                         _______ _______ _______ _____ _____    ______ ____
ROOT
ATOM      1  C   UNL     1      -3.322   1.224   1.031  0.00  0.00    +0.000 C 
ATOM      2  F   UNL     1      -3.024   0.431   2.111  0.00  0.00    +0.000 F 
ATOM      3  F   UNL     1      -2.606   2.375   1.239  0.00  0.00    +0.000 F 
ENDROOT
BRANCH   1   4
ATOM      4  C   UNL     1      -4.816   1.521   0.977  0.00  0.00    +0.000 A 
ATOM      5  C   UNL     1      -5.748   0.583   1.453  0.00  0.00    +0.000 A 
ATOM      6  C   UNL     1      -7.116   0.855   1.395  0.00  0.00    +0.000 A 
ATOM      7  C   UNL     1      -7.554   2.062   0.864  0.00  0.00    +0.000 A 
ATOM      8  C   UNL     1      -6.651   3.004   0.389  0.00  0.00    +0.000 A 
ATOM      9  C   UNL     1      -5.282   2.736   0.445  0.00  0.00    +0.000 A 
ATOM     10  F   UNL     1      -8.867   2.321   0.810  0.00  0.00    +0.000 F 
ENDBRANCH   1   4
BRANCH   1  11
ATOM     11  C   UNL     1      -2.819   0.530  -0.272  0.00  0.00    +0.000 C 
ATOM     12  F   UNL     1      -3.120   1.325  -1.350  0.00  0.00    +0.000 F 
ATOM     13  F   UNL     1      -3.543  -0.618  -0.479  0.00  0.00    +0.000 F 
BRANCH  11  17
ATOM     14  C   UNL     1       1.421  -0.313  -0.105  0.00  0.00    +0.000 A 
ATOM     15  C   UNL     1       0.504  -1.266   0.334  0.00  0.00    +0.000 A 
ATOM     16  C   UNL     1      -0.864  -0.997   0.277  0.00  0.00    +0.000 A 
ATOM     17  C   UNL     1      -1.329   0.231  -0.220  0.00  0.00    +0.000 A 
ATOM     18  C   UNL     1      -0.394   1.181  -0.660  0.00  0.00    +0.000 A 
ATOM     19  C   UNL     1       0.973   0.909  -0.602  0.00  0.00    +0.000 A 
ENDBRANCH  11  17
ENDBRANCH   1  11
TORSDOF 3
