REMARK  Name = *****
REMARK  3 active torsions:
REMARK  status: ('A' for Active; 'I' for Inactive)
REMARK    1  A    between atoms: C_4  and  C_7
REMARK    2  A    between atoms: C_8  and  C_9
REMARK    3  A    between atoms: C_14  and  C_15
REMARK                            x       y       z     vdW  Elec       q    Type
REMARK                         _______ _______ _______ _____ _____    ______ ____
ROOT
ATOM      1  C   UNL     1       2.004  -0.062   0.043  0.00  0.00    +0.000 A 
ATOM      2  C   UNL     1       2.687   1.162   0.073  0.00  0.00    +0.000 A 
ATOM      3  C   UNL     1       4.083   1.199   0.030  0.00  0.00    +0.000 A 
ATOM      4  C   UNL     1       4.811   0.015  -0.054  0.00  0.00    +0.000 A 
ATOM      5  C   UNL     1       4.143  -1.209  -0.084  0.00  0.00    +0.000 A 
ATOM      6  C   UNL     1       2.740  -1.254  -0.020  0.00  0.00    +0.000 A 
ENDROOT
BRANCH   6   7
ATOM      7  C   UNL     1       2.105  -2.598  -0.037  0.00  0.00    +0.000 C 
ATOM      8  O   UNL     1       2.502  -3.381  -0.899  0.00  0.00    +0.000 OA
ATOM      9 CL   UNL     1       0.947  -3.012   1.204  0.00  0.00    +0.000 Cl
ENDBRANCH   6   7
BRANCH   1  11
ATOM     10  C   UNL     1      -0.628   0.006   0.008  0.00  0.00    +0.000 C 
ATOM     11  C   UNL     1       0.573  -0.029   0.026  0.00  0.00    +0.000 C 
BRANCH  10  15
ATOM     12  C   UNL     1      -4.850   0.096  -0.044  0.00  0.00    +0.000 A 
ATOM     13  C   UNL     1      -4.179  -1.126   0.007  0.00  0.00    +0.000 A 
ATOM     14  C   UNL     1      -2.783  -1.156   0.024  0.00  0.00    +0.000 A 
ATOM     15  C   UNL     1      -2.058   0.037  -0.011  0.00  0.00    +0.000 A 
ATOM     16  C   UNL     1      -2.731   1.260  -0.062  0.00  0.00    +0.000 A 
ATOM     17  C   UNL     1      -4.127   1.288  -0.079  0.00  0.00    +0.000 A 
ENDBRANCH  10  15
ENDBRANCH   1  11
TORSDOF 3
