MODEL 1
REMARK VINA RESULT:      -4.5      0.000      0.000
REMARK  Name = *****
REMARK  6 active torsions:
REMARK  status: ('A' for Active; 'I' for Inactive)
REMARK    1  A    between atoms: C_1  and  C_2
REMARK    2  A    between atoms: C_3  and  N_9
REMARK    3  A    between atoms: C_4  and  C_8
REMARK    4  A    between atoms: N_9  and  S_10
REMARK    5  A    between atoms: S_10  and  C_12
REMARK    6  A    between atoms: S_10  and  C_13
REMARK                            x       y       z     vdW  Elec       q    Type
REMARK                         _______ _______ _______ _____ _____    ______ ____
ROOT
ATOM      1  N   UNL     1     102.880 126.719  83.198  0.00  0.00    +0.000 NA
ENDROOT
BRANCH   1   4
ATOM      2  C   UNL     1     103.357 127.415  80.327  0.00  0.00    +0.000 C 
ATOM      3  C   UNL     1     103.700 126.084  80.939  0.00  0.00    +0.000 A 
ATOM      4  C   UNL     1     103.484 125.780  82.298  0.00  0.00    +0.000 A 
ATOM      5  C   UNL     1     103.929 124.547  82.821  0.00  0.00    +0.000 A 
ATOM      6  C   UNL     1     104.484 123.590  81.958  0.00  0.00    +0.000 A 
ATOM      7  C   UNL     1     104.637 123.864  80.602  0.00  0.00    +0.000 A 
ATOM      8  C   UNL     1     104.254 125.103  80.098  0.00  0.00    +0.000 A 
ATOM      9  C   UNL     1     103.790 124.209  84.281  0.00  0.00    +0.000 C 
ENDBRANCH   1   4
BRANCH   1  10
ATOM     10  S   UNL     1     101.342 126.837  83.312  0.00  0.00    +0.000 S 
ATOM     11  O   UNL     1     100.391 126.467  82.281  0.00  0.00    +0.000 OA
ATOM     12  C   UNL     1     100.828 125.994  84.789  0.00  0.00    +0.000 C 
BRANCH  10  13
ATOM     13  C   UNL     1     101.018 128.545  83.721  0.00  0.00    +0.000 A 
ATOM     14  C   UNL     1     102.035 129.325  84.283  0.00  0.00    +0.000 A 
ATOM     15  C   UNL     1     101.778 130.654  84.616  0.00  0.00    +0.000 A 
ATOM     16  C   UNL     1     100.514 131.199  84.387  0.00  0.00    +0.000 A 
ATOM     17  C   UNL     1      99.505 130.421  83.816  0.00  0.00    +0.000 A 
ATOM     18  C   UNL     1      99.754 129.090  83.478  0.00  0.00    +0.000 A 
ENDBRANCH  10  13
ENDBRANCH   1  10
TORSDOF 3
ENDMDL
