MODEL 1
REMARK VINA RESULT:      -4.8      0.000      0.000
REMARK  Name = *****
REMARK  3 active torsions:
REMARK  status: ('A' for Active; 'I' for Inactive)
REMARK    1  A    between atoms: C_4  and  C_7
REMARK    2  A    between atoms: C_7  and  C_9
REMARK    3  A    between atoms: C_10  and  C_11
REMARK                            x       y       z     vdW  Elec       q    Type
REMARK                         _______ _______ _______ _____ _____    ______ ____
ROOT
ATOM      1  C   UNL     1      99.248 127.433  82.729  0.00  0.00    +0.000 C 
ATOM      2  O   UNL     1      98.225 127.419  82.051  0.00  0.00    +0.000 OA
ENDROOT
BRANCH   1   6
ATOM      3  C   UNL     1      99.904 130.708  85.414  0.00  0.00    +0.000 A 
ATOM      4  C   UNL     1      99.496 130.935  84.101  0.00  0.00    +0.000 A 
ATOM      5  C   UNL     1      99.286 129.857  83.240  0.00  0.00    +0.000 A 
ATOM      6  C   UNL     1      99.494 128.545  83.685  0.00  0.00    +0.000 A 
ATOM      7  C   UNL     1      99.888 128.322  85.012  0.00  0.00    +0.000 A 
ATOM      8  C   UNL     1     100.097 129.404  85.870  0.00  0.00    +0.000 A 
ENDBRANCH   1   6
BRANCH   1   9
ATOM      9  C   UNL     1     100.295 126.383  82.594  0.00  0.00    +0.000 C 
ATOM     10  C   UNL     1     101.517 126.720  82.154  0.00  0.00    +0.000 C 
BRANCH  10  11
ATOM     11  C   UNL     1     102.631 125.773  82.012  0.00  0.00    +0.000 A 
ATOM     12  C   UNL     1     103.143 125.046  83.095  0.00  0.00    +0.000 A 
ATOM     13  C   UNL     1     104.186 124.133  82.909  0.00  0.00    +0.000 A 
ATOM     14  C   UNL     1     104.720 123.931  81.638  0.00  0.00    +0.000 A 
ATOM     15  C   UNL     1     104.207 124.636  80.551  0.00  0.00    +0.000 A 
ATOM     16  C   UNL     1     103.165 125.548  80.736  0.00  0.00    +0.000 A 
ENDBRANCH  10  11
ENDBRANCH   1   9
TORSDOF 3
ENDMDL
