MODEL 1
REMARK VINA RESULT:      -4.1      0.000      0.000
REMARK  Name = *****
REMARK  1 active torsions:
REMARK  status: ('A' for Active; 'I' for Inactive)
REMARK    1  A    between atoms: C_8  and  C_10
REMARK                            x       y       z     vdW  Elec       q    Type
REMARK                         _______ _______ _______ _____ _____    ______ ____
ROOT
ATOM      1  C   UNL     1      90.569  92.723  84.224  0.00  0.00    +0.000 A 
ATOM      2  C   UNL     1      91.353  91.793  84.889  0.00  0.00    +0.000 A 
ATOM      3  C   UNL     1      92.598  92.157  85.404  0.00  0.00    +0.000 A 
ATOM      4  C   UNL     1      93.047  93.482  85.238  0.00  0.00    +0.000 A 
ATOM      5  C   UNL     1      92.282  94.442  84.573  0.00  0.00    +0.000 A 
ATOM      6  C   UNL     1      91.019  94.037  84.062  0.00  0.00    +0.000 A 
ATOM      7  C   UNL     1      92.961  95.715  84.537  0.00  0.00    +0.000 A 
ATOM      8  C   UNL     1      94.195  95.694  85.161  0.00  0.00    +0.000 A 
ATOM      9  S   UNL     1      94.536  94.137  85.788  0.00  0.00    +0.000 S 
ATOM     10 CL   UNL     1      92.243  97.083  83.775  0.00  0.00    +0.000 Cl
ENDROOT
BRANCH   8  11
ATOM     11  C   UNL     1      95.141  96.764  85.320  0.00  0.00    +0.000 A 
ATOM     12  N   UNL     1      95.536  97.254  86.485  0.00  0.00    +0.000 NA
ATOM     13  N   UNL     1      96.441  98.262  86.223  0.00  0.00    +0.000 NA
ATOM     14  C   UNL     1      96.539  98.322  84.919  0.00  0.00    +0.000 A 
ATOM     15  O   UNL     1      95.757  97.418  84.275  0.00  0.00    +0.000 OA
ENDBRANCH   8  11
TORSDOF 1
ENDMDL
