MODEL 1
REMARK VINA RESULT:      -5.3      0.000      0.000
REMARK  Name = *****
REMARK  2 active torsions:
REMARK  status: ('A' for Active; 'I' for Inactive)
REMARK    1  A    between atoms: C_1  and  C_2
REMARK    2  A    between atoms: C_5  and  C_8
REMARK                            x       y       z     vdW  Elec       q    Type
REMARK                         _______ _______ _______ _____ _____    ______ ____
ROOT
ATOM      1  C   UNL     1     102.903 125.385  82.917  0.00  0.00    +0.000 A 
ATOM      2  C   UNL     1     103.516 125.029  81.715  0.00  0.00    +0.000 A 
ATOM      3  C   UNL     1     104.318 123.862  81.649  0.00  0.00    +0.000 A 
ATOM      4  C   UNL     1     104.985 123.397  80.484  0.00  0.00    +0.000 A 
ATOM      5  C   UNL     1     105.757 122.236  80.501  0.00  0.00    +0.000 A 
ATOM      6  C   UNL     1     105.882 121.515  81.679  0.00  0.00    +0.000 A 
ATOM      7  C   UNL     1     105.233 121.962  82.830  0.00  0.00    +0.000 A 
ATOM      8  C   UNL     1     104.458 123.117  82.833  0.00  0.00    +0.000 A 
ATOM      9  N   UNL     1     103.865 123.500  83.970  0.00  0.00    +0.000 NA
ATOM     10  N   UNL     1     103.089 124.630  84.022  0.00  0.00    +0.000 NA
ATOM     11 CL   UNL     1     103.336 126.037  80.306  0.00  0.00    +0.000 Cl
ENDROOT
BRANCH   1  16
ATOM     12  C   UNL     1      99.478 130.009  83.659  0.00  0.00    +0.000 C 
ATOM     13  C   UNL     1     100.361 128.807  83.497  0.00  0.00    +0.000 A 
ATOM     14  C   UNL     1     101.716 128.870  83.835  0.00  0.00    +0.000 A 
ATOM     15  C   UNL     1     102.545 127.760  83.650  0.00  0.00    +0.000 A 
ATOM     16  C   UNL     1     102.042 126.558  83.124  0.00  0.00    +0.000 A 
ATOM     17  C   UNL     1     100.686 126.518  82.761  0.00  0.00    +0.000 A 
ATOM     18  C   UNL     1      99.855 127.627  82.944  0.00  0.00    +0.000 A 
ENDBRANCH   1  16
TORSDOF 1
ENDMDL
