MODEL 1
REMARK VINA RESULT:      -4.6      0.000      0.000
REMARK  Name = *****
REMARK  4 active torsions:
REMARK  status: ('A' for Active; 'I' for Inactive)
REMARK    1  A    between atoms: C_4  and  C_8
REMARK    2  A    between atoms: C_8  and  O_9
REMARK    3  A    between atoms: O_9  and  C_10
REMARK    4  A    between atoms: C_10  and  C_12
REMARK                            x       y       z     vdW  Elec       q    Type
REMARK                         _______ _______ _______ _____ _____    ______ ____
ROOT
ATOM      1  O   UNL     1     103.721 124.837  80.193  0.00  0.00    +0.000 OA
ENDROOT
BRANCH   1   2
ATOM      2  C   UNL     1     104.795 124.012  80.130  0.00  0.00    +0.000 C 
ATOM      3  O   UNL     1     105.740 124.121  79.365  0.00  0.00    +0.000 OA
BRANCH   2   4
ATOM      4  C   UNL     1     104.675 122.921  81.136  0.00  0.00    +0.000 A 
ATOM      5  C   UNL     1     104.638 123.274  82.492  0.00  0.00    +0.000 A 
ATOM      6  C   UNL     1     104.529 122.288  83.475  0.00  0.00    +0.000 A 
ATOM      7  C   UNL     1     104.457 120.944  83.109  0.00  0.00    +0.000 A 
ATOM      8  C   UNL     1     104.495 120.584  81.762  0.00  0.00    +0.000 A 
ATOM      9  C   UNL     1     104.604 121.568  80.776  0.00  0.00    +0.000 A 
ENDBRANCH   2   4
ENDBRANCH   1   2
BRANCH   1  10
ATOM     10  C   UNL     1     104.011 126.229  80.406  0.00  0.00    +0.000 C 
BRANCH  10  14
ATOM     11  C   UNL     1     102.812 126.114  83.355  0.00  0.00    +0.000 C 
ATOM     12  C   UNL     1     102.648 127.636  83.406  0.00  0.00    +0.000 C 
ATOM     13  C   UNL     1     103.292 128.050  82.064  0.00  0.00    +0.000 C 
ATOM     14  C   UNL     1     102.832 126.917  81.093  0.00  0.00    +0.000 C 
ATOM     15  C   UNL     1     102.037 125.975  82.038  0.00  0.00    +0.000 C 
ATOM     16  C   UNL     1     100.777 126.711  82.443  0.00  0.00    +0.000 C 
ATOM     17  C   UNL     1     101.146 127.714  83.255  0.00  0.00    +0.000 C 
ENDBRANCH  10  14
ENDBRANCH   1  10
TORSDOF 4
ENDMDL
