MODEL 1
REMARK VINA RESULT:      -5.2      0.000      0.000
REMARK  Name = *****
REMARK  4 active torsions:
REMARK  status: ('A' for Active; 'I' for Inactive)
REMARK    1  A    between atoms: C_1  and  C_2
REMARK    2  A    between atoms: C_2  and  C_4
REMARK    3  A    between atoms: C_7  and  C_10
REMARK    4  A    between atoms: C_11  and  C_12
REMARK                            x       y       z     vdW  Elec       q    Type
REMARK                         _______ _______ _______ _____ _____    ______ ____
ROOT
ATOM      1  C   UNL     1     105.763 122.789  81.043  0.00  0.00    +0.000 A 
ATOM      2  C   UNL     1     105.081 122.951  82.252  0.00  0.00    +0.000 A 
ATOM      3  C   UNL     1     104.139 123.977  82.395  0.00  0.00    +0.000 A 
ATOM      4  C   UNL     1     103.864 124.865  81.343  0.00  0.00    +0.000 A 
ATOM      5  C   UNL     1     104.543 124.684  80.129  0.00  0.00    +0.000 A 
ATOM      6  C   UNL     1     105.486 123.659  79.983  0.00  0.00    +0.000 A 
ENDROOT
BRANCH   1   8
ATOM      7  C   UNL     1     106.617 120.406  81.567  0.00  0.00    +0.000 C 
ATOM      8  C   UNL     1     106.779 121.713  80.835  0.00  0.00    +0.000 C 
ATOM      9  O   UNL     1     107.727 121.904  80.078  0.00  0.00    +0.000 OA
ENDBRANCH   1   8
BRANCH   4  10
ATOM     10  C   UNL     1     102.850 125.916  81.551  0.00  0.00    +0.000 C 
ATOM     11  C   UNL     1     101.935 125.914  82.534  0.00  0.00    +0.000 C 
ATOM     12  F   UNL     1     102.857 126.929  80.650  0.00  0.00    +0.000 F 
BRANCH  11  13
ATOM     13  C   UNL     1     100.914 126.953  82.743  0.00  0.00    +0.000 A 
ATOM     14  C   UNL     1      99.570 126.768  82.396  0.00  0.00    +0.000 A 
ATOM     15  C   UNL     1      98.625 127.766  82.649  0.00  0.00    +0.000 A 
ATOM     16  C   UNL     1      99.012 128.954  83.265  0.00  0.00    +0.000 A 
ATOM     17  C   UNL     1     100.343 129.144  83.631  0.00  0.00    +0.000 A 
ATOM     18  C   UNL     1     101.287 128.146  83.377  0.00  0.00    +0.000 A 
ENDBRANCH  11  13
ENDBRANCH   4  10
TORSDOF 3
ENDMDL
