REMARK  Name = *****
REMARK  3 active torsions:
REMARK  status: ('A' for Active; 'I' for Inactive)
REMARK    1  A    between atoms: C_3  and  C_8
REMARK    2  A    between atoms: C_8  and  O_9
REMARK    3  A    between atoms: O_9  and  C_10
REMARK                            x       y       z     vdW  Elec       q    Type
REMARK                         _______ _______ _______ _____ _____    ______ ____
ROOT
ATOM      1  C   UNL     1      -1.987   2.529   0.014  0.00  0.00    +0.000 C 
ENDROOT
BRANCH   1   4
ATOM      2  C   UNL     1       0.459  -0.241   0.979  0.00  0.00    +0.000 A 
ATOM      3  C   UNL     1      -0.267   0.953   0.994  0.00  0.00    +0.000 A 
ATOM      4  C   UNL     1      -1.193   1.245  -0.022  0.00  0.00    +0.000 A 
ATOM      5  C   UNL     1      -1.379   0.314  -1.052  0.00  0.00    +0.000 A 
ATOM      6  C   UNL     1      -0.652  -0.872  -1.057  0.00  0.00    +0.000 A 
ATOM      7  C   UNL     1       0.264  -1.158  -0.052  0.00  0.00    +0.000 A 
ATOM      8  F   UNL     1      -0.840  -1.754  -2.048  0.00  0.00    +0.000 F 
ENDBRANCH   1   4
BRANCH   1   9
ATOM      9  O   UNL     1      -1.078   3.628   0.009  0.00  0.00    +0.000 OA
BRANCH   9  10
ATOM     10  C   UNL     1      -1.617   4.883   0.075  0.00  0.00    +0.000 A 
ATOM     11  C   UNL     1      -2.979   5.193   0.131  0.00  0.00    +0.000 A 
ATOM     12  C   UNL     1      -3.390   6.528   0.196  0.00  0.00    +0.000 A 
ATOM     13  C   UNL     1      -2.442   7.543   0.206  0.00  0.00    +0.000 A 
ATOM     14  C   UNL     1      -1.086   7.251   0.151  0.00  0.00    +0.000 A 
ATOM     15  C   UNL     1      -0.676   5.919   0.084  0.00  0.00    +0.000 A 
ATOM     16  F   UNL     1      -2.842   8.820   0.270  0.00  0.00    +0.000 F 
ENDBRANCH   9  10
ENDBRANCH   1   9
TORSDOF 3
