MODEL 1
REMARK VINA RESULT:      -4.0      0.000      0.000
REMARK  Name = *****
REMARK  4 active torsions:
REMARK  status: ('A' for Active; 'I' for Inactive)
REMARK    1  A    between atoms: C_5  and  O_7
REMARK    2  A    between atoms: O_7  and  C_8
REMARK    3  A    between atoms: C_8  and  C_10
REMARK    4  A    between atoms: C_10  and  C_11
REMARK                            x       y       z     vdW  Elec       q    Type
REMARK                         _______ _______ _______ _____ _____    ______ ____
ROOT
ATOM      1  O   UNL     1     102.801 127.440  83.184  0.00  0.00    +0.000 OA
ENDROOT
BRANCH   1   6
ATOM      2  C   UNL     1      99.281 126.832  82.340  0.00  0.00    +0.000 A 
ATOM      3  C   UNL     1      98.676 127.984  82.850  0.00  0.00    +0.000 A 
ATOM      4  C   UNL     1      99.448 128.967  83.476  0.00  0.00    +0.000 A 
ATOM      5  C   UNL     1     100.829 128.802  83.587  0.00  0.00    +0.000 A 
ATOM      6  C   UNL     1     101.428 127.657  83.057  0.00  0.00    +0.000 A 
ATOM      7  C   UNL     1     100.661 126.661  82.448  0.00  0.00    +0.000 A 
ATOM      8 CL   UNL     1     101.756 130.013  84.392  0.00  0.00    +0.000 Cl
ENDBRANCH   1   6
BRANCH   1   9
ATOM      9  C   UNL     1     103.542 128.160  82.251  0.00  0.00    +0.000 C 
ATOM     10  O   UNL     1     104.273 129.117  82.482  0.00  0.00    +0.000 OA
BRANCH   9  11
ATOM     11  C   UNL     1     103.284 127.603  80.872  0.00  0.00    +0.000 C 
BRANCH  11  12
ATOM     12  C   UNL     1     104.054 126.334  80.691  0.00  0.00    +0.000 A 
ATOM     13  C   UNL     1     103.577 125.037  80.696  0.00  0.00    +0.000 A 
ATOM     14  C   UNL     1     104.612 124.079  80.492  0.00  0.00    +0.000 A 
ATOM     15  C   UNL     1     105.842 124.676  80.336  0.00  0.00    +0.000 A 
ATOM     16  S   UNL     1     105.748 126.379  80.436  0.00  0.00    +0.000 S 
ENDBRANCH  11  12
ENDBRANCH   9  11
ENDBRANCH   1   9
TORSDOF 4
ENDMDL
