MODEL 1
REMARK VINA RESULT:      -4.3      0.000      0.000
REMARK  Name = *****
REMARK  3 active torsions:
REMARK  status: ('A' for Active; 'I' for Inactive)
REMARK    1  A    between atoms: C_5  and  C_7
REMARK    2  A    between atoms: C_8  and  C_10
REMARK    3  A    between atoms: C_8  and  C_12
REMARK                            x       y       z     vdW  Elec       q    Type
REMARK                         _______ _______ _______ _____ _____    ______ ____
ROOT
ATOM      1  C   UNL     1      87.986  64.823  88.409  0.00  0.00    +0.000 C 
ATOM      2  C   UNL     1      87.487  65.762  87.298  0.00  0.00    +0.000 C 
ATOM      3  O   UNL     1      88.336  64.633  87.029  0.00  0.00    +0.000 OA
ENDROOT
BRANCH   1   8
ATOM      4  C   UNL     1      86.231  61.485  89.097  0.00  0.00    +0.000 A 
ATOM      5  C   UNL     1      85.458  61.779  90.214  0.00  0.00    +0.000 A 
ATOM      6  C   UNL     1      85.497  63.058  90.762  0.00  0.00    +0.000 A 
ATOM      7  C   UNL     1      86.308  64.043  90.187  0.00  0.00    +0.000 A 
ATOM      8  C   UNL     1      87.095  63.780  89.050  0.00  0.00    +0.000 A 
ATOM      9  C   UNL     1      87.040  62.473  88.527  0.00  0.00    +0.000 A 
ATOM     10 CL   UNL     1      86.310  65.608  90.922  0.00  0.00    +0.000 Cl
ENDBRANCH   1   8
BRANCH   2  11
ATOM     11  C   UNL     1      88.123  67.142  87.219  0.00  0.00    +0.000 A 
ATOM     12  C   UNL     1      87.570  68.243  87.902  0.00  0.00    +0.000 A 
ATOM     13  C   UNL     1      88.152  69.510  87.837  0.00  0.00    +0.000 A 
ATOM     14  C   UNL     1      89.300  69.696  87.081  0.00  0.00    +0.000 A 
ATOM     15  C   UNL     1      89.874  68.636  86.393  0.00  0.00    +0.000 A 
ATOM     16  C   UNL     1      89.289  67.369  86.463  0.00  0.00    +0.000 A 
ATOM     17  F   UNL     1      89.861  70.910  87.014  0.00  0.00    +0.000 F 
ENDBRANCH   2  11
BRANCH   2  18
ATOM     18  C   UNL     1      86.094  65.610  86.737  0.00  0.00    +0.000 C 
ATOM     19 CL   UNL     1      86.076  64.463  85.373  0.00  0.00    +0.000 Cl
ENDBRANCH   2  18
TORSDOF 3
ENDMDL
