REMARK  Name = *****
REMARK  2 active torsions:
REMARK  status: ('A' for Active; 'I' for Inactive)
REMARK    1  A    between atoms: C_4  and  C_6
REMARK    2  A    between atoms: C_7  and  C_8
REMARK                            x       y       z     vdW  Elec       q    Type
REMARK                         _______ _______ _______ _____ _____    ______ ____
ROOT
ATOM      1  C   UNL     1      -1.106   1.506   1.780  0.00  0.00    +0.000 C 
ATOM      2  C   UNL     1      -2.390   1.394   2.158  0.00  0.00    +0.000 C 
ENDROOT
BRANCH   2   3
ATOM      3  C   UNL     1      -2.898   1.799   3.475  0.00  0.00    +0.000 A 
ATOM      4  C   UNL     1      -2.452   2.962   4.122  0.00  0.00    +0.000 A 
ATOM      5  C   UNL     1      -2.982   3.331   5.360  0.00  0.00    +0.000 A 
ATOM      6  C   UNL     1      -3.964   2.544   5.948  0.00  0.00    +0.000 A 
ATOM      7  C   UNL     1      -4.432   1.398   5.318  0.00  0.00    +0.000 A 
ATOM      8  C   UNL     1      -3.903   1.029   4.079  0.00  0.00    +0.000 A 
ATOM      9  F   UNL     1      -4.473   2.900   7.135  0.00  0.00    +0.000 F 
ENDBRANCH   2   3
BRANCH   1  13
ATOM     10  C   UNL     1       0.974   1.502  -1.359  0.00  0.00    +0.000 C 
ATOM     11  C   UNL     1       1.133   0.062  -0.870  0.00  0.00    +0.000 C 
ATOM     12  C   UNL     1       0.502   0.024   0.516  0.00  0.00    +0.000 C 
ATOM     13  C   UNL     1      -0.600   1.078   0.432  0.00  0.00    +0.000 C 
ATOM     14  C   UNL     1       0.088   2.209  -0.334  0.00  0.00    +0.000 C 
ENDBRANCH   1  13
TORSDOF 2
