MODEL 1
REMARK VINA RESULT:      -4.5      0.000      0.000
REMARK  Name = *****
REMARK  3 active torsions:
REMARK  status: ('A' for Active; 'I' for Inactive)
REMARK    1  A    between atoms: C_1  and  C_2
REMARK    2  A    between atoms: C_5  and  C_8
REMARK    3  A    between atoms: C_9  and  C_10
REMARK                            x       y       z     vdW  Elec       q    Type
REMARK                         _______ _______ _______ _____ _____    ______ ____
ROOT
ATOM      1  C   UNL     1     102.587 126.153  81.607  0.00  0.00    +0.000 C 
ATOM      2  C   UNL     1     103.319 125.446  80.968  0.00  0.00    +0.000 C 
ENDROOT
BRANCH   1   7
ATOM      3  C   UNL     1      99.084 129.536  84.638  0.00  0.00    +0.000 C 
ATOM      4  C   UNL     1      99.993 128.667  83.821  0.00  0.00    +0.000 A 
ATOM      5  C   UNL     1      99.491 127.547  83.148  0.00  0.00    +0.000 A 
ATOM      6  C   UNL     1     100.346 126.720  82.414  0.00  0.00    +0.000 A 
ATOM      7  C   UNL     1     101.712 127.000  82.357  0.00  0.00    +0.000 A 
ATOM      8  C   UNL     1     102.223 128.105  83.038  0.00  0.00    +0.000 A 
ATOM      9  C   UNL     1     101.368 128.933  83.771  0.00  0.00    +0.000 A 
ENDBRANCH   1   7
BRANCH   2  10
ATOM     10  C   UNL     1     104.213 124.584  80.188  0.00  0.00    +0.000 C 
ATOM     11  C   UNL     1     104.695 123.342  80.964  0.00  0.00    +0.000 C 
ATOM     12  C   UNL     1     106.227 123.416  80.820  0.00  0.00    +0.000 C 
ATOM     13  C   UNL     1     106.754 124.541  81.727  0.00  0.00    +0.000 C 
ATOM     14  C   UNL     1     106.306 125.810  80.991  0.00  0.00    +0.000 C 
ATOM     15  C   UNL     1     105.540 125.257  79.772  0.00  0.00    +0.000 C 
ATOM     16  C   UNL     1     106.390 124.029  79.429  0.00  0.00    +0.000 C 
ENDBRANCH   2  10
TORSDOF 2
ENDMDL
