REMARK  Name = *****
REMARK  4 active torsions:
REMARK  status: ('A' for Active; 'I' for Inactive)
REMARK    1  A    between atoms: C_6  and  C_7
REMARK    2  A    between atoms: C_7  and  C_8
REMARK    3  A    between atoms: C_8  and  C_9
REMARK    4  A    between atoms: C_8  and  O_16
REMARK                            x       y       z     vdW  Elec       q    Type
REMARK                         _______ _______ _______ _____ _____    ______ ____
ROOT
ATOM      1  C   UNL     1       4.885   1.096   0.369  0.00  0.00    +0.000 C 
ENDROOT
BRANCH   1   2
ATOM      2  C   UNL     1       4.339   1.961   1.490  0.00  0.00    +0.000 A 
ATOM      3  C   UNL     1       4.366   1.517   2.822  0.00  0.00    +0.000 A 
ATOM      4  C   UNL     1       3.854   2.314   3.848  0.00  0.00    +0.000 A 
ATOM      5  C   UNL     1       3.309   3.560   3.549  0.00  0.00    +0.000 A 
ATOM      6  C   UNL     1       3.272   4.016   2.233  0.00  0.00    +0.000 A 
ATOM      7  C   UNL     1       3.784   3.219   1.206  0.00  0.00    +0.000 A 
ATOM      8 CL   UNL     1       2.678   4.544   4.812  0.00  0.00    +0.000 Cl
ENDBRANCH   1   2
BRANCH   1   9
ATOM      9  O   UNL     1       6.214   0.691   0.713  0.00  0.00    +0.000 OA
ATOM     10  H   UNL     1       6.192   0.176   1.535  0.00  0.00    +0.000 HD
ENDBRANCH   1   9
BRANCH   1  11
ATOM     11  C   UNL     1       4.002  -0.141   0.122  0.00  0.00    +0.000 C 
BRANCH  11  17
ATOM     12  C   UNL     1       3.347  -0.558  -2.289  0.00  0.00    +0.000 A 
ATOM     13  C   UNL     1       3.580  -1.132  -3.541  0.00  0.00    +0.000 A 
ATOM     14  C   UNL     1       4.714  -1.915  -3.745  0.00  0.00    +0.000 A 
ATOM     15  C   UNL     1       5.617  -2.130  -2.708  0.00  0.00    +0.000 A 
ATOM     16  C   UNL     1       5.384  -1.558  -1.456  0.00  0.00    +0.000 A 
ATOM     17  C   UNL     1       4.246  -0.769  -1.234  0.00  0.00    +0.000 A 
ATOM     18 CL   UNL     1       5.000  -2.619  -5.289  0.00  0.00    +0.000 Cl
ENDBRANCH  11  17
ENDBRANCH   1  11
TORSDOF 4
