MODEL 1
REMARK VINA RESULT:      -4.4      0.000      0.000
REMARK  Name = *****
REMARK  5 active torsions:
REMARK  status: ('A' for Active; 'I' for Inactive)
REMARK    1  A    between atoms: C_1  and  S_2
REMARK    2  A    between atoms: S_2  and  C_4
REMARK    3  A    between atoms: C_4  and  C_5
REMARK    4  A    between atoms: C_4  and  S_11
REMARK    5  A    between atoms: S_11  and  C_12
REMARK                            x       y       z     vdW  Elec       q    Type
REMARK                         _______ _______ _______ _____ _____    ______ ____
ROOT
ATOM      1  C   UNL     1      88.468  69.842  86.125  0.00  0.00    +0.000 C 
ENDROOT
BRANCH   1   2
ATOM      2  C   UNL     1      87.934  70.495  87.393  0.00  0.00    +0.000 A 
ATOM      3  C   UNL     1      86.644  71.046  87.478  0.00  0.00    +0.000 A 
ATOM      4  C   UNL     1      86.191  71.629  88.663  0.00  0.00    +0.000 A 
ATOM      5  C   UNL     1      87.015  71.665  89.785  0.00  0.00    +0.000 A 
ATOM      6  C   UNL     1      88.292  71.113  89.725  0.00  0.00    +0.000 A 
ATOM      7  C   UNL     1      88.747  70.529  88.542  0.00  0.00    +0.000 A 
ENDBRANCH   1   2
BRANCH   1   9
ATOM      8  C   UNL     1      88.501  67.602  84.568  0.00  0.00    +0.000 C 
ATOM      9  S   UNL     1      88.820  68.041  86.295  0.00  0.00    +0.000 S 
ATOM     10  O   UNL     1      90.292  67.855  86.531  0.00  0.00    +0.000 OA
ENDBRANCH   1   9
BRANCH   1  11
ATOM     11  S   UNL     1      89.842  70.811  85.368  0.00  0.00    +0.000 S 
BRANCH  11  12
ATOM     12  C   UNL     1      88.968  71.935  84.300  0.00  0.00    +0.000 A 
ATOM     13  C   UNL     1      87.613  71.739  84.015  0.00  0.00    +0.000 A 
ATOM     14  C   UNL     1      86.929  72.634  83.190  0.00  0.00    +0.000 A 
ATOM     15  C   UNL     1      87.591  73.738  82.659  0.00  0.00    +0.000 A 
ATOM     16  C   UNL     1      88.936  73.955  82.959  0.00  0.00    +0.000 A 
ATOM     17  C   UNL     1      89.619  73.060  83.785  0.00  0.00    +0.000 A 
ENDBRANCH  11  12
ENDBRANCH   1  11
TORSDOF 4
ENDMDL
