REMARK  Name = *****
REMARK  1 active torsions:
REMARK  status: ('A' for Active; 'I' for Inactive)
REMARK    1  A    between atoms: C_7  and  C_8
REMARK                            x       y       z     vdW  Elec       q    Type
REMARK                         _______ _______ _______ _____ _____    ______ ____
ROOT
ATOM      1  C   UNL     1       4.837  -1.523   2.941  0.00  0.00    +0.000 A 
ATOM      2  C   UNL     1       5.096  -2.718   2.312  0.00  0.00    +0.000 A 
ATOM      3  S   UNL     1       5.178  -4.018   3.408  0.00  0.00    +0.000 S 
ATOM      4  C   UNL     1       4.873  -2.995   4.759  0.00  0.00    +0.000 A 
ATOM      5  C   UNL     1       4.789  -3.391   6.110  0.00  0.00    +0.000 A 
ATOM      6  C   UNL     1       4.532  -2.428   7.086  0.00  0.00    +0.000 A 
ATOM      7  C   UNL     1       4.362  -1.099   6.732  0.00  0.00    +0.000 A 
ATOM      8  C   UNL     1       4.447  -0.709   5.391  0.00  0.00    +0.000 A 
ATOM      9  C   UNL     1       4.707  -1.660   4.370  0.00  0.00    +0.000 A 
ENDROOT
BRANCH   1  16
ATOM     10  C   UNL     1       1.423   0.145  -1.287  0.00  0.00    +0.000 C 
ATOM     11  C   UNL     1       2.399   0.060  -0.381  0.00  0.00    +0.000 C 
ATOM     12  C   UNL     1       3.233  -1.083   0.157  0.00  0.00    +0.000 C 
ATOM     13  C   UNL     1       4.018  -0.046   0.895  0.00  0.00    +0.000 C 
ATOM     14  C   UNL     1       3.093   1.068   0.507  0.00  0.00    +0.000 C 
ATOM     15  C   UNL     1       5.502   0.065   0.960  0.00  0.00    +0.000 C 
ATOM     16  C   UNL     1       4.708  -0.171   2.233  0.00  0.00    +0.000 C 
ENDBRANCH   1  16
TORSDOF 1
