MODEL 1
REMARK VINA RESULT:      -4.3      0.000      0.000
REMARK  Name = *****
REMARK  4 active torsions:
REMARK  status: ('A' for Active; 'I' for Inactive)
REMARK    1  A    between atoms: C_1  and  N_2
REMARK    2  A    between atoms: N_2  and  C_3
REMARK    3  A    between atoms: N_2  and  C_10
REMARK    4  A    between atoms: C_4  and  C_5
REMARK                            x       y       z     vdW  Elec       q    Type
REMARK                         _______ _______ _______ _____ _____    ______ ____
ROOT
ATOM      1  C   UNL     1      89.864  63.789  85.646  0.00  0.00    +0.000 C 
ATOM      2  N   UNL     1      88.979  64.675  86.410  0.00  0.00    +0.000 N 
ENDROOT
BRANCH   2   3
ATOM      3  C   UNL     1      88.290  64.058  87.489  0.00  0.00    +0.000 A 
ATOM      4  C   UNL     1      88.425  64.500  88.815  0.00  0.00    +0.000 A 
ATOM      5  C   UNL     1      87.737  63.881  89.865  0.00  0.00    +0.000 A 
ATOM      6  C   UNL     1      86.896  62.802  89.610  0.00  0.00    +0.000 A 
ATOM      7  C   UNL     1      86.743  62.344  88.305  0.00  0.00    +0.000 A 
ATOM      8  C   UNL     1      87.430  62.967  87.259  0.00  0.00    +0.000 A 
ENDBRANCH   2   3
BRANCH   2   9
ATOM      9  C   UNL     1      88.958  66.055  86.223  0.00  0.00    +0.000 C 
ATOM     10  C   UNL     1      89.958  66.946  86.308  0.00  0.00    +0.000 C 
BRANCH  10  11
ATOM     11  C   UNL     1      89.824  68.368  86.112  0.00  0.00    +0.000 C 
ATOM     12  C   UNL     1      89.587  69.249  87.093  0.00  0.00    +0.000 C 
ATOM     13  C   UNL     1      89.467  70.645  86.580  0.00  0.00    +0.000 C 
ATOM     14  C   UNL     1      90.008  70.532  85.158  0.00  0.00    +0.000 C 
ATOM     15  C   UNL     1      89.905  69.053  84.779  0.00  0.00    +0.000 C 
ENDBRANCH  10  11
ENDBRANCH   2   9
TORSDOF 3
ENDMDL
