MODEL 1
REMARK VINA RESULT:      -4.7      0.000      0.000
REMARK  Name = *****
REMARK  3 active torsions:
REMARK  status: ('A' for Active; 'I' for Inactive)
REMARK    1  A    between atoms: C_4  and  C_8
REMARK    2  A    between atoms: C_8  and  O_10
REMARK    3  A    between atoms: O_10  and  C_11
REMARK                            x       y       z     vdW  Elec       q    Type
REMARK                         _______ _______ _______ _____ _____    ______ ____
ROOT
ATOM      1  C   UNL     1     103.566 127.712  82.955  0.00  0.00    +0.000 C 
ATOM      2  O   UNL     1     104.120 128.768  82.687  0.00  0.00    +0.000 OA
ENDROOT
BRANCH   1   6
ATOM      3  C   UNL     1     104.257 124.073  80.817  0.00  0.00    +0.000 A 
ATOM      4  C   UNL     1     103.889 125.218  80.112  0.00  0.00    +0.000 A 
ATOM      5  C   UNL     1     103.661 126.410  80.799  0.00  0.00    +0.000 A 
ATOM      6  C   UNL     1     103.805 126.473  82.188  0.00  0.00    +0.000 A 
ATOM      7  C   UNL     1     104.159 125.316  82.895  0.00  0.00    +0.000 A 
ATOM      8  C   UNL     1     104.386 124.133  82.202  0.00  0.00    +0.000 A 
ATOM      9  F   UNL     1     104.732 123.030  82.877  0.00  0.00    +0.000 F 
ATOM     10  F   UNL     1     103.275 127.480  80.090  0.00  0.00    +0.000 F 
ENDBRANCH   1   6
BRANCH   1  11
ATOM     11  O   UNL     1     102.601 127.493  83.917  0.00  0.00    +0.000 OA
BRANCH  11  12
ATOM     12  C   UNL     1     101.295 127.772  83.504  0.00  0.00    +0.000 A 
ATOM     13  C   UNL     1     100.792 129.046  83.755  0.00  0.00    +0.000 A 
ATOM     14  C   UNL     1      99.478 129.328  83.399  0.00  0.00    +0.000 A 
ATOM     15  C   UNL     1      98.666 128.362  82.815  0.00  0.00    +0.000 A 
ATOM     16  C   UNL     1      99.186 127.092  82.594  0.00  0.00    +0.000 A 
ATOM     17  C   UNL     1     100.495 126.779  82.941  0.00  0.00    +0.000 A 
ATOM     18  F   UNL     1      98.407 126.150  82.045  0.00  0.00    +0.000 F 
ATOM     19  F   UNL     1      98.982 130.551  83.629  0.00  0.00    +0.000 F 
ENDBRANCH  11  12
ENDBRANCH   1  11
TORSDOF 3
ENDMDL
