REMARK  Name = *****
REMARK  4 active torsions:
REMARK  status: ('A' for Active; 'I' for Inactive)
REMARK    1  A    between atoms: C_1  and  C_2
REMARK    2  A    between atoms: C_4  and  N_8
REMARK    3  A    between atoms: C_9  and  C_10
REMARK    4  A    between atoms: C_9  and  C_11
REMARK                            x       y       z     vdW  Elec       q    Type
REMARK                         _______ _______ _______ _____ _____    ______ ____
ROOT
ATOM      1  N   UNL     1      -1.543   2.575  -0.233  0.00  0.00    +0.000 NA
ATOM      2  C   UNL     1      -1.123   3.670   0.333  0.00  0.00    +0.000 C 
ATOM      3  C   UNL     1       0.102   3.748   1.226  0.00  0.00    +0.000 C 
ENDROOT
BRANCH   1   7
ATOM      4  C   UNL     1       2.108  -0.483  -1.572  0.00  0.00    +0.000 C 
ATOM      5  C   UNL     1       0.948  -0.146  -0.684  0.00  0.00    +0.000 A 
ATOM      6  C   UNL     1       0.253   1.060  -0.855  0.00  0.00    +0.000 A 
ATOM      7  C   UNL     1      -0.846   1.375  -0.049  0.00  0.00    +0.000 A 
ATOM      8  C   UNL     1      -1.281   0.452   0.903  0.00  0.00    +0.000 A 
ATOM      9  C   UNL     1      -0.608  -0.758   1.073  0.00  0.00    +0.000 A 
ATOM     10  C   UNL     1       0.502  -1.056   0.281  0.00  0.00    +0.000 A 
ENDBRANCH   1   7
BRANCH   2  11
ATOM     11  C   UNL     1      -1.887   4.931   0.078  0.00  0.00    +0.000 A 
ATOM     12  C   UNL     1      -3.254   4.846  -0.226  0.00  0.00    +0.000 A 
ATOM     13  C   UNL     1      -3.993   6.005  -0.474  0.00  0.00    +0.000 A 
ATOM     14  C   UNL     1      -3.362   7.242  -0.427  0.00  0.00    +0.000 A 
ATOM     15  C   UNL     1      -2.004   7.342  -0.141  0.00  0.00    +0.000 A 
ATOM     16  C   UNL     1      -1.261   6.185   0.109  0.00  0.00    +0.000 A 
ATOM     17  F   UNL     1      -4.068   8.353  -0.667  0.00  0.00    +0.000 F 
ENDBRANCH   2  11
TORSDOF 2
