MODEL 1
REMARK VINA RESULT:      -4.6      0.000      0.000
REMARK  Name = *****
REMARK  5 active torsions:
REMARK  status: ('A' for Active; 'I' for Inactive)
REMARK    1  A    between atoms: C_1  and  C_2
REMARK    2  A    between atoms: C_4  and  C_18
REMARK    3  A    between atoms: C_6  and  O_8
REMARK    4  A    between atoms: O_8  and  C_9
REMARK    5  A    between atoms: C_9  and  C_11
REMARK                            x       y       z     vdW  Elec       q    Type
REMARK                         _______ _______ _______ _____ _____    ______ ____
ROOT
ATOM      1  O   UNL     1      88.564  69.761  86.881  0.00  0.00    +0.000 OA
ENDROOT
BRANCH   1   7
ATOM      2  C   UNL     1      87.647  65.621  88.311  0.00  0.00    +0.000 C 
ATOM      3  C   UNL     1      87.549  66.117  86.867  0.00  0.00    +0.000 C 
ATOM      4  C   UNL     1      88.718  65.611  86.009  0.00  0.00    +0.000 C 
ATOM      5  C   UNL     1      90.048  66.314  86.320  0.00  0.00    +0.000 C 
ATOM      6  C   UNL     1      89.895  67.837  86.227  0.00  0.00    +0.000 C 
ATOM      7  C   UNL     1      88.766  68.354  87.122  0.00  0.00    +0.000 C 
ATOM      8  C   UNL     1      87.447  67.646  86.796  0.00  0.00    +0.000 C 
ATOM      9  C   UNL     1      91.145  65.826  85.374  0.00  0.00    +0.000 C 
ENDBRANCH   1   7
BRANCH   1  10
ATOM     10  C   UNL     1      88.048  70.476  87.911  0.00  0.00    +0.000 C 
ATOM     11  O   UNL     1      88.518  70.562  89.033  0.00  0.00    +0.000 OA
BRANCH  10  12
ATOM     12  C   UNL     1      86.795  71.162  87.492  0.00  0.00    +0.000 A 
ATOM     13  C   UNL     1      85.824  71.587  88.414  0.00  0.00    +0.000 A 
ATOM     14  C   UNL     1      84.665  72.225  87.966  0.00  0.00    +0.000 A 
ATOM     15  C   UNL     1      84.477  72.435  86.605  0.00  0.00    +0.000 A 
ATOM     16  C   UNL     1      85.427  72.020  85.678  0.00  0.00    +0.000 A 
ATOM     17  C   UNL     1      86.587  71.381  86.121  0.00  0.00    +0.000 A 
ATOM     18  F   UNL     1      83.364  73.047  86.180  0.00  0.00    +0.000 F 
ENDBRANCH  10  12
ENDBRANCH   1  10
TORSDOF 3
ENDMDL
