MODEL 1
REMARK VINA RESULT:      -5.3      0.000      0.000
REMARK  Name = *****
REMARK  5 active torsions:
REMARK  status: ('A' for Active; 'I' for Inactive)
REMARK    1  A    between atoms: C_1  and  C_2
REMARK    2  A    between atoms: C_5  and  C_8
REMARK    3  A    between atoms: C_8  and  C_10
REMARK    4  A    between atoms: C_10  and  C_11
REMARK    5  A    between atoms: C_14  and  C_17
REMARK                            x       y       z     vdW  Elec       q    Type
REMARK                         _______ _______ _______ _____ _____    ______ ____
ROOT
ATOM      1  C   UNL     1      87.858  70.750  85.633  0.00  0.00    +0.000 C 
ATOM      2  F   UNL     1      87.507  69.827  84.677  0.00  0.00    +0.000 F 
ATOM      3  F   UNL     1      88.513  71.727  84.921  0.00  0.00    +0.000 F 
ENDROOT
BRANCH   1   4
ATOM      4  C   UNL     1      86.619  71.327  86.302  0.00  0.00    +0.000 A 
ATOM      5  C   UNL     1      85.585  71.880  85.531  0.00  0.00    +0.000 A 
ATOM      6  C   UNL     1      84.450  72.416  86.145  0.00  0.00    +0.000 A 
ATOM      7  C   UNL     1      84.334  72.421  87.540  0.00  0.00    +0.000 A 
ATOM      8  C   UNL     1      85.357  71.859  88.311  0.00  0.00    +0.000 A 
ATOM      9  C   UNL     1      86.492  71.323  87.698  0.00  0.00    +0.000 A 
ATOM     10  C   UNL     1      83.100  72.969  88.196  0.00  0.00    +0.000 C 
ENDBRANCH   1   4
BRANCH   1  11
ATOM     11  C   UNL     1      88.821  70.104  86.647  0.00  0.00    +0.000 C 
ATOM     12  O   UNL     1      89.613  70.740  87.348  0.00  0.00    +0.000 OA
BRANCH  11  17
ATOM     13  C   UNL     1      88.857  64.312  87.204  0.00  0.00    +0.000 C 
ATOM     14  C   UNL     1      88.821  65.803  87.045  0.00  0.00    +0.000 A 
ATOM     15  C   UNL     1      89.869  66.473  86.405  0.00  0.00    +0.000 A 
ATOM     16  C   UNL     1      89.849  67.865  86.285  0.00  0.00    +0.000 A 
ATOM     17  C   UNL     1      88.786  68.615  86.810  0.00  0.00    +0.000 A 
ATOM     18  C   UNL     1      87.749  67.944  87.468  0.00  0.00    +0.000 A 
ATOM     19  C   UNL     1      87.770  66.550  87.588  0.00  0.00    +0.000 A 
ENDBRANCH  11  17
ENDBRANCH   1  11
TORSDOF 3
ENDMDL
