REMARK  Name = *****
REMARK  4 active torsions:
REMARK  status: ('A' for Active; 'I' for Inactive)
REMARK    1  A    between atoms: C_1  and  C_2
REMARK    2  A    between atoms: C_5  and  N_8
REMARK    3  A    between atoms: N_8  and  O_18
REMARK    4  A    between atoms: C_9  and  C_11
REMARK                            x       y       z     vdW  Elec       q    Type
REMARK                         _______ _______ _______ _____ _____    ______ ____
ROOT
ATOM      1  N   UNL     1      -3.216  -0.077  -0.282  0.00  0.00    +0.000 N 
ATOM      2  C   UNL     1      -4.072  -1.112   0.084  0.00  0.00    +0.000 C 
ATOM      3  O   UNL     1      -3.757  -2.244   0.445  0.00  0.00    +0.000 OA
ENDROOT
BRANCH   1   8
ATOM      4  C   UNL     1       2.539  -0.142  -0.559  0.00  0.00    +0.000 C 
ATOM      5  C   UNL     1       1.041  -0.146  -0.510  0.00  0.00    +0.000 A 
ATOM      6  C   UNL     1       0.351  -1.176   0.133  0.00  0.00    +0.000 A 
ATOM      7  C   UNL     1      -1.048  -1.165   0.204  0.00  0.00    +0.000 A 
ATOM      8  C   UNL     1      -1.794  -0.122  -0.357  0.00  0.00    +0.000 A 
ATOM      9  C   UNL     1      -1.089   0.918  -0.985  0.00  0.00    +0.000 A 
ATOM     10  C   UNL     1       0.309   0.910  -1.058  0.00  0.00    +0.000 A 
ENDBRANCH   1   8
BRANCH   2  11
ATOM     11  C   UNL     1      -5.527  -0.831   0.038  0.00  0.00    +0.000 A 
ATOM     12  C   UNL     1      -6.339  -1.614  -0.790  0.00  0.00    +0.000 A 
ATOM     13  C   UNL     1      -7.716  -1.387  -0.827  0.00  0.00    +0.000 A 
ATOM     14  C   UNL     1      -8.273  -0.391  -0.024  0.00  0.00    +0.000 A 
ATOM     15  C   UNL     1      -7.470   0.376   0.822  0.00  0.00    +0.000 A 
ATOM     16  C   UNL     1      -6.092   0.153   0.860  0.00  0.00    +0.000 A 
ATOM     17 BR   UNL     1     -10.139  -0.086  -0.072  0.00  0.00    +0.000 Br
ENDBRANCH   2  11
BRANCH   1  18
ATOM     18  O   UNL     1      -3.812   1.064  -0.874  0.00  0.00    +0.000 OA
ATOM     19  H   UNL     1      -3.125   1.714  -1.086  0.00  0.00    +0.000 HD
ENDBRANCH   1  18
TORSDOF 3
