MODEL 1
REMARK VINA RESULT:      -3.9      0.000      0.000
REMARK  Name = *****
REMARK  6 active torsions:
REMARK  status: ('A' for Active; 'I' for Inactive)
REMARK    1  A    between atoms: C_1  and  C_2
REMARK    2  A    between atoms: C_2  and  C_3
REMARK    3  A    between atoms: C_3  and  C_16
REMARK    4  A    between atoms: C_6  and  S_8
REMARK    5  A    between atoms: S_8  and  C_9
REMARK    6  A    between atoms: C_9  and  C_10
REMARK                            x       y       z     vdW  Elec       q    Type
REMARK                         _______ _______ _______ _____ _____    ______ ____
ROOT
ATOM      1  C   UNL     1      90.107  71.648  83.507  0.00  0.00    +0.000 C 
ATOM      2  C   UNL     1      90.503  73.122  83.484  0.00  0.00    +0.000 C 
ATOM      3  N   UNL     1      89.235  73.864  83.421  0.00  0.00    +0.000 NA
ATOM      4  C   UNL     1      88.363  72.960  83.106  0.00  0.00    +0.000 C 
ATOM      5  O   UNL     1      88.773  71.669  82.992  0.00  0.00    +0.000 OA
ATOM      6  C   UNL     1      90.046  71.091  84.932  0.00  0.00    +0.000 C 
ENDROOT
BRANCH   1   8
ATOM      7  C   UNL     1      92.384  71.287  82.360  0.00  0.00    +0.000 C 
ATOM      8  C   UNL     1      90.966  70.779  82.575  0.00  0.00    +0.000 C 
ENDBRANCH   1   8
BRANCH   4   9
ATOM      9  S   UNL     1      86.688  73.317  82.841  0.00  0.00    +0.000 S 
BRANCH   9  10
ATOM     10  C   UNL     1      85.950  71.784  83.466  0.00  0.00    +0.000 C 
BRANCH  10  11
ATOM     11  C   UNL     1      85.586  71.895  84.927  0.00  0.00    +0.000 A 
ATOM     12  C   UNL     1      84.366  72.468  85.315  0.00  0.00    +0.000 A 
ATOM     13  C   UNL     1      84.029  72.574  86.665  0.00  0.00    +0.000 A 
ATOM     14  C   UNL     1      84.910  72.113  87.643  0.00  0.00    +0.000 A 
ATOM     15  C   UNL     1      86.129  71.549  87.271  0.00  0.00    +0.000 A 
ATOM     16  C   UNL     1      86.466  71.439  85.921  0.00  0.00    +0.000 A 
ENDBRANCH  10  11
ENDBRANCH   9  10
ENDBRANCH   4   9
TORSDOF 4
ENDMDL
