MODEL 1
REMARK VINA RESULT:      -4.8      0.000      0.000
REMARK  Name = *****
REMARK  1 active torsions:
REMARK  status: ('A' for Active; 'I' for Inactive)
REMARK    1  A    between atoms: C_4  and  C_7
REMARK                            x       y       z     vdW  Elec       q    Type
REMARK                         _______ _______ _______ _____ _____    ______ ____
ROOT
ATOM      1  C   UNL     1     102.018 126.128  82.948  0.00  0.00    +0.000 A 
ATOM      2  N   UNL     1     102.663 125.170  83.586  0.00  0.00    +0.000 NA
ATOM      3  C   UNL     1     103.482 124.633  82.626  0.00  0.00    +0.000 A 
ATOM      4  C   UNL     1     103.293 125.299  81.425  0.00  0.00    +0.000 A 
ATOM      5  O   UNL     1     102.351 126.264  81.625  0.00  0.00    +0.000 OA
ATOM      6  C   UNL     1     103.964 125.008  80.243  0.00  0.00    +0.000 A 
ATOM      7  C   UNL     1     104.889 123.959  80.317  0.00  0.00    +0.000 A 
ATOM      8  C   UNL     1     105.104 123.266  81.515  0.00  0.00    +0.000 A 
ATOM      9  C   UNL     1     104.408 123.586  82.688  0.00  0.00    +0.000 A 
ATOM     10 CL   UNL     1     106.255 121.983  81.546  0.00  0.00    +0.000 Cl
ENDROOT
BRANCH   1  14
ATOM     11  C   UNL     1      99.237 129.442  83.184  0.00  0.00    +0.000 C 
ATOM     12  C   UNL     1      98.672 128.028  83.085  0.00  0.00    +0.000 C 
ATOM     13  C   UNL     1      99.724 127.035  82.595  0.00  0.00    +0.000 C 
ATOM     14  C   UNL     1     100.984 127.070  83.471  0.00  0.00    +0.000 C 
ATOM     15  C   UNL     1     101.548 128.496  83.563  0.00  0.00    +0.000 C 
ATOM     16  C   UNL     1     100.493 129.486  84.050  0.00  0.00    +0.000 C 
ENDBRANCH   1  14
TORSDOF 1
ENDMDL
