MODEL 1
REMARK VINA RESULT:      -4.6      0.000      0.000
REMARK  Name = *****
REMARK  3 active torsions:
REMARK  status: ('A' for Active; 'I' for Inactive)
REMARK    1  A    between atoms: C_1  and  C_2
REMARK    2  A    between atoms: C_4  and  C_7
REMARK    3  A    between atoms: C_8  and  C_9
REMARK                            x       y       z     vdW  Elec       q    Type
REMARK                         _______ _______ _______ _____ _____    ______ ____
ROOT
ATOM      1  C   UNL     1     103.040 125.602  81.458  0.00  0.00    +0.000 C 
ATOM      2  C   UNL     1     102.194 126.293  81.956  0.00  0.00    +0.000 C 
ENDROOT
BRANCH   2   3
ATOM      3  C   UNL     1     101.182 127.118  82.540  0.00  0.00    +0.000 A 
ATOM      4  C   UNL     1      99.838 126.769  82.412  0.00  0.00    +0.000 A 
ATOM      5  C   UNL     1      98.864 127.580  82.986  0.00  0.00    +0.000 A 
ATOM      6  C   UNL     1      99.204 128.732  83.686  0.00  0.00    +0.000 A 
ATOM      7  C   UNL     1     100.547 129.073  83.810  0.00  0.00    +0.000 A 
ATOM      8  C   UNL     1     101.541 128.273  83.241  0.00  0.00    +0.000 A 
ATOM      9 BR   UNL     1     101.031 130.636  84.758  0.00  0.00    +0.000 Br
ATOM     10  F   UNL     1      97.573 127.244  82.861  0.00  0.00    +0.000 F 
ENDBRANCH   2   3
BRANCH   1  14
ATOM     11  C   UNL     1     106.511 124.537  78.205  0.00  0.00    +0.000 C 
ATOM     12  C   UNL     1     105.595 124.363  79.366  0.00  0.00    +0.000 A 
ATOM     13  N   UNL     1     104.721 125.262  79.765  0.00  0.00    +0.000 NA
ATOM     14  C   UNL     1     104.041 124.781  80.862  0.00  0.00    +0.000 A 
ATOM     15  C   UNL     1     104.396 123.525  81.294  0.00  0.00    +0.000 A 
ATOM     16  S   UNL     1     105.638 122.909  80.286  0.00  0.00    +0.000 S 
ENDBRANCH   1  14
TORSDOF 2
ENDMDL
