MODEL 1
REMARK VINA RESULT:      -4.3      0.000      0.000
REMARK  Name = *****
REMARK  4 active torsions:
REMARK  status: ('A' for Active; 'I' for Inactive)
REMARK    1  A    between atoms: C_4  and  C_7
REMARK    2  A    between atoms: C_7  and  N_8
REMARK    3  A    between atoms: N_8  and  C_9
REMARK    4  A    between atoms: C_9  and  C_10
REMARK                            x       y       z     vdW  Elec       q    Type
REMARK                         _______ _______ _______ _____ _____    ______ ____
ROOT
ATOM      1  N   UNL     1     103.527 125.109  80.125  0.00  0.00    +0.000 NA
ENDROOT
BRANCH   1   2
ATOM      2  C   UNL     1     103.538 126.346  80.484  0.00  0.00    +0.000 C 
BRANCH   2   6
ATOM      3  C   UNL     1     101.353 127.765  83.860  0.00  0.00    +0.000 A 
ATOM      4  C   UNL     1     100.985 126.562  83.256  0.00  0.00    +0.000 A 
ATOM      5  C   UNL     1     101.693 126.090  82.151  0.00  0.00    +0.000 A 
ATOM      6  C   UNL     1     102.771 126.825  81.651  0.00  0.00    +0.000 A 
ATOM      7  C   UNL     1     103.142 128.031  82.254  0.00  0.00    +0.000 A 
ATOM      8  C   UNL     1     102.430 128.498  83.361  0.00  0.00    +0.000 A 
ENDBRANCH   2   6
ENDBRANCH   1   2
BRANCH   1   9
ATOM      9  C   UNL     1     104.814 124.425  80.289  0.00  0.00    +0.000 C 
BRANCH   9  10
ATOM     10  C   UNL     1     104.685 123.228  81.203  0.00  0.00    +0.000 A 
ATOM     11  C   UNL     1     104.540 123.410  82.588  0.00  0.00    +0.000 A 
ATOM     12  C   UNL     1     104.412 122.310  83.437  0.00  0.00    +0.000 A 
ATOM     13  C   UNL     1     104.427 121.027  82.903  0.00  0.00    +0.000 A 
ATOM     14  C   UNL     1     104.568 120.824  81.535  0.00  0.00    +0.000 A 
ATOM     15  C   UNL     1     104.695 121.923  80.684  0.00  0.00    +0.000 A 
ATOM     16  F   UNL     1     104.304 119.971  83.717  0.00  0.00    +0.000 F 
ENDBRANCH   9  10
ENDBRANCH   1   9
TORSDOF 4
ENDMDL
