MODEL 1
REMARK VINA RESULT:      -4.4      0.000      0.000
REMARK  Name = *****
REMARK  5 active torsions:
REMARK  status: ('A' for Active; 'I' for Inactive)
REMARK    1  A    between atoms: C_2  and  C_3
REMARK    2  A    between atoms: C_6  and  O_9
REMARK    3  A    between atoms: O_9  and  C_10
REMARK    4  A    between atoms: C_10  and  O_12
REMARK    5  A    between atoms: O_12  and  C_13
REMARK                            x       y       z     vdW  Elec       q    Type
REMARK                         _______ _______ _______ _____ _____    ______ ____
ROOT
ATOM      1  C   UNL     1      89.811  68.656  85.373  0.00  0.00    +0.000 C 
ATOM      2  O   UNL     1      89.372  68.317  84.281  0.00  0.00    +0.000 OA
ENDROOT
BRANCH   1   3
ATOM      3  O   UNL     1      89.922  69.953  85.852  0.00  0.00    +0.000 OA
BRANCH   3   7
ATOM      4  C   UNL     1      86.306  71.362  87.424  0.00  0.00    +0.000 A 
ATOM      5  C   UNL     1      86.560  71.452  86.047  0.00  0.00    +0.000 A 
ATOM      6  C   UNL     1      87.765  70.991  85.512  0.00  0.00    +0.000 A 
ATOM      7  C   UNL     1      88.730  70.464  86.366  0.00  0.00    +0.000 A 
ATOM      8  C   UNL     1      88.500  70.360  87.736  0.00  0.00    +0.000 A 
ATOM      9  C   UNL     1      87.292  70.821  88.263  0.00  0.00    +0.000 A 
BRANCH   4  11
ATOM     10  C   UNL     1      84.132  72.551  87.213  0.00  0.00    +0.000 C 
ATOM     11  C   UNL     1      85.037  71.889  87.945  0.00  0.00    +0.000 C 
ENDBRANCH   4  11
ENDBRANCH   3   7
ENDBRANCH   1   3
BRANCH   1  12
ATOM     12  O   UNL     1      90.294  67.808  86.361  0.00  0.00    +0.000 OA
BRANCH  12  13
ATOM     13  C   UNL     1      89.534  66.659  86.618  0.00  0.00    +0.000 A 
ATOM     14  C   UNL     1      88.295  66.734  87.256  0.00  0.00    +0.000 A 
ATOM     15  C   UNL     1      87.547  65.570  87.436  0.00  0.00    +0.000 A 
ATOM     16  C   UNL     1      88.036  64.351  86.961  0.00  0.00    +0.000 A 
ATOM     17  C   UNL     1      89.266  64.287  86.302  0.00  0.00    +0.000 A 
ATOM     18  C   UNL     1      90.017  65.449  86.122  0.00  0.00    +0.000 A 
ATOM     19 CL   UNL     1      87.110  62.918  87.179  0.00  0.00    +0.000 Cl
ENDBRANCH  12  13
ENDBRANCH   1  12
TORSDOF 5
ENDMDL
