REMARK  Name = *****
REMARK  5 active torsions:
REMARK  status: ('A' for Active; 'I' for Inactive)
REMARK    1  A    between atoms: C_1  and  C_2
REMARK    2  A    between atoms: C_3  and  C_18
REMARK    3  A    between atoms: C_5  and  O_8
REMARK    4  A    between atoms: O_8  and  C_9
REMARK    5  A    between atoms: C_9  and  C_11
REMARK                            x       y       z     vdW  Elec       q    Type
REMARK                         _______ _______ _______ _____ _____    ______ ____
ROOT
ATOM      1  O   UNL     1      -3.196  -1.235  -0.179  0.00  0.00    +0.000 OA
ENDROOT
BRANCH   1   6
ATOM      2  C   UNL     1       1.842   1.425  -0.120  0.00  0.00    +0.000 C 
ATOM      3  C   UNL     1       0.518   0.711  -0.128  0.00  0.00    +0.000 A 
ATOM      4  C   UNL     1       0.435  -0.687   0.052  0.00  0.00    +0.000 A 
ATOM      5  C   UNL     1      -0.824  -1.306   0.041  0.00  0.00    +0.000 A 
ATOM      6  C   UNL     1      -1.979  -0.543  -0.121  0.00  0.00    +0.000 A 
ATOM      7  C   UNL     1      -1.908   0.832  -0.315  0.00  0.00    +0.000 A 
ATOM      8  C   UNL     1      -0.661   1.456  -0.307  0.00  0.00    +0.000 A 
ATOM      9  C   UNL     1       1.667  -1.531   0.234  0.00  0.00    +0.000 C 
ENDBRANCH   1   6
BRANCH   1  10
ATOM     10  C   UNL     1      -4.170  -0.846   0.720  0.00  0.00    +0.000 C 
ATOM     11  O   UNL     1      -4.149   0.079   1.516  0.00  0.00    +0.000 OA
BRANCH  10  12
ATOM     12  C   UNL     1      -5.370  -1.666   0.477  0.00  0.00    +0.000 A 
ATOM     13  C   UNL     1      -6.568  -0.980   0.226  0.00  0.00    +0.000 A 
ATOM     14  C   UNL     1      -7.744  -1.691  -0.019  0.00  0.00    +0.000 A 
ATOM     15  C   UNL     1      -7.729  -3.084  -0.003  0.00  0.00    +0.000 A 
ATOM     16  C   UNL     1      -6.542  -3.769   0.269  0.00  0.00    +0.000 A 
ATOM     17  C   UNL     1      -5.359  -3.064   0.516  0.00  0.00    +0.000 A 
ATOM     18 CL   UNL     1      -3.952  -3.983   0.914  0.00  0.00    +0.000 Cl
ENDBRANCH  10  12
ENDBRANCH   1  10
TORSDOF 3
