MODEL 1
REMARK VINA RESULT:      -4.4      0.000      0.000
REMARK  Name = *****
REMARK  3 active torsions:
REMARK  status: ('A' for Active; 'I' for Inactive)
REMARK    1  A    between atoms: C_4  and  C_7
REMARK    2  A    between atoms: C_7  and  C_8
REMARK    3  A    between atoms: N_9  and  C_10
REMARK                            x       y       z     vdW  Elec       q    Type
REMARK                         _______ _______ _______ _____ _____    ______ ____
ROOT
ATOM      1  C   UNL     1      88.424  72.235  83.935  0.00  0.00    +0.000 C 
ATOM      2  N   UNL     1      89.533  71.876  84.503  0.00  0.00    +0.000 NA
ATOM      3 CL   UNL     1      88.418  73.806  83.218  0.00  0.00    +0.000 Cl
ENDROOT
BRANCH   2   4
ATOM      4  C   UNL     1      89.622  70.619  85.109  0.00  0.00    +0.000 A 
ATOM      5  C   UNL     1      89.877  69.479  84.342  0.00  0.00    +0.000 A 
ATOM      6  C   UNL     1      89.985  68.227  84.953  0.00  0.00    +0.000 A 
ATOM      7  C   UNL     1      89.857  68.113  86.336  0.00  0.00    +0.000 A 
ATOM      8  C   UNL     1      89.630  69.250  87.110  0.00  0.00    +0.000 A 
ATOM      9  C   UNL     1      89.524  70.501  86.497  0.00  0.00    +0.000 A 
ENDBRANCH   2   4
BRANCH   1  10
ATOM     10  C   UNL     1      87.133  71.457  83.802  0.00  0.00    +0.000 C 
BRANCH  10  14
ATOM     11  C   UNL     1      84.116  72.575  86.683  0.00  0.00    +0.000 A 
ATOM     12  C   UNL     1      85.276  71.930  87.107  0.00  0.00    +0.000 A 
ATOM     13  C   UNL     1      86.255  71.567  86.179  0.00  0.00    +0.000 A 
ATOM     14  C   UNL     1      86.079  71.841  84.815  0.00  0.00    +0.000 A 
ATOM     15  C   UNL     1      84.912  72.501  84.404  0.00  0.00    +0.000 A 
ATOM     16  C   UNL     1      83.934  72.862  85.333  0.00  0.00    +0.000 A 
ENDBRANCH  10  14
ENDBRANCH   1  10
TORSDOF 3
ENDMDL
