MODEL 1
REMARK VINA RESULT:      -4.7      0.000      0.000
REMARK  Name = *****
REMARK  4 active torsions:
REMARK  status: ('A' for Active; 'I' for Inactive)
REMARK    1  A    between atoms: C_1  and  C_2
REMARK    2  A    between atoms: C_4  and  C_9
REMARK    3  A    between atoms: C_9  and  O_11
REMARK    4  A    between atoms: O_11  and  C_12
REMARK                            x       y       z     vdW  Elec       q    Type
REMARK                         _______ _______ _______ _____ _____    ______ ____
ROOT
ATOM      1  C   UNL     1     101.815 126.062  82.658  0.00  0.00    +0.000 C 
ATOM      2  O   UNL     1     102.259 125.317  83.516  0.00  0.00    +0.000 OA
ENDROOT
BRANCH   1   6
ATOM      3  C   UNL     1     101.141 130.617  84.610  0.00  0.00    +0.000 C 
ATOM      4  C   UNL     1     100.608 129.422  83.877  0.00  0.00    +0.000 A 
ATOM      5  C   UNL     1     101.441 128.330  83.596  0.00  0.00    +0.000 A 
ATOM      6  C   UNL     1     100.947 127.204  82.944  0.00  0.00    +0.000 A 
ATOM      7  C   UNL     1      99.605 127.150  82.588  0.00  0.00    +0.000 A 
ATOM      8  C   UNL     1      98.756 128.218  82.872  0.00  0.00    +0.000 A 
ATOM      9  C   UNL     1      99.255 129.351  83.519  0.00  0.00    +0.000 A 
ATOM     10  F   UNL     1      99.104 126.087  81.944  0.00  0.00    +0.000 F 
ATOM     11  F   UNL     1     102.726 128.376  83.983  0.00  0.00    +0.000 F 
ENDBRANCH   1   6
BRANCH   1  12
ATOM     12  O   UNL     1     101.965 125.983  81.288  0.00  0.00    +0.000 OA
BRANCH  12  13
ATOM     13  C   UNL     1     103.301 126.051  80.887  0.00  0.00    +0.000 A 
ATOM     14  C   UNL     1     103.924 124.919  80.373  0.00  0.00    +0.000 A 
ATOM     15  C   UNL     1     105.238 125.028  79.935  0.00  0.00    +0.000 A 
ATOM     16  C   UNL     1     105.918 126.243  79.993  0.00  0.00    +0.000 A 
ATOM     17  C   UNL     1     105.273 127.376  80.493  0.00  0.00    +0.000 A 
ATOM     18  C   UNL     1     103.953 127.283  80.936  0.00  0.00    +0.000 A 
ATOM     19  F   UNL     1     105.860 123.950  79.440  0.00  0.00    +0.000 F 
ENDBRANCH  12  13
ENDBRANCH   1  12
TORSDOF 3
ENDMDL
