MODEL 1
REMARK VINA RESULT:      -4.8      0.000      0.000
REMARK  Name = *****
REMARK  6 active torsions:
REMARK  status: ('A' for Active; 'I' for Inactive)
REMARK    1  A    between atoms: C_1  and  C_2
REMARK    2  A    between atoms: C_4  and  C_8
REMARK    3  A    between atoms: C_8  and  O_10
REMARK    4  A    between atoms: O_10  and  C_11
REMARK    5  A    between atoms: C_12  and  C_18
REMARK    6  A    between atoms: C_15  and  C_17
REMARK                            x       y       z     vdW  Elec       q    Type
REMARK                         _______ _______ _______ _____ _____    ______ ____
ROOT
ATOM      1  C   UNL     1      89.234  68.799  86.380  0.00  0.00    +0.000 C 
ATOM      2  O   UNL     1      90.289  68.190  86.483  0.00  0.00    +0.000 OA
ENDROOT
BRANCH   1   6
ATOM      3  C   UNL     1      88.670  71.956  90.211  0.00  0.00    +0.000 C 
ATOM      4  C   UNL     1      88.160  70.797  89.406  0.00  0.00    +0.000 A 
ATOM      5  C   UNL     1      88.878  70.334  88.294  0.00  0.00    +0.000 A 
ATOM      6  C   UNL     1      88.427  69.231  87.555  0.00  0.00    +0.000 A 
ATOM      7  C   UNL     1      87.247  68.581  87.943  0.00  0.00    +0.000 A 
ATOM      8  C   UNL     1      86.537  69.028  89.059  0.00  0.00    +0.000 A 
ATOM      9  C   UNL     1      86.993  70.126  89.788  0.00  0.00    +0.000 A 
ENDBRANCH   1   6
BRANCH   1  10
ATOM     10  O   UNL     1      88.606  69.193  85.214  0.00  0.00    +0.000 OA
BRANCH  10  11
ATOM     11  C   UNL     1      89.103  70.385  84.673  0.00  0.00    +0.000 A 
ATOM     12  C   UNL     1      88.273  71.510  84.621  0.00  0.00    +0.000 A 
ATOM     13  C   UNL     1      88.782  72.678  84.041  0.00  0.00    +0.000 A 
ATOM     14  C   UNL     1      90.074  72.702  83.504  0.00  0.00    +0.000 A 
ATOM     15  C   UNL     1      90.880  71.557  83.526  0.00  0.00    +0.000 A 
ATOM     16  C   UNL     1      90.387  70.392  84.123  0.00  0.00    +0.000 A 
ATOM     17  C   UNL     1      92.276  71.601  82.979  0.00  0.00    +0.000 C 
ATOM     18  C   UNL     1      86.891  71.487  85.203  0.00  0.00    +0.000 C 
ENDBRANCH  10  11
ENDBRANCH   1  10
TORSDOF 3
ENDMDL
