MODEL 1
REMARK VINA RESULT:      -5.0      0.000      0.000
REMARK  Name = *****
REMARK  4 active torsions:
REMARK  status: ('A' for Active; 'I' for Inactive)
REMARK    1  A    between atoms: C_1  and  C_2
REMARK    2  A    between atoms: C_5  and  C_8
REMARK    3  A    between atoms: C_8  and  O_10
REMARK    4  A    between atoms: O_10  and  C_11
REMARK                            x       y       z     vdW  Elec       q    Type
REMARK                         _______ _______ _______ _____ _____    ______ ____
ROOT
ATOM      1  C   UNL     1     103.416 127.420  82.280  0.00  0.00    +0.000 C 
ATOM      2  O   UNL     1     103.700 128.407  81.617  0.00  0.00    +0.000 OA
ENDROOT
BRANCH   1   7
ATOM      3  C   UNL     1     104.928 122.076  80.598  0.00  0.00    +0.000 C 
ATOM      4  C   UNL     1     104.564 123.459  81.052  0.00  0.00    +0.000 A 
ATOM      5  C   UNL     1     104.283 123.710  82.400  0.00  0.00    +0.000 A 
ATOM      6  C   UNL     1     103.911 124.991  82.822  0.00  0.00    +0.000 A 
ATOM      7  C   UNL     1     103.807 126.036  81.894  0.00  0.00    +0.000 A 
ATOM      8  C   UNL     1     104.074 125.780  80.543  0.00  0.00    +0.000 A 
ATOM      9  C   UNL     1     104.444 124.500  80.124  0.00  0.00    +0.000 A 
ENDBRANCH   1   7
BRANCH   1  10
ATOM     10  O   UNL     1     102.706 127.395  83.467  0.00  0.00    +0.000 OA
BRANCH  10  11
ATOM     11  C   UNL     1     101.350 127.691  83.315  0.00  0.00    +0.000 A 
ATOM     12  C   UNL     1     100.521 126.723  82.752  0.00  0.00    +0.000 A 
ATOM     13  C   UNL     1      99.180 127.028  82.551  0.00  0.00    +0.000 A 
ATOM     14  C   UNL     1      98.666 128.275  82.888  0.00  0.00    +0.000 A 
ATOM     15  C   UNL     1      99.518 129.229  83.432  0.00  0.00    +0.000 A 
ATOM     16  C   UNL     1     100.865 128.956  83.644  0.00  0.00    +0.000 A 
ATOM     17  F   UNL     1      99.035 130.438  83.748  0.00  0.00    +0.000 F 
ATOM     18  F   UNL     1      98.369 126.107  82.014  0.00  0.00    +0.000 F 
ENDBRANCH  10  11
ENDBRANCH   1  10
TORSDOF 3
ENDMDL
