MODEL 1
REMARK VINA RESULT:      -4.8      0.000      0.000
REMARK  Name = *****
REMARK  6 active torsions:
REMARK  status: ('A' for Active; 'I' for Inactive)
REMARK    1  A    between atoms: C_1  and  C_2
REMARK    2  A    between atoms: C_3  and  C_19
REMARK    3  A    between atoms: C_4  and  C_8
REMARK    4  A    between atoms: C_8  and  C_10
REMARK    5  A    between atoms: C_10  and  C_11
REMARK    6  A    between atoms: C_11  and  C_12
REMARK                            x       y       z     vdW  Elec       q    Type
REMARK                         _______ _______ _______ _____ _____    ______ ____
ROOT
ATOM      1  C   UNL     1      89.439  70.070  86.536  0.00  0.00    +0.000 C 
ATOM      2  O   UNL     1      90.064  70.847  85.818  0.00  0.00    +0.000 OA
ENDROOT
BRANCH   1   6
ATOM      3  C   UNL     1      84.800  72.008  87.567  0.00  0.00    +0.000 C 
ATOM      4  C   UNL     1      86.154  71.486  87.976  0.00  0.00    +0.000 A 
ATOM      5  C   UNL     1      87.136  71.097  87.025  0.00  0.00    +0.000 A 
ATOM      6  C   UNL     1      88.375  70.575  87.485  0.00  0.00    +0.000 A 
ATOM      7  C   UNL     1      88.616  70.497  88.869  0.00  0.00    +0.000 A 
ATOM      8  C   UNL     1      87.658  70.910  89.790  0.00  0.00    +0.000 A 
ATOM      9  C   UNL     1      86.436  71.396  89.347  0.00  0.00    +0.000 A 
ATOM     10  C   UNL     1      86.846  71.227  85.548  0.00  0.00    +0.000 C 
ENDBRANCH   1   6
BRANCH   1  11
ATOM     11  C   UNL     1      89.691  68.571  86.457  0.00  0.00    +0.000 C 
BRANCH  11  12
ATOM     12  C   UNL     1      88.436  67.801  86.043  0.00  0.00    +0.000 C 
BRANCH  12  13
ATOM     13  C   UNL     1      87.953  66.903  87.158  0.00  0.00    +0.000 A 
ATOM     14  C   UNL     1      86.885  67.306  87.975  0.00  0.00    +0.000 A 
ATOM     15  C   UNL     1      86.451  66.491  89.020  0.00  0.00    +0.000 A 
ATOM     16  C   UNL     1      87.085  65.276  89.251  0.00  0.00    +0.000 A 
ATOM     17  C   UNL     1      88.147  64.862  88.455  0.00  0.00    +0.000 A 
ATOM     18  C   UNL     1      88.584  65.676  87.409  0.00  0.00    +0.000 A 
ATOM     19  F   UNL     1      86.670  64.495  90.256  0.00  0.00    +0.000 F 
ENDBRANCH  12  13
ENDBRANCH  11  12
ENDBRANCH   1  11
TORSDOF 4
ENDMDL
