MODEL 1
REMARK VINA RESULT:      -4.6      0.000      0.000
REMARK  Name = *****
REMARK  4 active torsions:
REMARK  status: ('A' for Active; 'I' for Inactive)
REMARK    1  A    between atoms: C_4  and  C_7
REMARK    2  A    between atoms: C_7  and  C_9
REMARK    3  A    between atoms: C_9  and  C_10
REMARK    4  A    between atoms: C_15  and  C_16
REMARK                            x       y       z     vdW  Elec       q    Type
REMARK                         _______ _______ _______ _____ _____    ______ ____
ROOT
ATOM      1  C   UNL     1      86.717  71.299  86.527  0.00  0.00    +0.000 A 
ATOM      2  C   UNL     1      85.528  71.904  86.075  0.00  0.00    +0.000 A 
ATOM      3  C   UNL     1      84.539  72.311  86.970  0.00  0.00    +0.000 A 
ATOM      4  C   UNL     1      84.723  72.137  88.335  0.00  0.00    +0.000 A 
ATOM      5  C   UNL     1      85.905  71.571  88.808  0.00  0.00    +0.000 A 
ATOM      6  C   UNL     1      86.920  71.159  87.922  0.00  0.00    +0.000 A 
ENDROOT
BRANCH   6   7
ATOM      7  C   UNL     1      88.195  70.579  88.496  0.00  0.00    +0.000 C 
ATOM      8  F   UNL     1      88.179  69.218  88.548  0.00  0.00    +0.000 F 
ATOM      9  F   UNL     1      89.317  70.908  87.798  0.00  0.00    +0.000 F 
ATOM     10  F   UNL     1      88.421  70.998  89.774  0.00  0.00    +0.000 F 
ENDBRANCH   6   7
BRANCH   1  11
ATOM     11  C   UNL     1      87.776  70.895  85.515  0.00  0.00    +0.000 C 
BRANCH  11  12
ATOM     12  C   UNL     1      87.579  69.515  84.911  0.00  0.00    +0.000 C 
ATOM     13  O   UNL     1      86.852  69.357  83.928  0.00  0.00    +0.000 OA
BRANCH  12  17
ATOM     14  C   UNL     1      89.385  66.041  86.693  0.00  0.00    +0.000 A 
ATOM     15  C   UNL     1      90.201  67.076  86.239  0.00  0.00    +0.000 A 
ATOM     16  C   UNL     1      89.636  68.214  85.656  0.00  0.00    +0.000 A 
ATOM     17  C   UNL     1      88.247  68.323  85.523  0.00  0.00    +0.000 A 
ATOM     18  C   UNL     1      87.435  67.274  85.980  0.00  0.00    +0.000 A 
ATOM     19  C   UNL     1      88.002  66.139  86.564  0.00  0.00    +0.000 A 
ENDBRANCH  12  17
ENDBRANCH  11  12
ENDBRANCH   1  11
TORSDOF 4
ENDMDL
