MODEL 1
REMARK VINA RESULT:      -4.7      0.000      0.000
REMARK  Name = *****
REMARK  1 active torsions:
REMARK  status: ('A' for Active; 'I' for Inactive)
REMARK    1  A    between atoms: C_9  and  C_11
REMARK                            x       y       z     vdW  Elec       q    Type
REMARK                         _______ _______ _______ _____ _____    ______ ____
ROOT
ATOM      1  C   UNL     1      99.514 130.754  83.874  0.00  0.00    +0.000 C 
ATOM      2  C   UNL     1     100.864 130.596  84.565  0.00  0.00    +0.000 C 
ATOM      3  C   UNL     1     100.894 129.355  85.457  0.00  0.00    +0.000 C 
ATOM      4  C   UNL     1     100.502 128.086  84.697  0.00  0.00    +0.000 C 
ATOM      5  C   UNL     1      99.168 128.248  83.982  0.00  0.00    +0.000 C 
ATOM      6  C   UNL     1      99.133 129.501  83.090  0.00  0.00    +0.000 C 
ATOM      7  C   UNL     1      98.933 126.974  83.185  0.00  0.00    +0.000 C 
ATOM      8  N   UNL     1     100.072 126.626  82.344  0.00  0.00    +0.000 NA
ATOM      9  C   UNL     1     101.244 127.035  82.676  0.00  0.00    +0.000 C 
ATOM     10  O   UNL     1     101.551 127.780  83.763  0.00  0.00    +0.000 OA
ENDROOT
BRANCH   9  11
ATOM     11  C   UNL     1     102.456 126.756  81.861  0.00  0.00    +0.000 A 
ATOM     12  C   UNL     1     102.743 125.429  81.509  0.00  0.00    +0.000 A 
ATOM     13  C   UNL     1     103.864 125.128  80.731  0.00  0.00    +0.000 A 
ATOM     14  C   UNL     1     104.702 126.155  80.300  0.00  0.00    +0.000 A 
ATOM     15  C   UNL     1     104.430 127.478  80.642  0.00  0.00    +0.000 A 
ATOM     16  C   UNL     1     103.309 127.780  81.423  0.00  0.00    +0.000 A 
ATOM     17 CL   UNL     1     106.077 125.787  79.335  0.00  0.00    +0.000 Cl
ENDBRANCH   9  11
TORSDOF 1
ENDMDL
