MODEL 1
REMARK VINA RESULT:      -4.4      0.000      0.000
REMARK  Name = *****
REMARK  3 active torsions:
REMARK  status: ('A' for Active; 'I' for Inactive)
REMARK    1  A    between atoms: C_4  and  C_8
REMARK    2  A    between atoms: C_8  and  C_9
REMARK    3  A    between atoms: C_10  and  C_11
REMARK                            x       y       z     vdW  Elec       q    Type
REMARK                         _______ _______ _______ _____ _____    ______ ____
ROOT
ATOM      1  C   UNL     1     103.688 124.997  80.819  0.00  0.00    +0.000 C 
ENDROOT
BRANCH   1   5
ATOM      2  C   UNL     1     106.527 122.381  80.587  0.00  0.00    +0.000 C 
ATOM      3  C   UNL     1     106.479 123.585  79.654  0.00  0.00    +0.000 C 
ATOM      4  S   UNL     1     106.520 125.158  80.555  0.00  0.00    +0.000 S 
ATOM      5  C   UNL     1     105.020 124.972  81.594  0.00  0.00    +0.000 C 
ATOM      6  S   UNL     1     105.160 123.528  82.713  0.00  0.00    +0.000 S 
ATOM      7  O   UNL     1     103.849 123.347  83.421  0.00  0.00    +0.000 OA
ATOM      8  C   UNL     1     105.286 122.234  81.452  0.00  0.00    +0.000 C 
ENDBRANCH   1   5
BRANCH   1   9
ATOM      9  C   UNL     1     102.749 126.087  81.270  0.00  0.00    +0.000 C 
ATOM     10  C   UNL     1     101.840 125.931  82.246  0.00  0.00    +0.000 C 
BRANCH  10  11
ATOM     11  C   UNL     1     100.925 126.994  82.677  0.00  0.00    +0.000 A 
ATOM     12  C   UNL     1     101.387 128.152  83.315  0.00  0.00    +0.000 A 
ATOM     13  C   UNL     1     100.495 129.162  83.686  0.00  0.00    +0.000 A 
ATOM     14  C   UNL     1      99.136 129.027  83.414  0.00  0.00    +0.000 A 
ATOM     15  C   UNL     1      98.667 127.885  82.766  0.00  0.00    +0.000 A 
ATOM     16  C   UNL     1      99.559 126.876  82.394  0.00  0.00    +0.000 A 
ENDBRANCH  10  11
ENDBRANCH   1   9
TORSDOF 3
ENDMDL
