MODEL 1
REMARK VINA RESULT:      -4.9      0.000      0.000
REMARK  Name = *****
REMARK  2 active torsions:
REMARK  status: ('A' for Active; 'I' for Inactive)
REMARK    1  A    between atoms: C_6  and  C_7
REMARK    2  A    between atoms: C_8  and  C_9
REMARK                            x       y       z     vdW  Elec       q    Type
REMARK                         _______ _______ _______ _____ _____    ______ ____
ROOT
ATOM      1  C   UNL     1     101.563 127.040  82.680  0.00  0.00    +0.000 A 
ATOM      2  C   UNL     1     100.173 127.027  82.500  0.00  0.00    +0.000 A 
ATOM      3  C   UNL     1      99.367 128.043  83.016  0.00  0.00    +0.000 A 
ATOM      4  C   UNL     1      99.927 129.093  83.735  0.00  0.00    +0.000 A 
ATOM      5  C   UNL     1     101.302 129.113  83.940  0.00  0.00    +0.000 A 
ATOM      6  C   UNL     1     102.106 128.097  83.424  0.00  0.00    +0.000 A 
ATOM      7  F   UNL     1     103.429 128.146  83.645  0.00  0.00    +0.000 F 
ATOM      8  F   UNL     1     101.872 130.107  84.637  0.00  0.00    +0.000 F 
ATOM      9 CL   UNL     1      98.932 130.344  84.371  0.00  0.00    +0.000 Cl
ATOM     10  F   UNL     1      98.042 127.988  82.814  0.00  0.00    +0.000 F 
ATOM     11  F   UNL     1      99.581 126.022  81.837  0.00  0.00    +0.000 F 
ENDROOT
BRANCH   1  13
ATOM     12  C   UNL     1     103.274 126.107  81.122  0.00  0.00    +0.000 C 
ATOM     13  C   UNL     1     102.462 125.984  82.184  0.00  0.00    +0.000 C 
BRANCH  12  19
ATOM     14  C   UNL     1     104.223 123.784  81.253  0.00  0.00    +0.000 A 
ATOM     15  C   UNL     1     105.121 122.849  80.760  0.00  0.00    +0.000 A 
ATOM     16  N   UNL     1     105.956 123.082  79.728  0.00  0.00    +0.000 NA
ATOM     17  C   UNL     1     105.899 124.308  79.167  0.00  0.00    +0.000 A 
ATOM     18  C   UNL     1     105.038 125.309  79.590  0.00  0.00    +0.000 A 
ATOM     19  C   UNL     1     104.168 125.041  80.648  0.00  0.00    +0.000 A 
ENDBRANCH  12  19
ENDBRANCH   1  13
TORSDOF 2
ENDMDL
