REMARK  Name = *****
REMARK  6 active torsions:
REMARK  status: ('A' for Active; 'I' for Inactive)
REMARK    1  A    between atoms: C_1  and  C_2
REMARK    2  A    between atoms: C_2  and  N_3
REMARK    3  A    between atoms: N_3  and  C_4
REMARK    4  A    between atoms: C_4  and  C_5
REMARK    5  A    between atoms: C_4  and  C_12
REMARK    6  A    between atoms: C_5  and  C_6
REMARK                            x       y       z     vdW  Elec       q    Type
REMARK                         _______ _______ _______ _____ _____    ______ ____
ROOT
ATOM      1  C   UNL     1       4.265  -1.196  -0.503  0.00  0.00    +0.000 C 
ENDROOT
BRANCH   1   2
ATOM      2  C   UNL     1       4.878  -2.215  -1.455  0.00  0.00    +0.000 A 
ATOM      3  C   UNL     1       5.909  -1.835  -2.327  0.00  0.00    +0.000 A 
ATOM      4  C   UNL     1       6.488  -2.767  -3.191  0.00  0.00    +0.000 A 
ATOM      5  C   UNL     1       6.046  -4.089  -3.190  0.00  0.00    +0.000 A 
ATOM      6  C   UNL     1       5.026  -4.481  -2.326  0.00  0.00    +0.000 A 
ATOM      7  C   UNL     1       4.447  -3.551  -1.461  0.00  0.00    +0.000 A 
ENDBRANCH   1   2
BRANCH   1   8
ATOM      8  N   UNL     1       2.792  -1.341  -0.427  0.00  0.00    +0.000 NA
BRANCH   8  10
ATOM      9  C   UNL     1       0.663  -0.748  -1.409  0.00  0.00    +0.000 C 
ATOM     10  C   UNL     1       2.158  -0.710  -1.352  0.00  0.00    +0.000 C 
ENDBRANCH   8  10
ENDBRANCH   1   8
BRANCH   1  11
ATOM     11  C   UNL     1       4.859  -1.374   0.913  0.00  0.00    +0.000 C 
BRANCH  11  12
ATOM     12  C   UNL     1       4.589  -0.190   1.816  0.00  0.00    +0.000 A 
ATOM     13  C   UNL     1       3.413  -0.130   2.574  0.00  0.00    +0.000 A 
ATOM     14  C   UNL     1       3.155   0.968   3.396  0.00  0.00    +0.000 A 
ATOM     15  C   UNL     1       4.068   2.018   3.465  0.00  0.00    +0.000 A 
ATOM     16  C   UNL     1       5.239   1.972   2.710  0.00  0.00    +0.000 A 
ATOM     17  C   UNL     1       5.499   0.874   1.888  0.00  0.00    +0.000 A 
ENDBRANCH  11  12
ENDBRANCH   1  11
TORSDOF 5
