MODEL 1
REMARK VINA RESULT:      -4.9      0.000      0.000
REMARK  Name = *****
REMARK  3 active torsions:
REMARK  status: ('A' for Active; 'I' for Inactive)
REMARK    1  A    between atoms: C_2  and  C_3
REMARK    2  A    between atoms: C_5  and  C_9
REMARK    3  A    between atoms: C_10  and  C_11
REMARK                            x       y       z     vdW  Elec       q    Type
REMARK                         _______ _______ _______ _____ _____    ______ ____
ROOT
ATOM      1  C   UNL     1     105.606 124.146  79.494  0.00  0.00    +0.000 A 
ATOM      2  C   UNL     1     104.601 124.985  79.980  0.00  0.00    +0.000 A 
ATOM      3  C   UNL     1     103.944 124.670  81.172  0.00  0.00    +0.000 A 
ATOM      4  C   UNL     1     104.292 123.514  81.877  0.00  0.00    +0.000 A 
ATOM      5  C   UNL     1     105.296 122.675  81.391  0.00  0.00    +0.000 A 
ATOM      6  C   UNL     1     105.953 122.991  80.201  0.00  0.00    +0.000 A 
ENDROOT
BRANCH   1   8
ATOM      7  C   UNL     1     106.846 124.736  77.250  0.00  0.00    +0.000 C 
ATOM      8  C   UNL     1     106.280 124.467  78.273  0.00  0.00    +0.000 C 
ENDBRANCH   1   8
BRANCH   3   9
ATOM      9  C   UNL     1     102.916 125.529  81.672  0.00  0.00    +0.000 C 
ATOM     10  C   UNL     1     102.051 126.250  82.093  0.00  0.00    +0.000 C 
BRANCH  10  11
ATOM     11  C   UNL     1     101.019 127.107  82.591  0.00  0.00    +0.000 A 
ATOM     12  C   UNL     1     101.353 128.263  83.299  0.00  0.00    +0.000 A 
ATOM     13  C   UNL     1     100.346 129.100  83.787  0.00  0.00    +0.000 A 
ATOM     14  C   UNL     1      99.006 128.780  83.565  0.00  0.00    +0.000 A 
ATOM     15  C   UNL     1      98.672 127.626  82.857  0.00  0.00    +0.000 A 
ATOM     16  C   UNL     1      99.678 126.789  82.369  0.00  0.00    +0.000 A 
ENDBRANCH  10  11
ENDBRANCH   3   9
TORSDOF 3
ENDMDL
