MODEL 1
REMARK VINA RESULT:      -4.1      0.000      0.000
REMARK  Name = *****
REMARK  3 active torsions:
REMARK  status: ('A' for Active; 'I' for Inactive)
REMARK    1  A    between atoms: C_5  and  C_7
REMARK    2  A    between atoms: C_7  and  S_8
REMARK    3  A    between atoms: S_8  and  C_9
REMARK                            x       y       z     vdW  Elec       q    Type
REMARK                         _______ _______ _______ _____ _____    ______ ____
ROOT
ATOM      1  S   UNL     1      89.109  70.363  86.862  0.00  0.00    +0.000 S 
ENDROOT
BRANCH   1   2
ATOM      2  C   UNL     1      89.079  68.583  86.786  0.00  0.00    +0.000 A 
ATOM      3  C   UNL     1      90.115  67.856  86.190  0.00  0.00    +0.000 A 
ATOM      4  C   UNL     1      90.071  66.458  86.159  0.00  0.00    +0.000 A 
ATOM      5  C   UNL     1      88.993  65.778  86.734  0.00  0.00    +0.000 A 
ATOM      6  C   UNL     1      87.965  66.502  87.343  0.00  0.00    +0.000 A 
ATOM      7  C   UNL     1      88.011  67.898  87.373  0.00  0.00    +0.000 A 
ATOM      8 CL   UNL     1      88.870  64.055  86.730  0.00  0.00    +0.000 Cl
ATOM      9 CL   UNL     1      91.383  65.631  85.396  0.00  0.00    +0.000 Cl
ENDBRANCH   1   2
BRANCH   1  10
ATOM     10  C   UNL     1      88.003  70.641  88.292  0.00  0.00    +0.000 C 
BRANCH  10  15
ATOM     11  C   UNL     1      85.153  72.021  86.200  0.00  0.00    +0.000 A 
ATOM     12  C   UNL     1      84.281  72.405  87.210  0.00  0.00    +0.000 A 
ATOM     13  C   UNL     1      84.667  72.195  88.522  0.00  0.00    +0.000 A 
ATOM     14  N   UNL     1      85.847  71.639  88.879  0.00  0.00    +0.000 NA
ATOM     15  C   UNL     1      86.689  71.262  87.883  0.00  0.00    +0.000 A 
ATOM     16  C   UNL     1      86.374  71.442  86.536  0.00  0.00    +0.000 A 
ENDBRANCH  10  15
ENDBRANCH   1  10
TORSDOF 3
ENDMDL
