MODEL 1
REMARK VINA RESULT:      -4.3      0.000      0.000
REMARK  Name = *****
REMARK  3 active torsions:
REMARK  status: ('A' for Active; 'I' for Inactive)
REMARK    1  A    between atoms: C_1  and  C_2
REMARK    2  A    between atoms: C_5  and  N_7
REMARK    3  A    between atoms: C_9  and  C_12
REMARK                            x       y       z     vdW  Elec       q    Type
REMARK                         _______ _______ _______ _____ _____    ______ ____
ROOT
ATOM      1  N   UNL     1     101.705 126.239  83.645  0.00  0.00    +0.000 N 
ATOM      2  C   UNL     1     102.257 126.189  82.399  0.00  0.00    +0.000 A 
ATOM      3  C   UNL     1     103.168 125.161  82.484  0.00  0.00    +0.000 A 
ATOM      4  N   UNL     1     103.138 124.633  83.748  0.00  0.00    +0.000 NA
ATOM      5  N   UNL     1     102.235 125.303  84.454  0.00  0.00    +0.000 NA
ENDROOT
BRANCH   1  10
ATOM      6  C   UNL     1      98.864 129.717  84.665  0.00  0.00    +0.000 C 
ATOM      7  C   UNL     1      99.560 129.192  83.411  0.00  0.00    +0.000 C 
ATOM      8  C   UNL     1      98.825 128.007  82.788  0.00  0.00    +0.000 C 
ATOM      9  C   UNL     1      99.268 126.800  83.611  0.00  0.00    +0.000 C 
ATOM     10  C   UNL     1     100.679 127.144  84.119  0.00  0.00    +0.000 C 
ATOM     11  C   UNL     1     100.938 128.606  83.718  0.00  0.00    +0.000 C 
ENDBRANCH   1  10
BRANCH   3  12
ATOM     12  C   UNL     1     104.062 124.669  81.401  0.00  0.00    +0.000 A 
ATOM     13  C   UNL     1     104.492 123.361  81.310  0.00  0.00    +0.000 A 
ATOM     14  C   UNL     1     105.339 123.150  80.181  0.00  0.00    +0.000 A 
ATOM     15  C   UNL     1     105.523 124.304  79.452  0.00  0.00    +0.000 A 
ATOM     16  S   UNL     1     104.677 125.630  80.130  0.00  0.00    +0.000 S 
ENDBRANCH   3  12
TORSDOF 2
ENDMDL
