REMARK  Name = *****
REMARK  6 active torsions:
REMARK  status: ('A' for Active; 'I' for Inactive)
REMARK    1  A    between atoms: C_1  and  O_2
REMARK    2  A    between atoms: O_2  and  C_3
REMARK    3  A    between atoms: C_8  and  C_9
REMARK    4  A    between atoms: C_9  and  P_10
REMARK    5  A    between atoms: P_10  and  C_11
REMARK    6  A    between atoms: P_10  and  C_12
REMARK                            x       y       z     vdW  Elec       q    Type
REMARK                         _______ _______ _______ _____ _____    ______ ____
ROOT
ATOM      1  C   UNL     1       4.672   1.522  -0.833  0.00  0.00    +0.000 C 
ENDROOT
BRANCH   1   7
ATOM      2  C   UNL     1       3.879   2.306   1.462  0.00  0.00    +0.000 A 
ATOM      3  C   UNL     1       3.465   2.012   2.767  0.00  0.00    +0.000 A 
ATOM      4  C   UNL     1       3.379   0.689   3.206  0.00  0.00    +0.000 A 
ATOM      5  C   UNL     1       3.710  -0.354   2.348  0.00  0.00    +0.000 A 
ATOM      6  C   UNL     1       4.121  -0.074   1.046  0.00  0.00    +0.000 A 
ATOM      7  C   UNL     1       4.197   1.254   0.576  0.00  0.00    +0.000 A 
BRANCH   2   9
ATOM      8  C   UNL     1       3.771   4.660   1.848  0.00  0.00    +0.000 C 
ATOM      9  O   UNL     1       4.000   3.576   0.958  0.00  0.00    +0.000 OA
ENDBRANCH   2   9
ENDBRANCH   1   7
BRANCH   1  10
ATOM     10  P   UNL     1       3.276   1.049  -1.934  0.00  0.00    +0.000 P 
ATOM     11  C   UNL     1       2.098   2.420  -1.595  0.00  0.00    +0.000 C 
BRANCH  10  12
ATOM     12  C   UNL     1       3.952   1.598  -3.593  0.00  0.00    +0.000 C 
ATOM     13  C   UNL     1       2.869   1.486  -4.682  0.00  0.00    +0.000 C 
ATOM     14  C   UNL     1       3.405   1.876  -6.059  0.00  0.00    +0.000 C 
ATOM     15  C   UNL     1       4.636   1.062  -6.437  0.00  0.00    +0.000 C 
ATOM     16  C   UNL     1       5.716   1.163  -5.367  0.00  0.00    +0.000 C 
ATOM     17  C   UNL     1       5.186   0.769  -3.989  0.00  0.00    +0.000 C 
ENDBRANCH  10  12
ENDBRANCH   1  10
TORSDOF 4
