MODEL 1
REMARK VINA RESULT:      -4.3      0.000      0.000
REMARK  Name = *****
REMARK  3 active torsions:
REMARK  status: ('A' for Active; 'I' for Inactive)
REMARK    1  A    between atoms: C_4  and  O_7
REMARK    2  A    between atoms: O_7  and  C_8
REMARK    3  A    between atoms: C_8  and  C_9
REMARK                            x       y       z     vdW  Elec       q    Type
REMARK                         _______ _______ _______ _____ _____    ______ ____
ROOT
ATOM      1  C   UNL     1     102.628 126.960  83.210  0.00  0.00    +0.000 C 
ENDROOT
BRANCH   1   2
ATOM      2  C   UNL     1     101.212 127.472  83.078  0.00  0.00    +0.000 A 
ATOM      3  C   UNL     1     100.866 128.743  83.558  0.00  0.00    +0.000 A 
ATOM      4  C   UNL     1      99.552 129.190  83.458  0.00  0.00    +0.000 A 
ATOM      5  C   UNL     1      98.562 128.394  82.894  0.00  0.00    +0.000 A 
ATOM      6  C   UNL     1      98.891 127.125  82.421  0.00  0.00    +0.000 A 
ATOM      7  C   UNL     1     100.208 126.666  82.516  0.00  0.00    +0.000 A 
ATOM      8  F   UNL     1      99.234 130.407  83.919  0.00  0.00    +0.000 F 
ENDBRANCH   1   2
BRANCH   1   9
ATOM      9  O   UNL     1     102.604 125.535  83.275  0.00  0.00    +0.000 OA
BRANCH   9  13
ATOM     10  C   UNL     1     105.018 123.657  80.449  0.00  0.00    +0.000 A 
ATOM     11  C   UNL     1     105.008 123.153  81.747  0.00  0.00    +0.000 A 
ATOM     12  C   UNL     1     104.213 123.751  82.731  0.00  0.00    +0.000 A 
ATOM     13  C   UNL     1     103.423 124.857  82.416  0.00  0.00    +0.000 A 
ATOM     14  C   UNL     1     103.440 125.358  81.111  0.00  0.00    +0.000 A 
ATOM     15  C   UNL     1     104.233 124.763  80.130  0.00  0.00    +0.000 A 
ENDBRANCH   9  13
ENDBRANCH   1   9
TORSDOF 3
ENDMDL
