MODEL 1
REMARK VINA RESULT:      -4.8      0.000      0.000
REMARK  Name = *****
REMARK  4 active torsions:
REMARK  status: ('A' for Active; 'I' for Inactive)
REMARK    1  A    between atoms: C_1  and  N_2
REMARK    2  A    between atoms: N_2  and  C_3
REMARK    3  A    between atoms: N_2  and  C_10
REMARK    4  A    between atoms: C_10  and  C_12
REMARK                            x       y       z     vdW  Elec       q    Type
REMARK                         _______ _______ _______ _____ _____    ______ ____
ROOT
ATOM      1  C   UNL     1      89.643  70.689  86.101  0.00  0.00    +0.000 C 
ATOM      2  N   UNL     1      88.786  69.997  87.070  0.00  0.00    +0.000 N 
ENDROOT
BRANCH   2   3
ATOM      3  C   UNL     1      88.848  68.581  86.961  0.00  0.00    +0.000 A 
ATOM      4  C   UNL     1      87.825  67.763  87.471  0.00  0.00    +0.000 A 
ATOM      5  C   UNL     1      87.891  66.371  87.355  0.00  0.00    +0.000 A 
ATOM      6  C   UNL     1      88.985  65.780  86.730  0.00  0.00    +0.000 A 
ATOM      7  C   UNL     1      90.014  66.567  86.222  0.00  0.00    +0.000 A 
ATOM      8  C   UNL     1      89.942  67.959  86.339  0.00  0.00    +0.000 A 
ATOM      9 CL   UNL     1      89.067  64.067  86.587  0.00  0.00    +0.000 Cl
ENDBRANCH   2   3
BRANCH   2  10
ATOM     10  C   UNL     1      88.086  70.676  88.079  0.00  0.00    +0.000 C 
ATOM     11  C   UNL     1      88.479  70.792  89.361  0.00  0.00    +0.000 C 
BRANCH  10  12
ATOM     12  C   UNL     1      86.750  71.259  87.786  0.00  0.00    +0.000 A 
ATOM     13  C   UNL     1      86.329  71.470  86.464  0.00  0.00    +0.000 A 
ATOM     14  C   UNL     1      85.077  72.028  86.199  0.00  0.00    +0.000 A 
ATOM     15  C   UNL     1      84.235  72.385  87.252  0.00  0.00    +0.000 A 
ATOM     16  C   UNL     1      84.645  72.187  88.570  0.00  0.00    +0.000 A 
ATOM     17  C   UNL     1      85.897  71.630  88.836  0.00  0.00    +0.000 A 
ENDBRANCH  10  12
ENDBRANCH   2  10
TORSDOF 3
ENDMDL
