MODEL 1
REMARK VINA RESULT:      -4.8      0.000      0.000
REMARK  Name = *****
REMARK  1 active torsions:
REMARK  status: ('A' for Active; 'I' for Inactive)
REMARK    1  A    between atoms: C_8  and  C_10
REMARK                            x       y       z     vdW  Elec       q    Type
REMARK                         _______ _______ _______ _____ _____    ______ ____
ROOT
ATOM      1  C   UNL     1     105.364 123.023  81.817  0.00  0.00    +0.000 A 
ATOM      2  C   UNL     1     105.281 123.554  80.522  0.00  0.00    +0.000 A 
ATOM      3  C   UNL     1     104.378 124.577  80.209  0.00  0.00    +0.000 A 
ATOM      4  C   UNL     1     103.583 125.020  81.260  0.00  0.00    +0.000 A 
ATOM      5  C   UNL     1     103.633 124.523  82.552  0.00  0.00    +0.000 A 
ATOM      6  C   UNL     1     104.541 123.499  82.850  0.00  0.00    +0.000 A 
ATOM      7  N   UNL     1     102.719 125.177  83.337  0.00  0.00    +0.000 NA
ATOM      8  C   UNL     1     102.150 126.037  82.510  0.00  0.00    +0.000 A 
ATOM      9  O   UNL     1     102.631 125.995  81.224  0.00  0.00    +0.000 OA
ENDROOT
BRANCH   8  10
ATOM     10  C   UNL     1     101.094 127.009  82.782  0.00  0.00    +0.000 A 
ATOM     11  C   UNL     1     101.349 128.212  83.453  0.00  0.00    +0.000 A 
ATOM     12  C   UNL     1     100.313 129.111  83.690  0.00  0.00    +0.000 A 
ATOM     13  C   UNL     1      99.016 128.841  83.273  0.00  0.00    +0.000 A 
ATOM     14  C   UNL     1      98.745 127.650  82.606  0.00  0.00    +0.000 A 
ATOM     15  C   UNL     1      99.779 126.740  82.364  0.00  0.00    +0.000 A 
ATOM     16  F   UNL     1     100.572 130.258  84.331  0.00  0.00    +0.000 F 
ENDBRANCH   8  10
TORSDOF 1
ENDMDL
