MODEL 1
REMARK VINA RESULT:      -4.5      0.000      0.000
REMARK  Name = *****
REMARK  4 active torsions:
REMARK  status: ('A' for Active; 'I' for Inactive)
REMARK    1  A    between atoms: C_1  and  C_2
REMARK    2  A    between atoms: C_4  and  C_8
REMARK    3  A    between atoms: C_8  and  S_10
REMARK    4  A    between atoms: S_10  and  C_11
REMARK                            x       y       z     vdW  Elec       q    Type
REMARK                         _______ _______ _______ _____ _____    ______ ____
ROOT
ATOM      1  C   UNL     1      88.247  69.293  87.592  0.00  0.00    +0.000 C 
ATOM      2  O   UNL     1      87.440  68.390  87.405  0.00  0.00    +0.000 OA
ENDROOT
BRANCH   1   6
ATOM      3  C   UNL     1      90.131  71.960  84.096  0.00  0.00    +0.000 C 
ATOM      4  C   UNL     1      89.947  70.667  84.839  0.00  0.00    +0.000 C 
ATOM      5  C   UNL     1      89.796  70.628  86.175  0.00  0.00    +0.000 C 
ATOM      6  C   UNL     1      89.650  69.356  86.977  0.00  0.00    +0.000 C 
ATOM      7  C   UNL     1      89.944  68.092  86.151  0.00  0.00    +0.000 C 
ATOM      8  C   UNL     1      89.410  68.187  84.723  0.00  0.00    +0.000 C 
ATOM      9  C   UNL     1      89.950  69.417  83.994  0.00  0.00    +0.000 C 
ENDBRANCH   1   6
BRANCH   1  10
ATOM     10  S   UNL     1      87.845  70.656  88.649  0.00  0.00    +0.000 S 
BRANCH  10  11
ATOM     11  C   UNL     1      86.458  71.346  87.767  0.00  0.00    +0.000 A 
ATOM     12  C   UNL     1      86.438  71.407  86.370  0.00  0.00    +0.000 A 
ATOM     13  C   UNL     1      85.336  71.948  85.703  0.00  0.00    +0.000 A 
ATOM     14  C   UNL     1      84.245  72.425  86.429  0.00  0.00    +0.000 A 
ATOM     15  C   UNL     1      84.253  72.356  87.821  0.00  0.00    +0.000 A 
ATOM     16  C   UNL     1      85.354  71.814  88.488  0.00  0.00    +0.000 A 
ENDBRANCH  10  11
ENDBRANCH   1  10
TORSDOF 3
ENDMDL
