MODEL 1
REMARK VINA RESULT:      -4.4      0.000      0.000
REMARK  Name = *****
REMARK  3 active torsions:
REMARK  status: ('A' for Active; 'I' for Inactive)
REMARK    1  A    between atoms: C_1  and  N_2
REMARK    2  A    between atoms: N_2  and  C_3
REMARK    3  A    between atoms: C_9  and  C_11
REMARK                            x       y       z     vdW  Elec       q    Type
REMARK                         _______ _______ _______ _____ _____    ______ ____
ROOT
ATOM      1  C   UNL     1     103.894 124.120  83.566  0.00  0.00    +0.000 C 
ATOM      2  N   UNL     1     104.070 124.357  82.135  0.00  0.00    +0.000 N 
ATOM      3  C   UNL     1     103.297 125.267  81.406  0.00  0.00    +0.000 C 
ATOM      4  O   UNL     1     103.189 125.249  80.183  0.00  0.00    +0.000 OA
ENDROOT
BRANCH   3   5
ATOM      5  C   UNL     1     102.582 126.345  82.124  0.00  0.00    +0.000 A 
ATOM      6  C   UNL     1     103.280 127.446  82.630  0.00  0.00    +0.000 A 
ATOM      7  C   UNL     1     102.575 128.463  83.269  0.00  0.00    +0.000 A 
ATOM      8  C   UNL     1     101.188 128.400  83.391  0.00  0.00    +0.000 A 
ATOM      9  C   UNL     1     100.501 127.310  82.857  0.00  0.00    +0.000 A 
ATOM     10  C   UNL     1     101.189 126.282  82.217  0.00  0.00    +0.000 A 
ATOM     11 CL   UNL     1      98.789 127.234  82.994  0.00  0.00    +0.000 Cl
ATOM     12 CL   UNL     1     103.427 129.812  83.913  0.00  0.00    +0.000 Cl
ENDBRANCH   3   5
BRANCH   2  13
ATOM     13  C   UNL     1     104.914 123.419  81.368  0.00  0.00    +0.000 C 
ATOM     14  C   UNL     1     105.035 122.060  82.077  0.00  0.00    +0.000 C 
ATOM     15  C   UNL     1     105.871 121.075  81.264  0.00  0.00    +0.000 C 
ATOM     16  C   UNL     1     107.240 121.648  80.913  0.00  0.00    +0.000 C 
ATOM     17  C   UNL     1     107.123 122.997  80.206  0.00  0.00    +0.000 C 
ATOM     18  C   UNL     1     106.301 123.988  81.026  0.00  0.00    +0.000 C 
ENDBRANCH   2  13
TORSDOF 2
ENDMDL
