MODEL 1
REMARK VINA RESULT:      -4.5      0.000      0.000
REMARK  Name = *****
REMARK  4 active torsions:
REMARK  status: ('A' for Active; 'I' for Inactive)
REMARK    1  A    between atoms: C_2  and  C_3
REMARK    2  A    between atoms: C_7  and  C_9
REMARK    3  A    between atoms: C_9  and  S_10
REMARK    4  A    between atoms: S_10  and  C_11
REMARK                            x       y       z     vdW  Elec       q    Type
REMARK                         _______ _______ _______ _____ _____    ______ ____
ROOT
ATOM      1  C   UNL     1     100.222 128.825  83.683  0.00  0.00    +0.000 A 
ATOM      2  C   UNL     1      99.245 127.922  83.242  0.00  0.00    +0.000 A 
ATOM      3  C   UNL     1      99.604 126.785  82.515  0.00  0.00    +0.000 A 
ATOM      4  C   UNL     1     100.942 126.540  82.213  0.00  0.00    +0.000 A 
ATOM      5  C   UNL     1     101.938 127.431  82.637  0.00  0.00    +0.000 A 
ATOM      6  C   UNL     1     101.563 128.576  83.361  0.00  0.00    +0.000 A 
ENDROOT
BRANCH   1   8
ATOM      7  C   UNL     1      99.522 131.207  83.837  0.00  0.00    +0.000 C 
ATOM      8  C   UNL     1      99.796 130.027  84.410  0.00  0.00    +0.000 C 
ENDBRANCH   1   8
BRANCH   5   9
ATOM      9  C   UNL     1     103.385 127.182  82.294  0.00  0.00    +0.000 C 
BRANCH   9  10
ATOM     10  S   UNL     1     103.646 127.140  80.491  0.00  0.00    +0.000 S 
BRANCH  10  11
ATOM     11  C   UNL     1     104.394 125.529  80.350  0.00  0.00    +0.000 A 
ATOM     12  C   UNL     1     105.434 125.296  79.446  0.00  0.00    +0.000 A 
ATOM     13  C   UNL     1     106.014 124.028  79.352  0.00  0.00    +0.000 A 
ATOM     14  C   UNL     1     105.560 122.991  80.166  0.00  0.00    +0.000 A 
ATOM     15  C   UNL     1     104.532 123.223  81.079  0.00  0.00    +0.000 A 
ATOM     16  C   UNL     1     103.952 124.490  81.174  0.00  0.00    +0.000 A 
ENDBRANCH  10  11
ENDBRANCH   9  10
ENDBRANCH   5   9
TORSDOF 4
ENDMDL
