MODEL 1
REMARK VINA RESULT:      -4.9      0.000      0.000
REMARK  Name = *****
REMARK  6 active torsions:
REMARK  status: ('A' for Active; 'I' for Inactive)
REMARK    1  A    between atoms: C_1  and  C_2
REMARK    2  A    between atoms: C_4  and  C_17
REMARK    3  A    between atoms: C_6  and  O_8
REMARK    4  A    between atoms: O_8  and  C_9
REMARK    5  A    between atoms: C_9  and  C_10
REMARK    6  A    between atoms: C_9  and  C_11
REMARK                            x       y       z     vdW  Elec       q    Type
REMARK                         _______ _______ _______ _____ _____    ______ ____
ROOT
ATOM      1  O   UNL     1      88.635  69.903  86.734  0.00  0.00    +0.000 OA
ENDROOT
BRANCH   1   7
ATOM      2  C   UNL     1      86.968  65.636  88.278  0.00  0.00    +0.000 C 
ATOM      3  C   UNL     1      88.009  66.418  87.534  0.00  0.00    +0.000 A 
ATOM      4  C   UNL     1      89.060  65.764  86.882  0.00  0.00    +0.000 A 
ATOM      5  C   UNL     1      90.012  66.492  86.157  0.00  0.00    +0.000 A 
ATOM      6  C   UNL     1      89.910  67.891  86.094  0.00  0.00    +0.000 A 
ATOM      7  C   UNL     1      88.855  68.555  86.720  0.00  0.00    +0.000 A 
ATOM      8  C   UNL     1      87.911  67.811  87.435  0.00  0.00    +0.000 A 
ATOM      9  C   UNL     1      91.165  65.791  85.500  0.00  0.00    +0.000 C 
ENDBRANCH   1   7
BRANCH   1  10
ATOM     10  C   UNL     1      87.906  70.508  85.659  0.00  0.00    +0.000 C 
ATOM     11  C   UNL     1      88.786  71.534  84.945  0.00  0.00    +0.000 C 
BRANCH  10  12
ATOM     12  C   UNL     1      86.681  71.198  86.244  0.00  0.00    +0.000 A 
ATOM     13  C   UNL     1      86.505  71.259  87.635  0.00  0.00    +0.000 A 
ATOM     14  C   UNL     1      85.376  71.872  88.183  0.00  0.00    +0.000 A 
ATOM     15  C   UNL     1      84.406  72.425  87.349  0.00  0.00    +0.000 A 
ATOM     16  C   UNL     1      84.565  72.369  85.966  0.00  0.00    +0.000 A 
ATOM     17  C   UNL     1      85.694  71.757  85.417  0.00  0.00    +0.000 A 
ENDBRANCH  10  12
ENDBRANCH   1  10
TORSDOF 3
ENDMDL
