MODEL 1
REMARK VINA RESULT:      -4.5      0.000      0.000
REMARK  Name = *****
REMARK  4 active torsions:
REMARK  status: ('A' for Active; 'I' for Inactive)
REMARK    1  A    between atoms: C_1  and  C_2
REMARK    2  A    between atoms: C_3  and  O_9
REMARK    3  A    between atoms: O_9  and  C_10
REMARK    4  A    between atoms: C_10  and  C_12
REMARK                            x       y       z     vdW  Elec       q    Type
REMARK                         _______ _______ _______ _____ _____    ______ ____
ROOT
ATOM      1  O   UNL     1      88.587  69.171  85.288  0.00  0.00    +0.000 OA
ENDROOT
BRANCH   1   4
ATOM      2  C   UNL     1      86.953  71.525  85.181  0.00  0.00    +0.000 C 
ATOM      3  C   UNL     1      88.342  71.481  84.617  0.00  0.00    +0.000 A 
ATOM      4  C   UNL     1      89.131  70.327  84.715  0.00  0.00    +0.000 A 
ATOM      5  C   UNL     1      90.421  70.271  84.181  0.00  0.00    +0.000 A 
ATOM      6  C   UNL     1      90.956  71.402  83.567  0.00  0.00    +0.000 A 
ATOM      7  C   UNL     1      90.195  72.567  83.484  0.00  0.00    +0.000 A 
ATOM      8  C   UNL     1      88.897  72.611  84.003  0.00  0.00    +0.000 A 
ATOM      9 CL   UNL     1      90.856  73.965  82.726  0.00  0.00    +0.000 Cl
ENDBRANCH   1   4
BRANCH   1  10
ATOM     10  C   UNL     1      89.227  68.775  86.446  0.00  0.00    +0.000 C 
ATOM     11  O   UNL     1      90.221  68.072  86.540  0.00  0.00    +0.000 OA
BRANCH  10  12
ATOM     12  C   UNL     1      88.518  69.340  87.628  0.00  0.00    +0.000 A 
ATOM     13  C   UNL     1      89.075  70.466  88.247  0.00  0.00    +0.000 A 
ATOM     14  C   UNL     1      88.444  71.024  89.353  0.00  0.00    +0.000 A 
ATOM     15  C   UNL     1      87.266  70.485  89.857  0.00  0.00    +0.000 A 
ATOM     16  C   UNL     1      86.705  69.365  89.247  0.00  0.00    +0.000 A 
ATOM     17  C   UNL     1      87.329  68.792  88.134  0.00  0.00    +0.000 A 
ATOM     18  F   UNL     1      88.980  72.101  89.943  0.00  0.00    +0.000 F 
ENDBRANCH  10  12
ENDBRANCH   1  10
TORSDOF 3
ENDMDL
