MODEL 1
REMARK VINA RESULT:      -4.1      0.000      0.000
REMARK  Name = *****
REMARK  4 active torsions:
REMARK  status: ('A' for Active; 'I' for Inactive)
REMARK    1  A    between atoms: C_4  and  C_7
REMARK    2  A    between atoms: C_7  and  O_8
REMARK    3  A    between atoms: O_8  and  S_9
REMARK    4  A    between atoms: S_9  and  C_11
REMARK                            x       y       z     vdW  Elec       q    Type
REMARK                         _______ _______ _______ _____ _____    ______ ____
ROOT
ATOM      1  S   UNL     1      89.341  67.625  85.076  0.00  0.00    +0.000 S 
ATOM      2  O   UNL     1      90.425  66.750  84.521  0.00  0.00    +0.000 OA
ENDROOT
BRANCH   1   3
ATOM      3  C   UNL     1      88.637  66.718  86.480  0.00  0.00    +0.000 A 
ATOM      4  C   UNL     1      87.555  67.251  87.196  0.00  0.00    +0.000 A 
ATOM      5  C   UNL     1      87.001  66.542  88.265  0.00  0.00    +0.000 A 
ATOM      6  C   UNL     1      87.523  65.301  88.609  0.00  0.00    +0.000 A 
ATOM      7  C   UNL     1      88.590  64.753  87.905  0.00  0.00    +0.000 A 
ATOM      8  C   UNL     1      89.146  65.460  86.838  0.00  0.00    +0.000 A 
ATOM      9  F   UNL     1      86.990  64.622  89.633  0.00  0.00    +0.000 F 
ENDBRANCH   1   3
BRANCH   1  10
ATOM     10  O   UNL     1      90.026  68.737  86.019  0.00  0.00    +0.000 OA
BRANCH  10  11
ATOM     11  C   UNL     1      89.673  70.084  85.727  0.00  0.00    +0.000 C 
BRANCH  11  15
ATOM     12  C   UNL     1      86.620  71.354  88.502  0.00  0.00    +0.000 A 
ATOM     13  C   UNL     1      87.869  70.954  88.972  0.00  0.00    +0.000 A 
ATOM     14  C   UNL     1      88.854  70.542  88.074  0.00  0.00    +0.000 A 
ATOM     15  C   UNL     1      88.598  70.518  86.695  0.00  0.00    +0.000 A 
ATOM     16  C   UNL     1      87.339  70.927  86.233  0.00  0.00    +0.000 A 
ATOM     17  C   UNL     1      86.355  71.341  87.133  0.00  0.00    +0.000 A 
ENDBRANCH  11  15
ENDBRANCH  10  11
ENDBRANCH   1  10
TORSDOF 4
ENDMDL
