MODEL 1
REMARK VINA RESULT:      -4.5      0.000      0.000
REMARK  Name = *****
REMARK  4 active torsions:
REMARK  status: ('A' for Active; 'I' for Inactive)
REMARK    1  A    between atoms: C_1  and  C_2
REMARK    2  A    between atoms: C_3  and  C_7
REMARK    3  A    between atoms: C_7  and  C_8
REMARK    4  A    between atoms: C_9  and  C_10
REMARK                            x       y       z     vdW  Elec       q    Type
REMARK                         _______ _______ _______ _____ _____    ______ ____
ROOT
ATOM      1  C   UNL     1      88.658  66.267  87.172  0.00  0.00    +0.000 C 
ATOM      2  C   UNL     1      89.687  66.799  86.495  0.00  0.00    +0.000 C 
ENDROOT
BRANCH   2   3
ATOM      3  C   UNL     1      89.744  68.200  86.059  0.00  0.00    +0.000 A 
ATOM      4  C   UNL     1      89.917  68.478  84.696  0.00  0.00    +0.000 A 
ATOM      5  C   UNL     1      89.948  69.799  84.240  0.00  0.00    +0.000 A 
ATOM      6  C   UNL     1      89.794  70.840  85.146  0.00  0.00    +0.000 A 
ATOM      7  C   UNL     1      89.605  70.587  86.499  0.00  0.00    +0.000 A 
ATOM      8  C   UNL     1      89.575  69.266  86.955  0.00  0.00    +0.000 A 
ATOM      9  F   UNL     1      89.820  72.105  84.710  0.00  0.00    +0.000 F 
ENDBRANCH   2   3
BRANCH   1  10
ATOM     10  C   UNL     1      88.608  64.834  87.631  0.00  0.00    +0.000 C 
BRANCH  10  13
ATOM     11  C   UNL     1      89.255  63.804  90.583  0.00  0.00    +0.000 C 
ATOM     12  C   UNL     1      87.901  64.134  90.045  0.00  0.00    +0.000 A 
ATOM     13  C   UNL     1      87.639  64.580  88.756  0.00  0.00    +0.000 A 
ATOM     14  S   UNL     1      85.965  64.851  88.496  0.00  0.00    +0.000 S 
ATOM     15  C   UNL     1      85.575  64.382  90.088  0.00  0.00    +0.000 A 
ATOM     16  C   UNL     1      86.691  64.025  90.807  0.00  0.00    +0.000 A 
ENDBRANCH  10  13
ENDBRANCH   1  10
TORSDOF 3
ENDMDL
