REMARK  Name = *****
REMARK  2 active torsions:
REMARK  status: ('A' for Active; 'I' for Inactive)
REMARK    1  A    between atoms: C_4  and  C_7
REMARK    2  A    between atoms: C_8  and  C_9
REMARK                            x       y       z     vdW  Elec       q    Type
REMARK                         _______ _______ _______ _____ _____    ______ ____
ROOT
ATOM      1  C   UNL     1       2.936   0.190  -0.323  0.00  0.00    +0.000 C 
ATOM      2  C   UNL     1       4.127   0.263  -0.463  0.00  0.00    +0.000 C 
ENDROOT
BRANCH   2   3
ATOM      3  C   UNL     1       5.543   0.352  -0.634  0.00  0.00    +0.000 A 
ATOM      4  C   UNL     1       6.162   1.601  -0.705  0.00  0.00    +0.000 A 
ATOM      5  C   UNL     1       7.542   1.676  -0.873  0.00  0.00    +0.000 A 
ATOM      6  C   UNL     1       8.311   0.518  -0.972  0.00  0.00    +0.000 A 
ATOM      7  C   UNL     1       7.696  -0.733  -0.901  0.00  0.00    +0.000 A 
ATOM      8  C   UNL     1       6.311  -0.814  -0.732  0.00  0.00    +0.000 A 
ATOM      9 BR   UNL     1      10.185   0.622  -1.202  0.00  0.00    +0.000 Br
ATOM     10  F   UNL     1       8.114   2.887  -0.939  0.00  0.00    +0.000 F 
ENDBRANCH   2   3
BRANCH   1  14
ATOM     11  C   UNL     1      -1.253  -0.061   0.160  0.00  0.00    +0.000 A 
ATOM     12  C   UNL     1      -0.634   1.186   0.079  0.00  0.00    +0.000 A 
ATOM     13  C   UNL     1       0.751   1.270  -0.080  0.00  0.00    +0.000 A 
ATOM     14  C   UNL     1       1.517   0.105  -0.158  0.00  0.00    +0.000 A 
ATOM     15  C   UNL     1       0.896  -1.143  -0.076  0.00  0.00    +0.000 A 
ATOM     16  C   UNL     1      -0.489  -1.226   0.083  0.00  0.00    +0.000 A 
ENDBRANCH   1  14
TORSDOF 2
