MODEL 1
REMARK VINA RESULT:      -4.3      0.000      0.000
REMARK  Name = *****
REMARK  4 active torsions:
REMARK  status: ('A' for Active; 'I' for Inactive)
REMARK    1  A    between atoms: C_1  and  O_2
REMARK    2  A    between atoms: O_2  and  C_3
REMARK    3  A    between atoms: C_6  and  C_9
REMARK    4  A    between atoms: C_10  and  C_11
REMARK                            x       y       z     vdW  Elec       q    Type
REMARK                         _______ _______ _______ _____ _____    ______ ____
ROOT
ATOM      1  C   UNL     1      99.693 128.839  83.595  0.00  0.00    +0.000 A 
ATOM      2  C   UNL     1      99.101 127.745  82.966  0.00  0.00    +0.000 A 
ATOM      3  C   UNL     1      99.898 126.737  82.407  0.00  0.00    +0.000 A 
ATOM      4  C   UNL     1     101.295 126.816  82.461  0.00  0.00    +0.000 A 
ATOM      5  C   UNL     1     101.882 127.907  83.108  0.00  0.00    +0.000 A 
ATOM      6  C   UNL     1     101.085 128.912  83.665  0.00  0.00    +0.000 A 
ENDROOT
BRANCH   1   8
ATOM      7  C   UNL     1      99.591 131.182  83.986  0.00  0.00    +0.000 C 
ATOM      8  O   UNL     1      99.036 129.887  84.178  0.00  0.00    +0.000 OA
ENDBRANCH   1   8
BRANCH   4   9
ATOM      9  C   UNL     1     102.159 125.758  81.914  0.00  0.00    +0.000 C 
ATOM     10  C   UNL     1     103.332 126.003  81.307  0.00  0.00    +0.000 C 
BRANCH  10  11
ATOM     11  C   UNL     1     104.246 125.007  80.751  0.00  0.00    +0.000 C 
ATOM     12  C   UNL     1     104.224 123.757  81.256  0.00  0.00    +0.000 C 
ATOM     13  C   UNL     1     105.036 122.680  80.744  0.00  0.00    +0.000 C 
ATOM     14  C   UNL     1     106.120 122.851  79.978  0.00  0.00    +0.000 C 
ATOM     15  S   UNL     1     106.695 124.407  79.503  0.00  0.00    +0.000 S 
ATOM     16  C   UNL     1     105.176 125.403  79.623  0.00  0.00    +0.000 C 
ENDBRANCH  10  11
ENDBRANCH   4   9
TORSDOF 3
ENDMDL
