REMARK  Name = *****
REMARK  3 active torsions:
REMARK  status: ('A' for Active; 'I' for Inactive)
REMARK    1  A    between atoms: C_4  and  C_7
REMARK    2  A    between atoms: C_8  and  O_9
REMARK    3  A    between atoms: O_9  and  C_10
REMARK                            x       y       z     vdW  Elec       q    Type
REMARK                         _______ _______ _______ _____ _____    ______ ____
ROOT
ATOM      1  C   UNL     1      -0.890  -2.856  -0.059  0.00  0.00    +0.000 C 
ATOM      2  C   UNL     1      -1.248  -4.003  -0.054  0.00  0.00    +0.000 C 
ENDROOT
BRANCH   1   6
ATOM      3  C   UNL     1       0.405   1.229   0.294  0.00  0.00    +0.000 C 
ATOM      4  C   UNL     1       1.384   0.237  -0.324  0.00  0.00    +0.000 C 
ATOM      5  C   UNL     1       1.021  -1.203   0.051  0.00  0.00    +0.000 C 
ATOM      6  C   UNL     1      -0.455  -1.497  -0.059  0.00  0.00    +0.000 C 
ATOM      7  C   UNL     1      -1.369  -0.516  -0.170  0.00  0.00    +0.000 C 
ATOM      8  C   UNL     1      -1.027   0.945  -0.161  0.00  0.00    +0.000 C 
ENDBRANCH   1   6
BRANCH   2   9
ATOM      9  O   UNL     1      -1.669  -5.266  -0.035  0.00  0.00    +0.000 OA
BRANCH   9  10
ATOM     10  C   UNL     1      -0.881  -6.160  -0.718  0.00  0.00    +0.000 A 
ATOM     11  C   UNL     1       0.503  -6.042  -0.877  0.00  0.00    +0.000 A 
ATOM     12  C   UNL     1       1.215  -7.027  -1.566  0.00  0.00    +0.000 A 
ATOM     13  C   UNL     1       0.549  -8.136  -2.087  0.00  0.00    +0.000 A 
ATOM     14  C   UNL     1      -0.828  -8.266  -1.916  0.00  0.00    +0.000 A 
ATOM     15  C   UNL     1      -1.540  -7.282  -1.228  0.00  0.00    +0.000 A 
ENDBRANCH   9  10
ENDBRANCH   2   9
TORSDOF 3
