REMARK  Name = *****
REMARK  3 active torsions:
REMARK  status: ('A' for Active; 'I' for Inactive)
REMARK    1  A    between atoms: C_6  and  C_7
REMARK    2  A    between atoms: N_9  and  C_10
REMARK    3  A    between atoms: N_9  and  O_17
REMARK                            x       y       z     vdW  Elec       q    Type
REMARK                         _______ _______ _______ _____ _____    ______ ____
ROOT
ATOM      1  C   UNL     1       4.526  -0.048   0.203  0.00  0.00    +0.000 C 
ATOM      2  O   UNL     1       3.325   0.078  -0.035  0.00  0.00    +0.000 OA
ATOM      3  N   UNL     1       5.206  -1.247   0.397  0.00  0.00    +0.000 N 
ENDROOT
BRANCH   1   9
ATOM      4  C   UNL     1       6.498   1.417  -0.369  0.00  0.00    +0.000 A 
ATOM      5  C   UNL     1       7.179   2.631  -0.253  0.00  0.00    +0.000 A 
ATOM      6  C   UNL     1       6.651   3.649   0.542  0.00  0.00    +0.000 A 
ATOM      7  C   UNL     1       5.444   3.469   1.217  0.00  0.00    +0.000 A 
ATOM      8  C   UNL     1       4.762   2.255   1.103  0.00  0.00    +0.000 A 
ATOM      9  C   UNL     1       5.298   1.219   0.326  0.00  0.00    +0.000 A 
ATOM     10 BR   UNL     1       7.574   5.291   0.696  0.00  0.00    +0.000 Br
ENDBRANCH   1   9
BRANCH   3  11
ATOM     11  C   UNL     1       4.720  -2.569   0.186  0.00  0.00    +0.000 A 
ATOM     12  C   UNL     1       3.406  -2.833  -0.226  0.00  0.00    +0.000 A 
ATOM     13  C   UNL     1       2.957  -4.147  -0.420  0.00  0.00    +0.000 A 
ATOM     14  C   UNL     1       3.819  -5.216  -0.209  0.00  0.00    +0.000 A 
ATOM     15  C   UNL     1       5.129  -4.983   0.194  0.00  0.00    +0.000 A 
ATOM     16  C   UNL     1       5.573  -3.670   0.388  0.00  0.00    +0.000 A 
ATOM     17 CL   UNL     1       3.267  -6.827  -0.447  0.00  0.00    +0.000 Cl
ENDBRANCH   3  11
BRANCH   3  18
ATOM     18  O   UNL     1       6.550  -1.172   0.833  0.00  0.00    +0.000 OA
ATOM     19  H   UNL     1       6.800  -0.243   0.952  0.00  0.00    +0.000 HD
ENDBRANCH   3  18
TORSDOF 3
