MODEL 1
REMARK VINA RESULT:      -3.8      0.000      0.000
REMARK  Name = *****
REMARK  5 active torsions:
REMARK  status: ('A' for Active; 'I' for Inactive)
REMARK    1  A    between atoms: C_1  and  C_2
REMARK    2  A    between atoms: C_2  and  C_3
REMARK    3  A    between atoms: C_2  and  C_11
REMARK    4  A    between atoms: C_3  and  S_4
REMARK    5  A    between atoms: S_4  and  C_5
REMARK                            x       y       z     vdW  Elec       q    Type
REMARK                         _______ _______ _______ _____ _____    ______ ____
ROOT
ATOM      1  C   UNL     1      89.042  65.878  87.099  0.00  0.00    +0.000 C 
ATOM      2  C   UNL     1      87.772  65.090  87.451  0.00  0.00    +0.000 C 
ENDROOT
BRANCH   2   3
ATOM      3  C   UNL     1      87.704  64.842  88.952  0.00  0.00    +0.000 A 
ATOM      4  C   UNL     1      86.621  65.342  89.691  0.00  0.00    +0.000 A 
ATOM      5  C   UNL     1      86.536  65.126  91.068  0.00  0.00    +0.000 A 
ATOM      6  C   UNL     1      87.532  64.409  91.724  0.00  0.00    +0.000 A 
ATOM      7  C   UNL     1      88.614  63.905  91.005  0.00  0.00    +0.000 A 
ATOM      8  C   UNL     1      88.700  64.120  89.628  0.00  0.00    +0.000 A 
ENDBRANCH   2   3
BRANCH   2   9
ATOM      9  C   UNL     1      87.706  63.795  86.616  0.00  0.00    +0.000 C 
BRANCH   9  10
ATOM     10  S   UNL     1      85.989  63.374  86.135  0.00  0.00    +0.000 S 
BRANCH  10  11
ATOM     11  C   UNL     1      85.400  62.686  87.671  0.00  0.00    +0.000 A 
ATOM     12  C   UNL     1      84.132  62.992  88.174  0.00  0.00    +0.000 A 
ATOM     13  C   UNL     1      83.703  62.444  89.385  0.00  0.00    +0.000 A 
ATOM     14  C   UNL     1      84.541  61.592  90.102  0.00  0.00    +0.000 A 
ATOM     15  C   UNL     1      85.812  61.293  89.613  0.00  0.00    +0.000 A 
ATOM     16  C   UNL     1      86.241  61.843  88.402  0.00  0.00    +0.000 A 
ENDBRANCH  10  11
ENDBRANCH   9  10
ENDBRANCH   2   9
TORSDOF 4
ENDMDL
