MODEL 1
REMARK VINA RESULT:      -4.6      0.000      0.000
REMARK  Name = *****
REMARK  6 active torsions:
REMARK  status: ('A' for Active; 'I' for Inactive)
REMARK    1  A    between atoms: C_1  and  C_2
REMARK    2  A    between atoms: C_5  and  S_8
REMARK    3  A    between atoms: S_8  and  O_10
REMARK    4  A    between atoms: O_10  and  C_11
REMARK    5  A    between atoms: C_14  and  O_17
REMARK    6  A    between atoms: O_17  and  C_18
REMARK                            x       y       z     vdW  Elec       q    Type
REMARK                         _______ _______ _______ _____ _____    ______ ____
ROOT
ATOM      1  S   UNL     1      88.675  70.129  86.194  0.00  0.00    +0.000 S 
ATOM      2  O   UNL     1      89.751  70.950  86.844  0.00  0.00    +0.000 OA
ENDROOT
BRANCH   1   7
ATOM      3  C   UNL     1      83.376  72.924  87.460  0.00  0.00    +0.000 C 
ATOM      4  C   UNL     1      84.689  72.270  87.146  0.00  0.00    +0.000 A 
ATOM      5  C   UNL     1      85.109  72.124  85.818  0.00  0.00    +0.000 A 
ATOM      6  C   UNL     1      86.317  71.486  85.523  0.00  0.00    +0.000 A 
ATOM      7  C   UNL     1      87.117  70.979  86.552  0.00  0.00    +0.000 A 
ATOM      8  C   UNL     1      86.689  71.105  87.878  0.00  0.00    +0.000 A 
ATOM      9  C   UNL     1      85.481  71.743  88.173  0.00  0.00    +0.000 A 
ENDBRANCH   1   7
BRANCH   1  10
ATOM     10  O   UNL     1      88.329  68.910  87.195  0.00  0.00    +0.000 OA
BRANCH  10  11
ATOM     11  C   UNL     1      88.819  67.691  86.806  0.00  0.00    +0.000 A 
ATOM     12  C   UNL     1      90.023  67.566  86.112  0.00  0.00    +0.000 A 
ATOM     13  C   UNL     1      90.501  66.298  85.762  0.00  0.00    +0.000 A 
ATOM     14  C   UNL     1      89.783  65.155  86.123  0.00  0.00    +0.000 A 
ATOM     15  C   UNL     1      88.593  65.292  86.845  0.00  0.00    +0.000 A 
ATOM     16  C   UNL     1      88.114  66.555  87.196  0.00  0.00    +0.000 A 
BRANCH  14  17
ATOM     17  O   UNL     1      90.136  63.863  85.845  0.00  0.00    +0.000 OA
ATOM     18  C   UNL     1      91.402  63.660  85.231  0.00  0.00    +0.000 C 
ENDBRANCH  14  17
ENDBRANCH  10  11
ENDBRANCH   1  10
TORSDOF 4
ENDMDL
