MODEL 1
REMARK VINA RESULT:      -4.6      0.000      0.000
REMARK  Name = *****
REMARK  3 active torsions:
REMARK  status: ('A' for Active; 'I' for Inactive)
REMARK    1  A    between atoms: C_4  and  O_7
REMARK    2  A    between atoms: O_7  and  C_8
REMARK    3  A    between atoms: C_8  and  C_10
REMARK                            x       y       z     vdW  Elec       q    Type
REMARK                         _______ _______ _______ _____ _____    ______ ____
ROOT
ATOM      1  C   UNL     1     102.745 125.290  82.595  0.00  0.00    +0.000 C 
ATOM      2  O   UNL     1     102.868 125.019  83.776  0.00  0.00    +0.000 OA
ENDROOT
BRANCH   1   3
ATOM      3  C   UNL     1     103.744 124.968  81.541  0.00  0.00    +0.000 A 
ATOM      4  C   UNL     1     104.210 125.990  80.707  0.00  0.00    +0.000 A 
ATOM      5  C   UNL     1     105.141 125.731  79.703  0.00  0.00    +0.000 A 
ATOM      6  C   UNL     1     105.611 124.437  79.531  0.00  0.00    +0.000 A 
ATOM      7  C   UNL     1     105.167 123.401  80.344  0.00  0.00    +0.000 A 
ATOM      8  C   UNL     1     104.232 123.663  81.350  0.00  0.00    +0.000 A 
ATOM      9  F   UNL     1     106.505 124.182  78.568  0.00  0.00    +0.000 F 
ATOM     10  F   UNL     1     103.783 127.253  80.845  0.00  0.00    +0.000 F 
ENDBRANCH   1   3
BRANCH   1  11
ATOM     11  O   UNL     1     101.681 125.925  82.041  0.00  0.00    +0.000 OA
BRANCH  11  15
ATOM     12  C   UNL     1      99.277 129.164  83.359  0.00  0.00    +0.000 C 
ATOM     13  C   UNL     1      98.605 127.802  83.207  0.00  0.00    +0.000 C 
ATOM     14  C   UNL     1      99.454 126.847  82.373  0.00  0.00    +0.000 C 
ATOM     15  C   UNL     1     100.871 126.708  82.939  0.00  0.00    +0.000 C 
ATOM     16  C   UNL     1     101.536 128.081  83.074  0.00  0.00    +0.000 C 
ATOM     17  C   UNL     1     100.694 129.038  83.911  0.00  0.00    +0.000 C 
ENDBRANCH  11  15
ENDBRANCH   1  11
TORSDOF 3
ENDMDL
