MODEL 1
REMARK VINA RESULT:      -4.5      0.000      0.000
REMARK  Name = *****
REMARK  4 active torsions:
REMARK  status: ('A' for Active; 'I' for Inactive)
REMARK    1  A    between atoms: C_1  and  C_2
REMARK    2  A    between atoms: C_5  and  C_8
REMARK    3  A    between atoms: C_9  and  C_10
REMARK    4  A    between atoms: C_13  and  C_16
REMARK                            x       y       z     vdW  Elec       q    Type
REMARK                         _______ _______ _______ _____ _____    ______ ____
ROOT
ATOM      1  C   UNL     1     101.742 127.770  82.698  0.00  0.00    +0.000 C 
ATOM      2  C   UNL     1     100.975 128.385  83.389  0.00  0.00    +0.000 C 
ENDROOT
BRANCH   1   7
ATOM      3  C   UNL     1     105.404 124.840  79.395  0.00  0.00    +0.000 C 
ATOM      4  C   UNL     1     104.429 125.612  80.232  0.00  0.00    +0.000 A 
ATOM      5  C   UNL     1     104.415 127.012  80.212  0.00  0.00    +0.000 A 
ATOM      6  C   UNL     1     103.523 127.723  81.019  0.00  0.00    +0.000 A 
ATOM      7  C   UNL     1     102.641 127.041  81.859  0.00  0.00    +0.000 A 
ATOM      8  C   UNL     1     102.653 125.646  81.890  0.00  0.00    +0.000 A 
ATOM      9  C   UNL     1     103.545 124.935  81.082  0.00  0.00    +0.000 A 
ENDBRANCH   1   7
BRANCH   2  10
ATOM     10  C   UNL     1     100.050 129.122  84.193  0.00  0.00    +0.000 A 
ATOM     11  C   UNL     1      99.169 128.449  85.041  0.00  0.00    +0.000 A 
ATOM     12  C   UNL     1      98.252 129.167  85.814  0.00  0.00    +0.000 A 
ATOM     13  C   UNL     1      98.208 130.565  85.744  0.00  0.00    +0.000 A 
ATOM     14  C   UNL     1      99.101 131.234  84.897  0.00  0.00    +0.000 A 
ATOM     15  C   UNL     1     100.017 130.516  84.124  0.00  0.00    +0.000 A 
ATOM     16  C   UNL     1      97.230 131.347  86.569  0.00  0.00    +0.000 C 
ENDBRANCH   2  10
TORSDOF 2
ENDMDL
