MODEL 1
REMARK VINA RESULT:      -4.5      0.000      0.000
REMARK  Name = *****
REMARK  4 active torsions:
REMARK  status: ('A' for Active; 'I' for Inactive)
REMARK    1  A    between atoms: C_1  and  C_2
REMARK    2  A    between atoms: C_3  and  S_9
REMARK    3  A    between atoms: S_9  and  N_11
REMARK    4  A    between atoms: N_11  and  C_12
REMARK                            x       y       z     vdW  Elec       q    Type
REMARK                         _______ _______ _______ _____ _____    ______ ____
ROOT
ATOM      1  S   UNL     1      88.625  64.035  86.222  0.00  0.00    +0.000 S 
ATOM      2  O   UNL     1      89.771  63.694  85.316  0.00  0.00    +0.000 OA
ENDROOT
BRANCH   1   5
ATOM      3  C   UNL     1      86.344  66.001  87.280  0.00  0.00    +0.000 C 
ATOM      4  C   UNL     1      87.676  66.610  86.942  0.00  0.00    +0.000 A 
ATOM      5  C   UNL     1      88.765  65.842  86.477  0.00  0.00    +0.000 A 
ATOM      6  C   UNL     1      89.986  66.478  86.188  0.00  0.00    +0.000 A 
ATOM      7  C   UNL     1      90.139  67.853  86.374  0.00  0.00    +0.000 A 
ATOM      8  C   UNL     1      89.071  68.604  86.851  0.00  0.00    +0.000 A 
ATOM      9  C   UNL     1      87.850  67.993  87.136  0.00  0.00    +0.000 A 
ATOM     10 CL   UNL     1      89.255  70.298  87.091  0.00  0.00    +0.000 Cl
ENDBRANCH   1   5
BRANCH   1  11
ATOM     11  N   UNL     1      89.103  63.714  87.795  0.00  0.00    +0.000 N 
ATOM     12  H   UNL     1      90.063  63.726  88.014  0.00  0.00    +0.000 HD
BRANCH  11  13
ATOM     13  C   UNL     1      88.169  63.428  88.821  0.00  0.00    +0.000 A 
ATOM     14  C   UNL     1      88.250  64.168  90.013  0.00  0.00    +0.000 A 
ATOM     15  C   UNL     1      87.320  63.995  91.041  0.00  0.00    +0.000 A 
ATOM     16  C   UNL     1      86.272  63.094  90.883  0.00  0.00    +0.000 A 
ATOM     17  C   UNL     1      86.151  62.379  89.696  0.00  0.00    +0.000 A 
ATOM     18  C   UNL     1      87.083  62.556  88.668  0.00  0.00    +0.000 A 
ENDBRANCH  11  13
ENDBRANCH   1  11
TORSDOF 3
ENDMDL
