MODEL 1
REMARK VINA RESULT:      -3.6      0.000      0.000
REMARK  Name = *****
REMARK  2 active torsions:
REMARK  status: ('A' for Active; 'I' for Inactive)
REMARK    1  A    between atoms: C_4  and  S_5
REMARK    2  A    between atoms: S_5  and  C_6
REMARK                            x       y       z     vdW  Elec       q    Type
REMARK                         _______ _______ _______ _____ _____    ______ ____
ROOT
ATOM      1  S   UNL     1     102.882 127.783  83.905  0.00  0.00    +0.000 S 
ENDROOT
BRANCH   1   5
ATOM      2  C   UNL     1     104.299 124.671  80.141  0.00  0.00    +0.000 C 
ATOM      3  C   UNL     1     104.612 126.113  80.528  0.00  0.00    +0.000 C 
ATOM      4  C   UNL     1     104.013 126.296  81.898  0.00  0.00    +0.000 C 
ATOM      5  C   UNL     1     103.607 127.492  82.356  0.00  0.00    +0.000 C 
ATOM      6  S   UNL     1     103.865 124.775  82.745  0.00  0.00    +0.000 S 
ATOM      7  C   UNL     1     104.556 123.808  81.367  0.00  0.00    +0.000 C 
ENDBRANCH   1   5
BRANCH   1   8
ATOM      8  C   UNL     1     101.170 127.844  83.414  0.00  0.00    +0.000 A 
ATOM      9  C   UNL     1     100.580 126.748  82.777  0.00  0.00    +0.000 A 
ATOM     10  C   UNL     1      99.238 126.797  82.394  0.00  0.00    +0.000 A 
ATOM     11  C   UNL     1      98.481 127.939  82.651  0.00  0.00    +0.000 A 
ATOM     12  C   UNL     1      99.062 129.031  83.293  0.00  0.00    +0.000 A 
ATOM     13  C   UNL     1     100.405 128.983  83.676  0.00  0.00    +0.000 A 
ENDBRANCH   1   8
TORSDOF 2
ENDMDL
