MODEL 1
REMARK VINA RESULT:      -4.4      0.000      0.000
REMARK  Name = *****
REMARK  4 active torsions:
REMARK  status: ('A' for Active; 'I' for Inactive)
REMARK    1  A    between atoms: C_6  and  O_7
REMARK    2  A    between atoms: O_7  and  C_8
REMARK    3  A    between atoms: C_8  and  O_10
REMARK    4  A    between atoms: O_10  and  C_11
REMARK                            x       y       z     vdW  Elec       q    Type
REMARK                         _______ _______ _______ _____ _____    ______ ____
ROOT
ATOM      1  C   UNL     1     103.458 126.512  80.555  0.00  0.00    +0.000 C 
ATOM      2  O   UNL     1     103.520 127.522  79.867  0.00  0.00    +0.000 OA
ENDROOT
BRANCH   1   3
ATOM      3  O   UNL     1     103.334 125.208  80.090  0.00  0.00    +0.000 OA
BRANCH   3   9
ATOM      4  C   UNL     1     104.560 123.303  80.961  0.00  0.00    +0.000 A 
ATOM      5  C   UNL     1     105.726 122.536  80.971  0.00  0.00    +0.000 A 
ATOM      6  C   UNL     1     106.811 122.912  80.176  0.00  0.00    +0.000 A 
ATOM      7  C   UNL     1     106.739 124.047  79.365  0.00  0.00    +0.000 A 
ATOM      8  C   UNL     1     105.575 124.818  79.353  0.00  0.00    +0.000 A 
ATOM      9  C   UNL     1     104.504 124.448  80.166  0.00  0.00    +0.000 A 
ATOM     10 CL   UNL     1     108.246 121.962  80.185  0.00  0.00    +0.000 Cl
ENDBRANCH   3   9
ENDBRANCH   1   3
BRANCH   1  11
ATOM     11  O   UNL     1     103.498 126.454  81.940  0.00  0.00    +0.000 OA
BRANCH  11  12
ATOM     12  C   UNL     1     102.400 127.067  82.543  0.00  0.00    +0.000 A 
ATOM     13  C   UNL     1     102.574 128.273  83.221  0.00  0.00    +0.000 A 
ATOM     14  C   UNL     1     101.464 128.904  83.783  0.00  0.00    +0.000 A 
ATOM     15  C   UNL     1     100.197 128.332  83.646  0.00  0.00    +0.000 A 
ATOM     16  C   UNL     1     100.028 127.135  82.946  0.00  0.00    +0.000 A 
ATOM     17  C   UNL     1     101.136 126.499  82.384  0.00  0.00    +0.000 A 
ATOM     18 CL   UNL     1      98.829 129.115  84.336  0.00  0.00    +0.000 Cl
ENDBRANCH  11  12
ENDBRANCH   1  11
TORSDOF 4
ENDMDL
