REMARK  Name = *****
REMARK  3 active torsions:
REMARK  status: ('A' for Active; 'I' for Inactive)
REMARK    1  A    between atoms: C_5  and  C_6
REMARK    2  A    between atoms: C_5  and  C_13
REMARK    3  A    between atoms: C_6  and  C_7
REMARK                            x       y       z     vdW  Elec       q    Type
REMARK                         _______ _______ _______ _____ _____    ______ ____
ROOT
ATOM      1  C   UNL     1       1.019   1.143  -0.485  0.00  0.00    +0.000 C 
ATOM      2  C   UNL     1       1.633  -0.120   0.117  0.00  0.00    +0.000 C 
ATOM      3  C   UNL     1       0.838  -1.373  -0.256  0.00  0.00    +0.000 C 
ATOM      4  C   UNL     1      -0.623  -1.216   0.140  0.00  0.00    +0.000 C 
ATOM      5  C   UNL     1      -1.268  -2.045   1.002  0.00  0.00    +0.000 C 
ATOM      6  C   UNL     1      -1.242   0.004  -0.513  0.00  0.00    +0.000 C 
ATOM      7  C   UNL     1      -0.465   1.268  -0.140  0.00  0.00    +0.000 C 
ENDROOT
BRANCH   5   8
ATOM      8  C   UNL     1      -0.590  -3.178   1.564  0.00  0.00    +0.000 C 
ATOM      9  N   UNL     1      -0.064  -4.106   2.020  0.00  0.00    +0.000 NA
ENDBRANCH   5   8
BRANCH   5  10
ATOM     10  C   UNL     1      -2.718  -1.897   1.427  0.00  0.00    +0.000 C 
BRANCH  10  11
ATOM     11  C   UNL     1      -2.879  -1.134   2.725  0.00  0.00    +0.000 A 
ATOM     12  C   UNL     1      -3.206   0.229   2.718  0.00  0.00    +0.000 A 
ATOM     13  C   UNL     1      -3.323   0.938   3.915  0.00  0.00    +0.000 A 
ATOM     14  C   UNL     1      -3.116   0.293   5.132  0.00  0.00    +0.000 A 
ATOM     15  C   UNL     1      -2.793  -1.062   5.153  0.00  0.00    +0.000 A 
ATOM     16  C   UNL     1      -2.676  -1.773   3.958  0.00  0.00    +0.000 A 
ENDBRANCH  10  11
ENDBRANCH   5  10
TORSDOF 3
