MODEL 1
REMARK VINA RESULT:      -4.9      0.000      0.000
REMARK  Name = *****
REMARK  4 active torsions:
REMARK  status: ('A' for Active; 'I' for Inactive)
REMARK    1  A    between atoms: C_1  and  C_2
REMARK    2  A    between atoms: C_5  and  C_8
REMARK    3  A    between atoms: C_9  and  C_11
REMARK    4  A    between atoms: C_14  and  C_17
REMARK                            x       y       z     vdW  Elec       q    Type
REMARK                         _______ _______ _______ _____ _____    ______ ____
ROOT
ATOM      1  C   UNL     1      87.560  69.025  87.410  0.00  0.00    +0.000 C 
ATOM      2  C   UNL     1      87.623  70.484  86.989  0.00  0.00    +0.000 C 
ATOM      3  S   UNL     1      88.115  70.141  88.613  0.00  0.00    +0.000 S 
ENDROOT
BRANCH   1   8
ATOM      4  C   UNL     1      91.429  65.184  85.268  0.00  0.00    +0.000 C 
ATOM      5  C   UNL     1      90.422  66.163  85.794  0.00  0.00    +0.000 A 
ATOM      6  C   UNL     1      89.390  65.738  86.634  0.00  0.00    +0.000 A 
ATOM      7  C   UNL     1      88.474  66.658  87.154  0.00  0.00    +0.000 A 
ATOM      8  C   UNL     1      88.567  68.033  86.872  0.00  0.00    +0.000 A 
ATOM      9  C   UNL     1      89.612  68.439  86.023  0.00  0.00    +0.000 A 
ATOM     10  C   UNL     1      90.533  67.524  85.501  0.00  0.00    +0.000 A 
ENDBRANCH   1   8
BRANCH   2  11
ATOM     11  C   UNL     1      86.350  71.281  86.807  0.00  0.00    +0.000 A 
ATOM     12  C   UNL     1      85.885  71.649  85.531  0.00  0.00    +0.000 A 
ATOM     13  C   UNL     1      84.694  72.362  85.359  0.00  0.00    +0.000 A 
ATOM     14  C   UNL     1      83.915  72.713  86.463  0.00  0.00    +0.000 A 
ATOM     15  C   UNL     1      84.357  72.358  87.740  0.00  0.00    +0.000 A 
ATOM     16  C   UNL     1      85.550  71.645  87.904  0.00  0.00    +0.000 A 
ATOM     17  C   UNL     1      82.657  73.510  86.284  0.00  0.00    +0.000 C 
ENDBRANCH   2  11
TORSDOF 2
ENDMDL
