MODEL 1
REMARK VINA RESULT:      -4.4      0.000      0.000
REMARK  Name = *****
REMARK  4 active torsions:
REMARK  status: ('A' for Active; 'I' for Inactive)
REMARK    1  A    between atoms: C_1  and  O_2
REMARK    2  A    between atoms: O_2  and  C_3
REMARK    3  A    between atoms: C_6  and  C_9
REMARK    4  A    between atoms: C_10  and  C_11
REMARK                            x       y       z     vdW  Elec       q    Type
REMARK                         _______ _______ _______ _____ _____    ______ ____
ROOT
ATOM      1  C   UNL     1      87.438  63.129  88.121  0.00  0.00    +0.000 C 
ATOM      2  C   UNL     1      87.699  63.778  86.973  0.00  0.00    +0.000 C 
ATOM      3  F   UNL     1      86.966  61.863  88.009  0.00  0.00    +0.000 F 
ENDROOT
BRANCH   1   7
ATOM      4  C   UNL     1      88.084  64.474  92.145  0.00  0.00    +0.000 A 
ATOM      5  C   UNL     1      86.785  64.389  91.646  0.00  0.00    +0.000 A 
ATOM      6  C   UNL     1      86.563  63.953  90.334  0.00  0.00    +0.000 A 
ATOM      7  C   UNL     1      87.632  63.610  89.497  0.00  0.00    +0.000 A 
ATOM      8  C   UNL     1      88.931  63.678  90.015  0.00  0.00    +0.000 A 
ATOM      9  C   UNL     1      89.153  64.113  91.324  0.00  0.00    +0.000 A 
BRANCH   4  11
ATOM     10  C   UNL     1      87.550  64.550  94.461  0.00  0.00    +0.000 C 
ATOM     11  O   UNL     1      88.439  64.882  93.401  0.00  0.00    +0.000 OA
ENDBRANCH   4  11
ENDBRANCH   1   7
BRANCH   2  12
ATOM     12  C   UNL     1      88.283  65.112  86.806  0.00  0.00    +0.000 A 
ATOM     13  C   UNL     1      87.590  66.268  87.185  0.00  0.00    +0.000 A 
ATOM     14  C   UNL     1      88.177  67.526  87.033  0.00  0.00    +0.000 A 
ATOM     15  C   UNL     1      89.466  67.635  86.513  0.00  0.00    +0.000 A 
ATOM     16  C   UNL     1      90.170  66.490  86.149  0.00  0.00    +0.000 A 
ATOM     17  C   UNL     1      89.583  65.231  86.300  0.00  0.00    +0.000 A 
ENDBRANCH   2  12
TORSDOF 3
ENDMDL
