MODEL 1
REMARK VINA RESULT:      -5.1      0.000      0.000
REMARK  Name = *****
REMARK  0 active torsions:
REMARK  status: ('A' for Active; 'I' for Inactive)
REMARK                            x       y       z     vdW  Elec       q    Type
REMARK                         _______ _______ _______ _____ _____    ______ ____
ROOT
ATOM      1  C   UNL     1      89.664  69.302  86.793  0.00  0.00    +0.000 C 
ATOM      2  C   UNL     1      89.801  70.131  85.521  0.00  0.00    +0.000 C 
ATOM      3  C   UNL     1      88.430  70.475  84.934  0.00  0.00    +0.000 C 
ATOM      4  C   UNL     1      87.433  70.914  85.974  0.00  0.00    +0.000 C 
ATOM      5  C   UNL     1      87.639  70.735  87.312  0.00  0.00    +0.000 C 
ATOM      6  C   UNL     1      88.864  70.055  87.859  0.00  0.00    +0.000 C 
ATOM      7  C   UNL     1      86.624  71.210  88.220  0.00  0.00    +0.000 C 
ATOM      8  C   UNL     1      85.569  71.740  88.453  0.00  0.00    +0.000 C 
ATOM      9  C   UNL     1      84.348  72.389  88.039  0.00  0.00    +0.000 C 
ATOM     10  C   UNL     1      84.142  72.566  86.700  0.00  0.00    +0.000 C 
ATOM     11  C   UNL     1      82.913  73.241  86.152  0.00  0.00    +0.000 C 
ATOM     12  C   UNL     1      82.110  73.991  87.218  0.00  0.00    +0.000 C 
ATOM     13  C   UNL     1      81.979  73.164  88.492  0.00  0.00    +0.000 C 
ATOM     14  C   UNL     1      83.352  72.827  89.078  0.00  0.00    +0.000 C 
ATOM     15  C   UNL     1      85.157  72.092  85.792  0.00  0.00    +0.000 C 
ATOM     16  C   UNL     1      86.213  71.562  85.559  0.00  0.00    +0.000 C 
ENDROOT
TORSDOF 0
ENDMDL
