MODEL 1
REMARK VINA RESULT:      -4.8      0.000      0.000
REMARK  Name = *****
REMARK  2 active torsions:
REMARK  status: ('A' for Active; 'I' for Inactive)
REMARK    1  A    between atoms: C_1  and  C_2
REMARK    2  A    between atoms: C_2  and  C_10
REMARK                            x       y       z     vdW  Elec       q    Type
REMARK                         _______ _______ _______ _____ _____    ______ ____
ROOT
ATOM      1  C   UNL     1     105.314 124.467  79.509  0.00  0.00    +0.000 C 
ATOM      2  C   UNL     1     104.489 124.341  80.762  0.00  0.00    +0.000 C 
ATOM      3  C   UNL     1     103.725 125.327  81.155  0.00  0.00    +0.000 C 
ATOM      4  C   UNL     1     102.962 126.315  81.537  0.00  0.00    +0.000 C 
ATOM      5  C   UNL     1     103.399 127.756  81.468  0.00  0.00    +0.000 C 
ATOM      6  C   UNL     1     103.208 128.453  82.816  0.00  0.00    +0.000 C 
ATOM      7  C   UNL     1     101.784 128.281  83.348  0.00  0.00    +0.000 C 
ATOM      8  C   UNL     1     101.389 126.806  83.421  0.00  0.00    +0.000 C 
ATOM      9  C   UNL     1     101.569 126.104  82.075  0.00  0.00    +0.000 C 
ENDROOT
BRANCH   2  10
ATOM     10  C   UNL     1     104.526 123.055  81.513  0.00  0.00    +0.000 A 
ATOM     11  C   UNL     1     104.666 121.822  80.856  0.00  0.00    +0.000 A 
ATOM     12  C   UNL     1     104.701 120.617  81.569  0.00  0.00    +0.000 A 
ATOM     13  C   UNL     1     104.596 120.623  82.956  0.00  0.00    +0.000 A 
ATOM     14  C   UNL     1     104.457 121.831  83.631  0.00  0.00    +0.000 A 
ATOM     15  C   UNL     1     104.423 123.034  82.917  0.00  0.00    +0.000 A 
ENDBRANCH   2  10
TORSDOF 1
ENDMDL
