MODEL 1
REMARK VINA RESULT:      -4.2      0.000      0.000
REMARK  Name = *****
REMARK  2 active torsions:
REMARK  status: ('A' for Active; 'I' for Inactive)
REMARK    1  A    between atoms: C_4  and  N_7
REMARK    2  A    between atoms: C_8  and  C_9
REMARK                            x       y       z     vdW  Elec       q    Type
REMARK                         _______ _______ _______ _____ _____    ______ ____
ROOT
ATOM      1  N   UNL     1     101.667 125.896  83.950  0.00  0.00    +0.000 NA
ATOM      2  C   UNL     1     102.804 125.794  83.331  0.00  0.00    +0.000 C 
ATOM      3 CL   UNL     1     103.735 124.397  83.776  0.00  0.00    +0.000 Cl
ENDROOT
BRANCH   2   4
ATOM      4  C   UNL     1     103.354 126.727  82.315  0.00  0.00    +0.000 A 
ATOM      5  C   UNL     1     104.081 127.843  82.739  0.00  0.00    +0.000 A 
ATOM      6  C   UNL     1     104.586 128.726  81.789  0.00  0.00    +0.000 A 
ATOM      7  C   UNL     1     104.363 128.512  80.428  0.00  0.00    +0.000 A 
ATOM      8  C   UNL     1     103.624 127.404  80.009  0.00  0.00    +0.000 A 
ATOM      9  C   UNL     1     103.113 126.512  80.953  0.00  0.00    +0.000 A 
ATOM     10 CL   UNL     1     105.496 130.095  82.298  0.00  0.00    +0.000 Cl
ENDBRANCH   2   4
BRANCH   1  14
ATOM     11  C   UNL     1      98.957 129.003  83.143  0.00  0.00    +0.000 A 
ATOM     12  C   UNL     1      98.821 127.781  82.486  0.00  0.00    +0.000 A 
ATOM     13  C   UNL     1      99.718 126.744  82.750  0.00  0.00    +0.000 A 
ATOM     14  C   UNL     1     100.767 126.928  83.657  0.00  0.00    +0.000 A 
ATOM     15  C   UNL     1     100.876 128.146  84.332  0.00  0.00    +0.000 A 
ATOM     16  C   UNL     1      99.981 129.185  84.071  0.00  0.00    +0.000 A 
ENDBRANCH   1  14
TORSDOF 2
ENDMDL
