REMARK  Name = *****
REMARK  3 active torsions:
REMARK  status: ('A' for Active; 'I' for Inactive)
REMARK    1  A    between atoms: C_6  and  C_7
REMARK    2  A    between atoms: C_7  and  S_8
REMARK    3  A    between atoms: S_8  and  C_9
REMARK                            x       y       z     vdW  Elec       q    Type
REMARK                         _______ _______ _______ _____ _____    ______ ____
ROOT
ATOM      1  C   UNL     1       2.557   0.702  -0.625  0.00  0.00    +0.000 A 
ATOM      2  C   UNL     1       1.173   0.800  -0.786  0.00  0.00    +0.000 A 
ATOM      3  C   UNL     1       0.333  -0.077  -0.103  0.00  0.00    +0.000 A 
ATOM      4  C   UNL     1       0.864  -1.055   0.735  0.00  0.00    +0.000 A 
ATOM      5  C   UNL     1       2.248  -1.153   0.895  0.00  0.00    +0.000 A 
ATOM      6  C   UNL     1       3.108  -0.271   0.223  0.00  0.00    +0.000 A 
ATOM      7 BR   UNL     1      -1.540   0.056  -0.321  0.00  0.00    +0.000 Br
ENDROOT
BRANCH   6   8
ATOM      8  C   UNL     1       4.604  -0.387   0.386  0.00  0.00    +0.000 C 
BRANCH   8   9
ATOM      9  S   UNL     1       5.329  -1.483  -0.870  0.00  0.00    +0.000 S 
BRANCH   9  10
ATOM     10  C   UNL     1       6.997  -1.513  -0.328  0.00  0.00    +0.000 A 
ATOM     11  C   UNL     1       7.633  -2.646   0.127  0.00  0.00    +0.000 A 
ATOM     12  S   UNL     1       9.255  -2.329   0.576  0.00  0.00    +0.000 S 
ATOM     13  C   UNL     1       9.111  -0.680   0.137  0.00  0.00    +0.000 A 
ATOM     14  C   UNL     1       7.853  -0.377  -0.336  0.00  0.00    +0.000 A 
ENDBRANCH   9  10
ENDBRANCH   8   9
ENDBRANCH   6   8
TORSDOF 3
