MODEL 1
REMARK VINA RESULT:      -5.1      0.000      0.000
REMARK  Name = *****
REMARK  5 active torsions:
REMARK  status: ('A' for Active; 'I' for Inactive)
REMARK    1  A    between atoms: C_1  and  C_2
REMARK    2  A    between atoms: C_4  and  C_18
REMARK    3  A    between atoms: C_5  and  C_9
REMARK    4  A    between atoms: C_6  and  C_8
REMARK    5  A    between atoms: C_10  and  C_12
REMARK                            x       y       z     vdW  Elec       q    Type
REMARK                         _______ _______ _______ _____ _____    ______ ____
ROOT
ATOM      1  C   UNL     1      89.728  70.685  86.171  0.00  0.00    +0.000 C 
ATOM      2  C   UNL     1      89.286  69.297  86.524  0.00  0.00    +0.000 A 
ATOM      3  C   UNL     1      88.163  69.086  87.323  0.00  0.00    +0.000 A 
ATOM      4  C   UNL     1      87.725  67.786  87.634  0.00  0.00    +0.000 A 
ATOM      5  C   UNL     1      88.388  66.650  87.102  0.00  0.00    +0.000 A 
ATOM      6  C   UNL     1      89.545  66.880  86.312  0.00  0.00    +0.000 A 
ATOM      7  C   UNL     1      89.965  68.189  86.019  0.00  0.00    +0.000 A 
ATOM      8  C   UNL     1      90.345  65.735  85.748  0.00  0.00    +0.000 C 
ATOM      9  C   UNL     1      86.507  67.642  88.514  0.00  0.00    +0.000 C 
ENDROOT
BRANCH   5  10
ATOM     10  C   UNL     1      87.903  65.237  87.397  0.00  0.00    +0.000 C 
ATOM     11  C   UNL     1      88.215  64.571  88.735  0.00  0.00    +0.000 C 
ATOM     12  O   UNL     1      88.901  64.209  87.532  0.00  0.00    +0.000 OA
BRANCH  11  13
ATOM     13  C   UNL     1      87.279  63.541  89.318  0.00  0.00    +0.000 A 
ATOM     14  C   UNL     1      86.657  63.749  90.561  0.00  0.00    +0.000 A 
ATOM     15  C   UNL     1      85.779  62.809  91.106  0.00  0.00    +0.000 A 
ATOM     16  C   UNL     1      85.502  61.634  90.414  0.00  0.00    +0.000 A 
ATOM     17  C   UNL     1      86.100  61.403  89.180  0.00  0.00    +0.000 A 
ATOM     18  C   UNL     1      86.977  62.350  88.639  0.00  0.00    +0.000 A 
ENDBRANCH  11  13
ENDBRANCH   5  10
TORSDOF 2
ENDMDL
