MODEL 1
REMARK VINA RESULT:      -4.7      0.000      0.000
REMARK  Name = *****
REMARK  3 active torsions:
REMARK  status: ('A' for Active; 'I' for Inactive)
REMARK    1  A    between atoms: C_2  and  C_3
REMARK    2  A    between atoms: C_2  and  C_9
REMARK    3  A    between atoms: C_9  and  C_11
REMARK                            x       y       z     vdW  Elec       q    Type
REMARK                         _______ _______ _______ _____ _____    ______ ____
ROOT
ATOM      1  C   UNL     1      87.686  70.833  84.584  0.00  0.00    +0.000 C 
ATOM      2  C   UNL     1      87.621  70.753  85.925  0.00  0.00    +0.000 C 
ENDROOT
BRANCH   2   3
ATOM      3  C   UNL     1      86.488  71.324  86.686  0.00  0.00    +0.000 A 
ATOM      4  C   UNL     1      85.404  71.902  86.005  0.00  0.00    +0.000 A 
ATOM      5  C   UNL     1      84.325  72.445  86.707  0.00  0.00    +0.000 A 
ATOM      6  C   UNL     1      84.310  72.414  88.099  0.00  0.00    +0.000 A 
ATOM      7  C   UNL     1      85.371  71.834  88.791  0.00  0.00    +0.000 A 
ATOM      8  C   UNL     1      86.451  71.290  88.089  0.00  0.00    +0.000 A 
ENDBRANCH   2   3
BRANCH   2   9
ATOM      9  C   UNL     1      88.768  70.110  86.648  0.00  0.00    +0.000 C 
ATOM     10  O   UNL     1      89.649  70.794  87.162  0.00  0.00    +0.000 OA
BRANCH   9  11
ATOM     11  C   UNL     1      88.826  68.625  86.754  0.00  0.00    +0.000 A 
ATOM     12  C   UNL     1      89.959  67.969  86.253  0.00  0.00    +0.000 A 
ATOM     13  C   UNL     1      90.065  66.580  86.341  0.00  0.00    +0.000 A 
ATOM     14  C   UNL     1      89.044  65.840  86.939  0.00  0.00    +0.000 A 
ATOM     15  C   UNL     1      87.922  66.487  87.455  0.00  0.00    +0.000 A 
ATOM     16  C   UNL     1      87.812  67.877  87.369  0.00  0.00    +0.000 A 
ENDBRANCH   9  11
ENDBRANCH   2   9
TORSDOF 3
ENDMDL
