MODEL 1
REMARK VINA RESULT:      -4.8      0.000      0.000
REMARK  Name = *****
REMARK  4 active torsions:
REMARK  status: ('A' for Active; 'I' for Inactive)
REMARK    1  A    between atoms: C_1  and  C_2
REMARK    2  A    between atoms: C_5  and  C_8
REMARK    3  A    between atoms: C_8  and  N_10
REMARK    4  A    between atoms: N_10  and  C_11
REMARK                            x       y       z     vdW  Elec       q    Type
REMARK                         _______ _______ _______ _____ _____    ______ ____
ROOT
ATOM      1  C   UNL     1      88.972  64.297  86.674  0.00  0.00    +0.000 C 
ATOM      2  S   UNL     1      88.854  63.510  85.199  0.00  0.00    +0.000 S 
ENDROOT
BRANCH   1   7
ATOM      3  C   UNL     1      89.120  70.084  86.899  0.00  0.00    +0.000 C 
ATOM      4  C   UNL     1      89.062  68.587  86.813  0.00  0.00    +0.000 A 
ATOM      5  C   UNL     1      87.961  67.889  87.330  0.00  0.00    +0.000 A 
ATOM      6  C   UNL     1      87.916  66.494  87.274  0.00  0.00    +0.000 A 
ATOM      7  C   UNL     1      88.981  65.790  86.706  0.00  0.00    +0.000 A 
ATOM      8  C   UNL     1      90.094  66.474  86.206  0.00  0.00    +0.000 A 
ATOM      9  C   UNL     1      90.133  67.869  86.263  0.00  0.00    +0.000 A 
ENDBRANCH   1   7
BRANCH   1  10
ATOM     10  N   UNL     1      89.027  63.767  87.957  0.00  0.00    +0.000 N 
ATOM     11  H   UNL     1      89.944  63.596  88.275  0.00  0.00    +0.000 HD
BRANCH  10  12
ATOM     12  C   UNL     1      88.030  63.422  88.899  0.00  0.00    +0.000 A 
ATOM     13  C   UNL     1      87.858  64.011  90.152  0.00  0.00    +0.000 A 
ATOM     14  C   UNL     1      86.822  63.598  91.001  0.00  0.00    +0.000 A 
ATOM     15  C   UNL     1      85.950  62.599  90.591  0.00  0.00    +0.000 A 
ATOM     16  C   UNL     1      86.090  62.008  89.345  0.00  0.00    +0.000 A 
ATOM     17  C   UNL     1      87.124  62.422  88.501  0.00  0.00    +0.000 A 
ATOM     18  F   UNL     1      84.961  62.208  91.404  0.00  0.00    +0.000 F 
ENDBRANCH  10  12
ENDBRANCH   1  10
TORSDOF 3
ENDMDL
