MODEL 1
REMARK VINA RESULT:      -4.6      0.000      0.000
REMARK  Name = *****
REMARK  2 active torsions:
REMARK  status: ('A' for Active; 'I' for Inactive)
REMARK    1  A    between atoms: C_5  and  C_7
REMARK    2  A    between atoms: C_8  and  C_9
REMARK                            x       y       z     vdW  Elec       q    Type
REMARK                         _______ _______ _______ _____ _____    ______ ____
ROOT
ATOM      1  C   UNL     1      89.778  68.967  85.811  0.00  0.00    +0.000 C 
ATOM      2  C   UNL     1      89.782  67.923  86.657  0.00  0.00    +0.000 C 
ENDROOT
BRANCH   2   3
ATOM      3  C   UNL     1      90.025  66.528  86.260  0.00  0.00    +0.000 A 
ATOM      4  C   UNL     1      91.159  66.138  85.538  0.00  0.00    +0.000 A 
ATOM      5  C   UNL     1      91.352  64.797  85.217  0.00  0.00    +0.000 A 
ATOM      6  C   UNL     1      90.441  63.824  85.609  0.00  0.00    +0.000 A 
ATOM      7  C   UNL     1      89.317  64.197  86.341  0.00  0.00    +0.000 A 
ATOM      8  C   UNL     1      89.114  65.542  86.668  0.00  0.00    +0.000 A 
ATOM      9  F   UNL     1      92.440  64.437  84.521  0.00  0.00    +0.000 F 
ENDBRANCH   2   3
BRANCH   1  14
ATOM     10  C   UNL     1      87.048  70.715  85.692  0.00  0.00    +0.000 C 
ATOM     11  C   UNL     1      86.738  71.079  87.146  0.00  0.00    +0.000 C 
ATOM     12  C   UNL     1      87.853  70.741  88.092  0.00  0.00    +0.000 C 
ATOM     13  C   UNL     1      89.091  70.421  87.688  0.00  0.00    +0.000 C 
ATOM     14  C   UNL     1      89.519  70.394  86.241  0.00  0.00    +0.000 C 
ATOM     15  C   UNL     1      88.486  71.074  85.320  0.00  0.00    +0.000 C 
ENDBRANCH   1  14
TORSDOF 2
ENDMDL
