MODEL 1
REMARK VINA RESULT:      -4.5      0.000      0.000
REMARK  Name = *****
REMARK  6 active torsions:
REMARK  status: ('A' for Active; 'I' for Inactive)
REMARK    1  A    between atoms: C_1  and  C_2
REMARK    2  A    between atoms: C_5  and  S_8
REMARK    3  A    between atoms: S_8  and  C_9
REMARK    4  A    between atoms: C_9  and  C_10
REMARK    5  A    between atoms: C_13  and  O_16
REMARK    6  A    between atoms: O_16  and  C_17
REMARK                            x       y       z     vdW  Elec       q    Type
REMARK                         _______ _______ _______ _____ _____    ______ ____
ROOT
ATOM      1  C   UNL     1     102.757 127.841  83.150  0.00  0.00    +0.000 C 
ENDROOT
BRANCH   1   2
ATOM      2  C   UNL     1     101.255 127.747  83.052  0.00  0.00    +0.000 A 
ATOM      3  C   UNL     1     100.440 128.744  83.604  0.00  0.00    +0.000 A 
ATOM      4  C   UNL     1      99.045 128.656  83.522  0.00  0.00    +0.000 A 
ATOM      5  C   UNL     1      98.447 127.566  82.891  0.00  0.00    +0.000 A 
ATOM      6  C   UNL     1      99.255 126.566  82.348  0.00  0.00    +0.000 A 
ATOM      7  C   UNL     1     100.648 126.651  82.429  0.00  0.00    +0.000 A 
BRANCH   5   8
ATOM      8  O   UNL     1      97.103 127.359  82.742  0.00  0.00    +0.000 OA
ATOM      9  C   UNL     1      96.415 126.789  83.849  0.00  0.00    +0.000 C 
ENDBRANCH   5   8
ENDBRANCH   1   2
BRANCH   1  10
ATOM     10  S   UNL     1     103.540 127.745  81.506  0.00  0.00    +0.000 S 
BRANCH  10  15
ATOM     11  C   UNL     1     104.962 121.817  81.483  0.00  0.00    +0.000 C 
ATOM     12  C   UNL     1     104.586 123.269  81.474  0.00  0.00    +0.000 A 
ATOM     13  C   UNL     1     104.586 123.996  80.278  0.00  0.00    +0.000 A 
ATOM     14  C   UNL     1     104.265 125.357  80.275  0.00  0.00    +0.000 A 
ATOM     15  C   UNL     1     103.960 126.014  81.470  0.00  0.00    +0.000 A 
ATOM     16  C   UNL     1     103.959 125.289  82.665  0.00  0.00    +0.000 A 
ATOM     17  C   UNL     1     104.280 123.929  82.669  0.00  0.00    +0.000 A 
ENDBRANCH  10  15
ENDBRANCH   1  10
TORSDOF 4
ENDMDL
