MODEL 1
REMARK VINA RESULT:      -4.1      0.000      0.000
REMARK  Name = *****
REMARK  2 active torsions:
REMARK  status: ('A' for Active; 'I' for Inactive)
REMARK    1  A    between atoms: C_5  and  C_6
REMARK    2  A    between atoms: C_7  and  C_8
REMARK                            x       y       z     vdW  Elec       q    Type
REMARK                         _______ _______ _______ _____ _____    ______ ____
ROOT
ATOM      1  C   UNL     1     102.858 126.157  81.571  0.00  0.00    +0.000 C 
ATOM      2  C   UNL     1     101.591 126.029  81.999  0.00  0.00    +0.000 C 
ENDROOT
BRANCH   1   7
ATOM      3  C   UNL     1     105.855 122.045  82.069  0.00  0.00    +0.000 C 
ATOM      4  C   UNL     1     104.908 122.132  83.253  0.00  0.00    +0.000 C 
ATOM      5  S   UNL     1     104.249 123.825  83.308  0.00  0.00    +0.000 S 
ATOM      6  C   UNL     1     104.204 124.045  81.581  0.00  0.00    +0.000 C 
ATOM      7  C   UNL     1     103.591 125.065  80.957  0.00  0.00    +0.000 C 
ATOM      8  S   UNL     1     105.033 122.824  80.646  0.00  0.00    +0.000 S 
ENDBRANCH   1   7
BRANCH   2   9
ATOM      9  C   UNL     1     100.825 127.114  82.631  0.00  0.00    +0.000 A 
ATOM     10  C   UNL     1     101.444 128.178  83.298  0.00  0.00    +0.000 A 
ATOM     11  C   UNL     1     100.682 129.206  83.860  0.00  0.00    +0.000 A 
ATOM     12  C   UNL     1      99.293 129.185  83.750  0.00  0.00    +0.000 A 
ATOM     13  C   UNL     1      98.666 128.140  83.075  0.00  0.00    +0.000 A 
ATOM     14  C   UNL     1      99.429 127.113  82.513  0.00  0.00    +0.000 A 
ENDBRANCH   2   9
TORSDOF 2
ENDMDL
