REMARK  Name = *****
REMARK  4 active torsions:
REMARK  status: ('A' for Active; 'I' for Inactive)
REMARK    1  A    between atoms: C_1  and  C_2
REMARK    2  A    between atoms: C_3  and  C_7
REMARK    3  A    between atoms: C_8  and  C_9
REMARK    4  A    between atoms: C_10  and  C_14
REMARK                            x       y       z     vdW  Elec       q    Type
REMARK                         _______ _______ _______ _____ _____    ______ ____
ROOT
ATOM      1  C   UNL     1       2.702   2.567   0.037  0.00  0.00    +0.000 C 
ATOM      2  C   UNL     1       2.302   3.700   0.029  0.00  0.00    +0.000 C 
ENDROOT
BRANCH   1   5
ATOM      3  C   UNL     1       0.904   0.048   0.121  0.00  0.00    +0.000 C 
ATOM      4  C   UNL     1       2.398   0.083   0.101  0.00  0.00    +0.000 A 
ATOM      5  C   UNL     1       3.184   1.223   0.059  0.00  0.00    +0.000 A 
ATOM      6  S   UNL     1       4.856   0.863   0.041  0.00  0.00    +0.000 S 
ATOM      7  C   UNL     1       4.561  -0.817   0.083  0.00  0.00    +0.000 A 
ATOM      8  C   UNL     1       3.214  -1.099   0.110  0.00  0.00    +0.000 A 
ENDBRANCH   1   5
BRANCH   2   9
ATOM      9  C   UNL     1       1.834   5.049   0.034  0.00  0.00    +0.000 A 
ATOM     10  C   UNL     1       0.506   5.446   0.022  0.00  0.00    +0.000 A 
ATOM     11  C   UNL     1       0.402   6.879   0.029  0.00  0.00    +0.000 A 
ATOM     12  C   UNL     1       1.629   7.502   0.051  0.00  0.00    +0.000 A 
ATOM     13  S   UNL     1       2.912   6.377   0.060  0.00  0.00    +0.000 S 
ATOM     14  C   UNL     1      -0.685   4.543  -0.006  0.00  0.00    +0.000 C 
ENDBRANCH   2   9
TORSDOF 2
