MODEL 1
REMARK VINA RESULT:      -5.1      0.000      0.000
REMARK  Name = *****
REMARK  5 active torsions:
REMARK  status: ('A' for Active; 'I' for Inactive)
REMARK    1  A    between atoms: C_1  and  C_2
REMARK    2  A    between atoms: C_4  and  C_10
REMARK    3  A    between atoms: C_6  and  O_8
REMARK    4  A    between atoms: O_8  and  C_9
REMARK    5  A    between atoms: C_11  and  C_12
REMARK                            x       y       z     vdW  Elec       q    Type
REMARK                         _______ _______ _______ _____ _____    ______ ____
ROOT
ATOM      1  C   UNL     1     100.672 130.248  84.586  0.00  0.00    +0.000 C 
ATOM      2  C   UNL     1     100.351 129.015  83.797  0.00  0.00    +0.000 A 
ATOM      3  C   UNL     1     101.365 128.224  83.247  0.00  0.00    +0.000 A 
ATOM      4  C   UNL     1     101.045 127.076  82.517  0.00  0.00    +0.000 A 
ATOM      5  C   UNL     1      99.707 126.706  82.333  0.00  0.00    +0.000 A 
ATOM      6  C   UNL     1      98.687 127.485  82.879  0.00  0.00    +0.000 A 
ATOM      7  C   UNL     1      99.015 128.633  83.608  0.00  0.00    +0.000 A 
ENDROOT
BRANCH   6   8
ATOM      8  O   UNL     1      97.345 127.239  82.777  0.00  0.00    +0.000 OA
ATOM      9  C   UNL     1      96.739 126.525  83.847  0.00  0.00    +0.000 C 
ENDBRANCH   6   8
BRANCH   4  10
ATOM     10  C   UNL     1     102.088 126.274  81.956  0.00  0.00    +0.000 C 
ATOM     11  C   UNL     1     102.967 125.604  81.485  0.00  0.00    +0.000 C 
BRANCH  11  12
ATOM     12  C   UNL     1     104.013 124.806  80.923  0.00  0.00    +0.000 A 
ATOM     13  C   UNL     1     104.283 123.539  81.446  0.00  0.00    +0.000 A 
ATOM     14  C   UNL     1     105.304 122.759  80.897  0.00  0.00    +0.000 A 
ATOM     15  C   UNL     1     106.053 123.246  79.826  0.00  0.00    +0.000 A 
ATOM     16  C   UNL     1     105.785 124.510  79.302  0.00  0.00    +0.000 A 
ATOM     17  C   UNL     1     104.764 125.291  79.849  0.00  0.00    +0.000 A 
ENDBRANCH  11  12
ENDBRANCH   4  10
TORSDOF 3
ENDMDL
