MODEL 1
REMARK VINA RESULT:      -4.4      0.000      0.000
REMARK  Name = *****
REMARK  3 active torsions:
REMARK  status: ('A' for Active; 'I' for Inactive)
REMARK    1  A    between atoms: C_7  and  C_8
REMARK    2  A    between atoms: C_8  and  N_10
REMARK    3  A    between atoms: N_10  and  C_11
REMARK                            x       y       z     vdW  Elec       q    Type
REMARK                         _______ _______ _______ _____ _____    ______ ____
ROOT
ATOM      1  C   UNL     1      88.988  64.463  86.807  0.00  0.00    +0.000 C 
ATOM      2  S   UNL     1      89.050  63.989  85.196  0.00  0.00    +0.000 S 
ENDROOT
BRANCH   1   9
ATOM      3  C   UNL     1      86.435  66.016  87.149  0.00  0.00    +0.000 C 
ATOM      4  C   UNL     1      87.619  66.651  87.204  0.00  0.00    +0.000 C 
ATOM      5  C   UNL     1      87.668  68.149  87.421  0.00  0.00    +0.000 C 
ATOM      6  C   UNL     1      88.564  68.839  86.395  0.00  0.00    +0.000 C 
ATOM      7  C   UNL     1      89.961  68.224  86.371  0.00  0.00    +0.000 C 
ATOM      8  C   UNL     1      89.894  66.721  86.105  0.00  0.00    +0.000 C 
ATOM      9  C   UNL     1      88.995  65.989  87.126  0.00  0.00    +0.000 C 
ENDBRANCH   1   9
BRANCH   1  10
ATOM     10  N   UNL     1      88.960  63.665  87.945  0.00  0.00    +0.000 N 
ATOM     11  H   UNL     1      89.848  63.340  88.221  0.00  0.00    +0.000 HD
BRANCH  10  12
ATOM     12  C   UNL     1      87.910  63.227  88.783  0.00  0.00    +0.000 A 
ATOM     13  C   UNL     1      87.784  63.885  90.017  0.00  0.00    +0.000 A 
ATOM     14  C   UNL     1      86.770  63.543  90.917  0.00  0.00    +0.000 A 
ATOM     15  C   UNL     1      85.858  62.547  90.588  0.00  0.00    +0.000 A 
ATOM     16  C   UNL     1      85.959  61.902  89.359  0.00  0.00    +0.000 A 
ATOM     17  C   UNL     1      86.976  62.245  88.460  0.00  0.00    +0.000 A 
ENDBRANCH  10  12
ENDBRANCH   1  10
TORSDOF 3
ENDMDL
