MODEL 1
REMARK VINA RESULT:      -5.0      0.000      0.000
REMARK  Name = *****
REMARK  3 active torsions:
REMARK  status: ('A' for Active; 'I' for Inactive)
REMARK    1  A    between atoms: C_4  and  C_7
REMARK    2  A    between atoms: C_8  and  C_9
REMARK    3  A    between atoms: C_11  and  C_15
REMARK                            x       y       z     vdW  Elec       q    Type
REMARK                         _______ _______ _______ _____ _____    ______ ____
ROOT
ATOM      1  C   UNL     1     101.936 125.984  82.125  0.00  0.00    +0.000 C 
ATOM      2  C   UNL     1     102.961 126.254  81.300  0.00  0.00    +0.000 C 
ENDROOT
BRANCH   1   6
ATOM      3  C   UNL     1      99.144 128.935  83.465  0.00  0.00    +0.000 A 
ATOM      4  C   UNL     1     100.504 129.122  83.701  0.00  0.00    +0.000 A 
ATOM      5  C   UNL     1     101.427 128.163  83.275  0.00  0.00    +0.000 A 
ATOM      6  C   UNL     1     100.997 127.001  82.619  0.00  0.00    +0.000 A 
ATOM      7  C   UNL     1      99.628 126.833  82.374  0.00  0.00    +0.000 A 
ATOM      8  C   UNL     1      98.705 127.792  82.800  0.00  0.00    +0.000 A 
ENDBRANCH   1   6
BRANCH   2   9
ATOM      9  C   UNL     1     103.911 125.241  80.820  0.00  0.00    +0.000 A 
ATOM     10  C   UNL     1     104.776 125.482  79.744  0.00  0.00    +0.000 A 
ATOM     11  C   UNL     1     105.687 124.498  79.344  0.00  0.00    +0.000 A 
ATOM     12  C   UNL     1     105.752 123.274  80.015  0.00  0.00    +0.000 A 
ATOM     13  C   UNL     1     104.906 123.036  81.096  0.00  0.00    +0.000 A 
ATOM     14  C   UNL     1     103.996 124.017  81.499  0.00  0.00    +0.000 A 
BRANCH  11  15
ATOM     15  C   UNL     1     106.586 124.767  78.204  0.00  0.00    +0.000 C 
ATOM     16  O   UNL     1     106.271 124.507  77.050  0.00  0.00    +0.000 OA
ENDBRANCH  11  15
ENDBRANCH   2   9
TORSDOF 3
ENDMDL
