MODEL 1
REMARK VINA RESULT:      -4.7      0.000      0.000
REMARK  Name = *****
REMARK  2 active torsions:
REMARK  status: ('A' for Active; 'I' for Inactive)
REMARK    1  A    between atoms: C_4  and  C_7
REMARK    2  A    between atoms: C_9  and  C_10
REMARK                            x       y       z     vdW  Elec       q    Type
REMARK                         _______ _______ _______ _____ _____    ______ ____
ROOT
ATOM      1  C   UNL     1      96.597 116.159  78.699  0.00  0.00    +0.000 C 
ATOM      2  C   UNL     1      97.878 116.027  79.032  0.00  0.00    +0.000 C 
ATOM      3  C   UNL     1      96.959 116.421  80.071  0.00  0.00    +0.000 C 
ATOM      4 CL   UNL     1      96.574 115.164  81.235  0.00  0.00    +0.000 Cl
ENDROOT
BRANCH   1   8
ATOM      5  C   UNL     1      95.016 118.153  75.282  0.00  0.00    +0.000 A 
ATOM      6  C   UNL     1      96.203 117.432  75.178  0.00  0.00    +0.000 A 
ATOM      7  C   UNL     1      96.721 116.774  76.297  0.00  0.00    +0.000 A 
ATOM      8  C   UNL     1      96.068 116.845  77.536  0.00  0.00    +0.000 A 
ATOM      9  C   UNL     1      94.862 117.550  77.617  0.00  0.00    +0.000 A 
ATOM     10  C   UNL     1      94.341 118.206  76.499  0.00  0.00    +0.000 A 
ENDBRANCH   1   8
BRANCH   3  11
ATOM     11  C   UNL     1      96.978 117.841  80.584  0.00  0.00    +0.000 A 
ATOM     12  C   UNL     1      98.187 118.563  80.664  0.00  0.00    +0.000 A 
ATOM     13  C   UNL     1      98.239 119.875  81.142  0.00  0.00    +0.000 A 
ATOM     14  C   UNL     1      97.072 120.512  81.550  0.00  0.00    +0.000 A 
ATOM     15  C   UNL     1      95.857 119.840  81.467  0.00  0.00    +0.000 A 
ATOM     16  C   UNL     1      95.813 118.528  80.983  0.00  0.00    +0.000 A 
ENDBRANCH   3  11
TORSDOF 2
ENDMDL
