MODEL 1
REMARK VINA RESULT:      -4.2      0.000      0.000
REMARK  Name = *****
REMARK  2 active torsions:
REMARK  status: ('A' for Active; 'I' for Inactive)
REMARK    1  A    between atoms: C_4  and  C_7
REMARK    2  A    between atoms: N_8  and  C_9
REMARK                            x       y       z     vdW  Elec       q    Type
REMARK                         _______ _______ _______ _____ _____    ______ ____
ROOT
ATOM      1  C   UNL     1      87.543  63.268  88.011  0.00  0.00    +0.000 C 
ATOM      2  N   UNL     1      87.753  63.902  86.900  0.00  0.00    +0.000 NA
ATOM      3  F   UNL     1      87.002  62.044  87.873  0.00  0.00    +0.000 F 
ENDROOT
BRANCH   1   7
ATOM      4  C   UNL     1      88.088  64.435  92.087  0.00  0.00    +0.000 A 
ATOM      5  C   UNL     1      86.820  64.432  91.508  0.00  0.00    +0.000 A 
ATOM      6  C   UNL     1      86.664  64.051  90.174  0.00  0.00    +0.000 A 
ATOM      7  C   UNL     1      87.780  63.685  89.413  0.00  0.00    +0.000 A 
ATOM      8  C   UNL     1      89.047  63.665  90.004  0.00  0.00    +0.000 A 
ATOM      9  C   UNL     1      89.199  64.048  91.338  0.00  0.00    +0.000 A 
ENDBRANCH   1   7
BRANCH   2  10
ATOM     10  C   UNL     1      88.208  65.223  86.870  0.00  0.00    +0.000 A 
ATOM     11  C   UNL     1      89.500  65.489  86.406  0.00  0.00    +0.000 A 
ATOM     12  C   UNL     1      89.975  66.799  86.341  0.00  0.00    +0.000 A 
ATOM     13  C   UNL     1      89.151  67.857  86.722  0.00  0.00    +0.000 A 
ATOM     14  C   UNL     1      87.851  67.606  87.156  0.00  0.00    +0.000 A 
ATOM     15  C   UNL     1      87.378  66.293  87.219  0.00  0.00    +0.000 A 
ENDBRANCH   2  10
TORSDOF 2
ENDMDL
