MODEL 1
REMARK VINA RESULT:      -4.3      0.000      0.000
REMARK  Name = *****
REMARK  3 active torsions:
REMARK  status: ('A' for Active; 'I' for Inactive)
REMARK    1  A    between atoms: C_4  and  C_7
REMARK    2  A    between atoms: C_7  and  P_8
REMARK    3  A    between atoms: P_8  and  C_10
REMARK                            x       y       z     vdW  Elec       q    Type
REMARK                         _______ _______ _______ _____ _____    ______ ____
ROOT
ATOM      1  P   UNL     1      87.964  70.541  85.147  0.00  0.00    +0.000 P 
ATOM      2  S   UNL     1      87.675  69.414  83.573  0.00  0.00    +0.000 S 
ATOM      3 CL   UNL     1      88.953  72.177  84.467  0.00  0.00    +0.000 Cl
ENDROOT
BRANCH   1   4
ATOM      4  C   UNL     1      86.616  71.279  86.060  0.00  0.00    +0.000 A 
ATOM      5  C   UNL     1      86.566  71.236  87.465  0.00  0.00    +0.000 A 
ATOM      6  C   UNL     1      85.491  71.792  88.161  0.00  0.00    +0.000 A 
ATOM      7  C   UNL     1      84.448  72.397  87.466  0.00  0.00    +0.000 A 
ATOM      8  C   UNL     1      84.477  72.445  86.075  0.00  0.00    +0.000 A 
ATOM      9  C   UNL     1      85.551  71.889  85.379  0.00  0.00    +0.000 A 
ENDBRANCH   1   4
BRANCH   1  10
ATOM     10  C   UNL     1      89.169  69.885  86.347  0.00  0.00    +0.000 C 
BRANCH  10  14
ATOM     11  C   UNL     1      88.936  65.629  86.994  0.00  0.00    +0.000 A 
ATOM     12  C   UNL     1      90.024  66.174  86.315  0.00  0.00    +0.000 A 
ATOM     13  C   UNL     1      90.106  67.552  86.116  0.00  0.00    +0.000 A 
ATOM     14  C   UNL     1      89.100  68.400  86.599  0.00  0.00    +0.000 A 
ATOM     15  C   UNL     1      88.008  67.842  87.277  0.00  0.00    +0.000 A 
ATOM     16  C   UNL     1      87.929  66.463  87.475  0.00  0.00    +0.000 A 
ENDBRANCH  10  14
ENDBRANCH   1  10
TORSDOF 3
ENDMDL
