MODEL 1
REMARK VINA RESULT:      -3.3      0.000      0.000
REMARK  Name = *****
REMARK  0 active torsions:
REMARK  status: ('A' for Active; 'I' for Inactive)
REMARK                            x       y       z     vdW  Elec       q    Type
REMARK                         _______ _______ _______ _____ _____    ______ ____
ROOT
ATOM      1  C   UNL     1      87.073  70.842  89.980  0.00  0.00    +0.000 C 
ATOM      2  C   UNL     1      88.434  70.873  89.293  0.00  0.00    +0.000 C 
ATOM      3  S   UNL     1      88.344  70.454  87.530  0.00  0.00    +0.000 S 
ATOM      4  C   UNL     1      87.638  68.847  87.642  0.00  0.00    +0.000 C 
ATOM      5  C   UNL     1      88.244  67.742  87.133  0.00  0.00    +0.000 C 
ATOM      6  S   UNL     1      87.517  66.130  87.216  0.00  0.00    +0.000 S 
ATOM      7  C   UNL     1      88.808  65.369  86.373  0.00  0.00    +0.000 A 
ATOM      8  C   UNL     1      89.846  66.116  85.987  0.00  0.00    +0.000 A 
ATOM      9  S   UNL     1      89.833  67.797  86.354  0.00  0.00    +0.000 S 
ATOM     10  S   UNL     1      91.133  65.329  85.146  0.00  0.00    +0.000 S 
ATOM     11  C   UNL     1      90.407  63.727  85.185  0.00  0.00    +0.000 A 
ATOM     12  O   UNL     1      90.938  62.740  84.700  0.00  0.00    +0.000 OA
ATOM     13  S   UNL     1      88.847  63.685  85.997  0.00  0.00    +0.000 S 
ATOM     14  S   UNL     1      86.045  68.801  88.385  0.00  0.00    +0.000 S 
ATOM     15  C   UNL     1      86.455  69.450  90.030  0.00  0.00    +0.000 C 
ENDROOT
TORSDOF 0
ENDMDL
