MODEL 1
REMARK VINA RESULT:      -4.7      0.000      0.000
REMARK  Name = *****
REMARK  2 active torsions:
REMARK  status: ('A' for Active; 'I' for Inactive)
REMARK    1  A    between atoms: C_6  and  C_7
REMARK    2  A    between atoms: C_8  and  C_9
REMARK                            x       y       z     vdW  Elec       q    Type
REMARK                         _______ _______ _______ _____ _____    ______ ____
ROOT
ATOM      1  C   UNL     1     102.305 126.229  81.950  0.00  0.00    +0.000 C 
ATOM      2  C   UNL     1     103.140 125.523  81.452  0.00  0.00    +0.000 C 
ENDROOT
BRANCH   1   8
ATOM      3  C   UNL     1     101.696 128.213  83.252  0.00  0.00    +0.000 A 
ATOM      4  C   UNL     1     100.726 129.034  83.830  0.00  0.00    +0.000 A 
ATOM      5  C   UNL     1      99.381 128.704  83.697  0.00  0.00    +0.000 A 
ATOM      6  C   UNL     1      98.988 127.569  82.997  0.00  0.00    +0.000 A 
ATOM      7  C   UNL     1      99.956 126.748  82.418  0.00  0.00    +0.000 A 
ATOM      8  C   UNL     1     101.311 127.069  82.545  0.00  0.00    +0.000 A 
ATOM      9  F   UNL     1      98.451 129.492  84.252  0.00  0.00    +0.000 F 
ENDBRANCH   1   8
BRANCH   2  10
ATOM     10  C   UNL     1     104.135 124.685  80.859  0.00  0.00    +0.000 A 
ATOM     11  C   UNL     1     104.832 125.117  79.735  0.00  0.00    +0.000 A 
ATOM     12  C   UNL     1     105.779 124.262  79.207  0.00  0.00    +0.000 A 
ATOM     13  N   UNL     1     106.074 123.044  79.705  0.00  0.00    +0.000 NA
ATOM     14  C   UNL     1     105.380 122.657  80.795  0.00  0.00    +0.000 A 
ATOM     15  C   UNL     1     104.409 123.434  81.404  0.00  0.00    +0.000 A 
ATOM     16 CL   UNL     1     106.688 124.706  77.822  0.00  0.00    +0.000 Cl
ENDBRANCH   2  10
TORSDOF 2
ENDMDL
