REMARK  Name = *****
REMARK  4 active torsions:
REMARK  status: ('A' for Active; 'I' for Inactive)
REMARK    1  A    between atoms: C_1  and  C_2
REMARK    2  A    between atoms: C_5  and  S_8
REMARK    3  A    between atoms: S_8  and  O_10
REMARK    4  A    between atoms: O_10  and  C_11
REMARK                            x       y       z     vdW  Elec       q    Type
REMARK                         _______ _______ _______ _____ _____    ______ ____
ROOT
ATOM      1  S   UNL     1      -3.734  -0.085   0.067  0.00  0.00    +0.000 S 
ATOM      2  O   UNL     1      -4.198   1.342   0.047  0.00  0.00    +0.000 OA
ENDROOT
BRANCH   1   7
ATOM      3  C   UNL     1       2.384   0.048  -0.138  0.00  0.00    +0.000 C 
ATOM      4  C   UNL     1       0.884   0.031  -0.112  0.00  0.00    +0.000 A 
ATOM      5  C   UNL     1       0.151   1.223  -0.104  0.00  0.00    +0.000 A 
ATOM      6  C   UNL     1      -1.246   1.195  -0.067  0.00  0.00    +0.000 A 
ATOM      7  C   UNL     1      -1.928  -0.025  -0.043  0.00  0.00    +0.000 A 
ATOM      8  C   UNL     1      -1.197  -1.219  -0.054  0.00  0.00    +0.000 A 
ATOM      9  C   UNL     1       0.200  -1.190  -0.090  0.00  0.00    +0.000 A 
ENDBRANCH   1   7
BRANCH   1  10
ATOM     10  O   UNL     1      -3.895  -0.665  -1.429  0.00  0.00    +0.000 OA
BRANCH  10  11
ATOM     11  C   UNL     1      -4.973  -1.481  -1.671  0.00  0.00    +0.000 A 
ATOM     12  C   UNL     1      -6.259  -1.260  -1.167  0.00  0.00    +0.000 A 
ATOM     13  C   UNL     1      -7.298  -2.137  -1.491  0.00  0.00    +0.000 A 
ATOM     14  C   UNL     1      -7.056  -3.218  -2.337  0.00  0.00    +0.000 A 
ATOM     15  C   UNL     1      -5.784  -3.426  -2.869  0.00  0.00    +0.000 A 
ATOM     16  C   UNL     1      -4.745  -2.553  -2.539  0.00  0.00    +0.000 A 
ATOM     17 CL   UNL     1      -8.337  -4.293  -2.738  0.00  0.00    +0.000 Cl
ENDBRANCH  10  11
ENDBRANCH   1  10
TORSDOF 3
