REMARK  Name = *****
REMARK  5 active torsions:
REMARK  status: ('A' for Active; 'I' for Inactive)
REMARK    1  A    between atoms: C_1  and  C_2
REMARK    2  A    between atoms: C_7  and  S_8
REMARK    3  A    between atoms: S_8  and  S_9
REMARK    4  A    between atoms: S_9  and  C_12
REMARK    5  A    between atoms: C_17  and  C_18
REMARK                            x       y       z     vdW  Elec       q    Type
REMARK                         _______ _______ _______ _____ _____    ______ ____
ROOT
ATOM      1  S   UNL     1       3.459  -2.257  -0.148  0.00  0.00    +0.000 S 
ATOM      2  O   UNL     1       3.887  -1.759  -1.440  0.00  0.00    +0.000 OA
ATOM      3  O   UNL     1       3.715  -1.494   1.060  0.00  0.00    +0.000 OA
ENDROOT
BRANCH   1   4
ATOM      4  C   UNL     1       4.163  -3.888   0.084  0.00  0.00    +0.000 A 
ATOM      5  C   UNL     1       4.566  -4.234   1.385  0.00  0.00    +0.000 A 
ATOM      6  C   UNL     1       5.137  -5.480   1.637  0.00  0.00    +0.000 A 
ATOM      7  C   UNL     1       5.318  -6.381   0.593  0.00  0.00    +0.000 A 
ATOM      8  C   UNL     1       4.928  -6.039  -0.703  0.00  0.00    +0.000 A 
ATOM      9  C   UNL     1       4.339  -4.792  -0.982  0.00  0.00    +0.000 A 
ATOM     10  C   UNL     1       3.975  -4.489  -2.409  0.00  0.00    +0.000 C 
ENDBRANCH   1   4
BRANCH   1  11
ATOM     11  S   UNL     1       1.401  -2.647  -0.223  0.00  0.00    +0.000 S 
BRANCH  11  18
ATOM     12  C   UNL     1       0.129  -0.795   2.025  0.00  0.00    +0.000 C 
ATOM     13  C   UNL     1       0.190  -0.260   0.620  0.00  0.00    +0.000 A 
ATOM     14  C   UNL     1      -0.317   1.025   0.362  0.00  0.00    +0.000 A 
ATOM     15  C   UNL     1      -0.281   1.566  -0.923  0.00  0.00    +0.000 A 
ATOM     16  C   UNL     1       0.262   0.831  -1.971  0.00  0.00    +0.000 A 
ATOM     17  C   UNL     1       0.770  -0.446  -1.733  0.00  0.00    +0.000 A 
ATOM     18  C   UNL     1       0.747  -0.999  -0.443  0.00  0.00    +0.000 A 
ENDBRANCH  11  18
ENDBRANCH   1  11
TORSDOF 3
