MODEL 1
REMARK VINA RESULT:      -4.5      0.000      0.000
REMARK  Name = *****
REMARK  4 active torsions:
REMARK  status: ('A' for Active; 'I' for Inactive)
REMARK    1  A    between atoms: C_6  and  C_7
REMARK    2  A    between atoms: C_7  and  S_8
REMARK    3  A    between atoms: S_8  and  C_9
REMARK    4  A    between atoms: C_12  and  C_14
REMARK                            x       y       z     vdW  Elec       q    Type
REMARK                         _______ _______ _______ _____ _____    ______ ____
ROOT
ATOM      1  S   UNL     1      94.686  95.354  86.610  0.00  0.00    +0.000 S 
ENDROOT
BRANCH   1   2
ATOM      2  C   UNL     1      95.417  96.729  85.849  0.00  0.00    +0.000 A 
ATOM      3  N   UNL     1      95.506  96.921  84.550  0.00  0.00    +0.000 NA
ATOM      4  N   UNL     1      96.150  98.127  84.364  0.00  0.00    +0.000 NA
ATOM      5  C   UNL     1      96.415  98.597  85.568  0.00  0.00    +0.000 A 
ATOM      6  O   UNL     1      95.975  97.756  86.564  0.00  0.00    +0.000 OA
BRANCH   5   7
ATOM      7  C   UNL     1      97.090  99.852  85.985  0.00  0.00    +0.000 C 
ATOM      8  F   UNL     1      98.232 100.094  85.287  0.00  0.00    +0.000 F 
ATOM      9  F   UNL     1      96.295 100.942  85.812  0.00  0.00    +0.000 F 
ATOM     10  F   UNL     1      97.439  99.833  87.300  0.00  0.00    +0.000 F 
ENDBRANCH   5   7
ENDBRANCH   1   2
BRANCH   1  11
ATOM     11  C   UNL     1      94.453  94.274  85.169  0.00  0.00    +0.000 C 
BRANCH  11  17
ATOM     12  C   UNL     1      93.265  92.710  86.764  0.00  0.00    +0.000 A 
ATOM     13  C   UNL     1      92.321  91.717  87.029  0.00  0.00    +0.000 A 
ATOM     14  C   UNL     1      91.553  91.205  85.991  0.00  0.00    +0.000 A 
ATOM     15  C   UNL     1      91.710  91.668  84.690  0.00  0.00    +0.000 A 
ATOM     16  C   UNL     1      92.652  92.661  84.421  0.00  0.00    +0.000 A 
ATOM     17  C   UNL     1      93.444  93.188  85.456  0.00  0.00    +0.000 A 
ATOM     18  F   UNL     1      90.647  90.252  86.247  0.00  0.00    +0.000 F 
ENDBRANCH  11  17
ENDBRANCH   1  11
TORSDOF 4
ENDMDL
