MODEL 1
REMARK VINA RESULT:      -4.7      0.000      0.000
REMARK  Name = *****
REMARK  3 active torsions:
REMARK  status: ('A' for Active; 'I' for Inactive)
REMARK    1  A    between atoms: C_6  and  O_7
REMARK    2  A    between atoms: O_7  and  C_8
REMARK    3  A    between atoms: C_8  and  C_9
REMARK                            x       y       z     vdW  Elec       q    Type
REMARK                         _______ _______ _______ _____ _____    ______ ____
ROOT
ATOM      1  C   UNL     1      88.350  67.790  87.039  0.00  0.00    +0.000 A 
ATOM      2  C   UNL     1      87.353  68.020  87.992  0.00  0.00    +0.000 A 
ATOM      3  C   UNL     1      87.255  69.245  88.648  0.00  0.00    +0.000 A 
ATOM      4  C   UNL     1      88.152  70.262  88.354  0.00  0.00    +0.000 A 
ATOM      5  C   UNL     1      89.145  70.056  87.407  0.00  0.00    +0.000 A 
ATOM      6  C   UNL     1      89.240  68.829  86.754  0.00  0.00    +0.000 A 
ATOM      7  F   UNL     1      90.204  68.642  85.842  0.00  0.00    +0.000 F 
ATOM      8  F   UNL     1      90.016  71.033  87.122  0.00  0.00    +0.000 F 
ATOM      9  F   UNL     1      88.063  71.440  88.986  0.00  0.00    +0.000 F 
ATOM     10  F   UNL     1      86.297  69.440  89.564  0.00  0.00    +0.000 F 
ATOM     11  F   UNL     1      86.481  67.046  88.288  0.00  0.00    +0.000 F 
ENDROOT
BRANCH   1  12
ATOM     12  C   UNL     1      88.423  66.486  86.301  0.00  0.00    +0.000 C 
BRANCH  12  13
ATOM     13  O   UNL     1      89.163  65.581  87.115  0.00  0.00    +0.000 OA
BRANCH  13  19
ATOM     14  C   UNL     1      88.448  64.344  89.124  0.00  0.00    +0.000 A 
ATOM     15  C   UNL     1      87.679  63.294  89.638  0.00  0.00    +0.000 A 
ATOM     16  C   UNL     1      86.927  62.494  88.780  0.00  0.00    +0.000 A 
ATOM     17  C   UNL     1      86.935  62.734  87.410  0.00  0.00    +0.000 A 
ATOM     18  C   UNL     1      87.703  63.782  86.898  0.00  0.00    +0.000 A 
ATOM     19  C   UNL     1      88.461  64.593  87.749  0.00  0.00    +0.000 A 
ATOM     20 CL   UNL     1      85.984  61.205  89.420  0.00  0.00    +0.000 Cl
ENDBRANCH  13  19
ENDBRANCH  12  13
ENDBRANCH   1  12
TORSDOF 3
ENDMDL
