MODEL 1
REMARK VINA RESULT:      -5.0      0.000      0.000
REMARK  Name = *****
REMARK  1 active torsions:
REMARK  status: ('A' for Active; 'I' for Inactive)
REMARK    1  A    between atoms: C_9  and  C_10
REMARK                            x       y       z     vdW  Elec       q    Type
REMARK                         _______ _______ _______ _____ _____    ______ ____
ROOT
ATOM      1  C   UNL     1      88.312  70.750  85.799  0.00  0.00    +0.000 C 
ATOM      2  C   UNL     1      87.009  71.217  86.372  0.00  0.00    +0.000 A 
ATOM      3  C   UNL     1      85.904  71.693  85.683  0.00  0.00    +0.000 A 
ATOM      4  C   UNL     1      84.791  72.106  86.418  0.00  0.00    +0.000 A 
ATOM      5  C   UNL     1      84.800  72.048  87.820  0.00  0.00    +0.000 A 
ATOM      6  C   UNL     1      85.921  71.577  88.505  0.00  0.00    +0.000 A 
ATOM      7  C   UNL     1      87.016  71.160  87.768  0.00  0.00    +0.000 A 
ATOM      8  C   UNL     1      88.326  70.648  88.284  0.00  0.00    +0.000 C 
ATOM      9  C   UNL     1      88.995  70.068  87.012  0.00  0.00    +0.000 C 
ENDROOT
BRANCH   9  10
ATOM     10  C   UNL     1      88.933  68.547  86.952  0.00  0.00    +0.000 A 
ATOM     11  C   UNL     1      87.871  67.818  87.511  0.00  0.00    +0.000 A 
ATOM     12  C   UNL     1      87.846  66.424  87.440  0.00  0.00    +0.000 A 
ATOM     13  C   UNL     1      88.882  65.736  86.812  0.00  0.00    +0.000 A 
ATOM     14  C   UNL     1      89.943  66.443  86.255  0.00  0.00    +0.000 A 
ATOM     15  C   UNL     1      89.970  67.837  86.324  0.00  0.00    +0.000 A 
ENDBRANCH   9  10
TORSDOF 1
ENDMDL
