MODEL 1
REMARK VINA RESULT:      -4.5      0.000      0.000
REMARK  Name = *****
REMARK  2 active torsions:
REMARK  status: ('A' for Active; 'I' for Inactive)
REMARK    1  A    between atoms: C_4  and  C_7
REMARK    2  A    between atoms: C_8  and  C_10
REMARK                            x       y       z     vdW  Elec       q    Type
REMARK                         _______ _______ _______ _____ _____    ______ ____
ROOT
ATOM      1  C   UNL     1      88.274  64.487  88.661  0.00  0.00    +0.000 C 
ATOM      2  C   UNL     1      87.890  65.193  87.369  0.00  0.00    +0.000 C 
ATOM      3  O   UNL     1      88.873  64.146  87.400  0.00  0.00    +0.000 OA
ENDROOT
BRANCH   2   4
ATOM      4  C   UNL     1      88.371  66.598  87.116  0.00  0.00    +0.000 A 
ATOM      5  C   UNL     1      89.563  66.850  86.414  0.00  0.00    +0.000 A 
ATOM      6  C   UNL     1      90.004  68.153  86.170  0.00  0.00    +0.000 A 
ATOM      7  C   UNL     1      89.253  69.233  86.627  0.00  0.00    +0.000 A 
ATOM      8  C   UNL     1      88.067  69.016  87.320  0.00  0.00    +0.000 A 
ATOM      9  C   UNL     1      87.632  67.709  87.559  0.00  0.00    +0.000 A 
ATOM     10 CL   UNL     1      89.792  70.839  86.330  0.00  0.00    +0.000 Cl
ENDBRANCH   2   4
BRANCH   1  14
ATOM     11  C   UNL     1      85.512  61.649  90.414  0.00  0.00    +0.000 A 
ATOM     12  C   UNL     1      85.832  62.821  91.093  0.00  0.00    +0.000 A 
ATOM     13  C   UNL     1      86.725  63.734  90.527  0.00  0.00    +0.000 A 
ATOM     14  C   UNL     1      87.321  63.498  89.277  0.00  0.00    +0.000 A 
ATOM     15  C   UNL     1      86.976  62.309  88.610  0.00  0.00    +0.000 A 
ATOM     16  C   UNL     1      86.084  61.392  89.171  0.00  0.00    +0.000 A 
ENDBRANCH   1  14
TORSDOF 2
ENDMDL
