MODEL 1
REMARK VINA RESULT:      -4.3      0.000      0.000
REMARK  Name = *****
REMARK  2 active torsions:
REMARK  status: ('A' for Active; 'I' for Inactive)
REMARK    1  A    between atoms: C_4  and  S_8
REMARK    2  A    between atoms: S_8  and  C_9
REMARK                            x       y       z     vdW  Elec       q    Type
REMARK                         _______ _______ _______ _____ _____    ______ ____
ROOT
ATOM      1  S   UNL     1     102.010 126.918  84.312  0.00  0.00    +0.000 S 
ENDROOT
BRANCH   1   5
ATOM      2  C   UNL     1      97.983 127.200  83.875  0.00  0.00    +0.000 C 
ATOM      3  C   UNL     1      98.605 127.648  82.550  0.00  0.00    +0.000 C 
ATOM      4  C   UNL     1      99.844 126.729  82.456  0.00  0.00    +0.000 C 
ATOM      5  C   UNL     1     100.254 126.551  83.952  0.00  0.00    +0.000 C 
ATOM      6  C   UNL     1      99.256 127.491  84.683  0.00  0.00    +0.000 C 
ATOM      7  C   UNL     1      99.464 128.928  84.252  0.00  0.00    +0.000 C 
ATOM      8  C   UNL     1      99.080 129.018  82.970  0.00  0.00    +0.000 C 
ENDBRANCH   1   5
BRANCH   1   9
ATOM      9  C   UNL     1     102.750 126.552  82.731  0.00  0.00    +0.000 A 
ATOM     10  C   UNL     1     103.203 125.269  82.411  0.00  0.00    +0.000 A 
ATOM     11  C   UNL     1     103.782 125.027  81.166  0.00  0.00    +0.000 A 
ATOM     12  C   UNL     1     103.926 126.055  80.236  0.00  0.00    +0.000 A 
ATOM     13  C   UNL     1     103.491 127.340  80.556  0.00  0.00    +0.000 A 
ATOM     14  C   UNL     1     102.909 127.588  81.802  0.00  0.00    +0.000 A 
ATOM     15 CL   UNL     1     104.329 123.442  80.776  0.00  0.00    +0.000 Cl
ENDBRANCH   1   9
TORSDOF 2
ENDMDL
