MODEL 1
REMARK VINA RESULT:      -4.4      0.000      0.000
REMARK  Name = *****
REMARK  1 active torsions:
REMARK  status: ('A' for Active; 'I' for Inactive)
REMARK    1  A    between atoms: C_8  and  C_11
REMARK                            x       y       z     vdW  Elec       q    Type
REMARK                         _______ _______ _______ _____ _____    ______ ____
ROOT
ATOM      1  C   UNL     1      98.621 127.982  82.698  0.00  0.00    +0.000 C 
ATOM      2  C   UNL     1      99.325 129.195  83.307  0.00  0.00    +0.000 C 
ATOM      3  C   UNL     1     100.511 128.642  84.090  0.00  0.00    +0.000 C 
ATOM      4  C   UNL     1     100.844 127.328  83.385  0.00  0.00    +0.000 C 
ATOM      5  C   UNL     1      99.453 126.766  83.096  0.00  0.00    +0.000 C 
ATOM      6  O   UNL     1     101.558 126.404  84.204  0.00  0.00    +0.000 OA
ATOM      7  O   UNL     1     102.881 126.985  84.481  0.00  0.00    +0.000 OA
ATOM      8  C   UNL     1     103.561 127.149  83.221  0.00  0.00    +0.000 C 
ATOM      9  O   UNL     1     102.839 128.091  82.405  0.00  0.00    +0.000 OA
ATOM     10  O   UNL     1     101.508 127.527  82.128  0.00  0.00    +0.000 OA
ENDROOT
BRANCH   8  11
ATOM     11  C   UNL     1     103.906 125.843  82.516  0.00  0.00    +0.000 A 
ATOM     12  C   UNL     1     104.108 124.660  83.250  0.00  0.00    +0.000 A 
ATOM     13  C   UNL     1     104.385 123.453  82.603  0.00  0.00    +0.000 A 
ATOM     14  C   UNL     1     104.451 123.414  81.212  0.00  0.00    +0.000 A 
ATOM     15  C   UNL     1     104.238 124.569  80.465  0.00  0.00    +0.000 A 
ATOM     16  C   UNL     1     103.961 125.774  81.113  0.00  0.00    +0.000 A 
ATOM     17 CL   UNL     1     104.791 121.928  80.415  0.00  0.00    +0.000 Cl
ENDBRANCH   8  11
TORSDOF 1
ENDMDL
