REMARK  Name = *****
REMARK  2 active torsions:
REMARK  status: ('A' for Active; 'I' for Inactive)
REMARK    1  A    between atoms: C_10  and  C_11
REMARK    2  A    between atoms: C_11  and  C_12
REMARK                            x       y       z     vdW  Elec       q    Type
REMARK                         _______ _______ _______ _____ _____    ______ ____
ROOT
ATOM      1  C   UNL     1       2.325  -0.971   0.384  0.00  0.00    +0.000 A 
ATOM      2  C   UNL     1       2.436   0.412   0.402  0.00  0.00    +0.000 A 
ATOM      3  C   UNL     1       1.295   1.206   0.253  0.00  0.00    +0.000 A 
ATOM      4  C   UNL     1       0.011   0.640   0.076  0.00  0.00    +0.000 A 
ATOM      5  C   UNL     1      -0.083  -0.776   0.076  0.00  0.00    +0.000 A 
ATOM      6  C   UNL     1       1.073  -1.560   0.226  0.00  0.00    +0.000 A 
ATOM      7  C   UNL     1      -1.332  -1.397  -0.069  0.00  0.00    +0.000 A 
ATOM      8  C   UNL     1      -2.493  -0.644  -0.213  0.00  0.00    +0.000 A 
ATOM      9  C   UNL     1      -2.419   0.743  -0.226  0.00  0.00    +0.000 A 
ATOM     10  C   UNL     1      -1.181   1.402  -0.096  0.00  0.00    +0.000 A 
ENDROOT
BRANCH  10  11
ATOM     11  C   UNL     1      -1.194   2.922  -0.125  0.00  0.00    +0.000 C 
BRANCH  11  12
ATOM     12  C   UNL     1      -1.437   3.574   1.211  0.00  0.00    +0.000 A 
ATOM     13  C   UNL     1      -1.413   3.038   2.486  0.00  0.00    +0.000 A 
ATOM     14  C   UNL     1      -1.712   4.003   3.491  0.00  0.00    +0.000 A 
ATOM     15  C   UNL     1      -1.945   5.249   2.956  0.00  0.00    +0.000 A 
ATOM     16  S   UNL     1      -1.801   5.253   1.254  0.00  0.00    +0.000 S 
ENDBRANCH  11  12
ENDBRANCH  10  11
TORSDOF 2
