MODEL 1
REMARK VINA RESULT:      -4.5      0.000      0.000
REMARK  Name = *****
REMARK  2 active torsions:
REMARK  status: ('A' for Active; 'I' for Inactive)
REMARK    1  A    between atoms: C_4  and  C_7
REMARK    2  A    between atoms: C_8  and  C_9
REMARK                            x       y       z     vdW  Elec       q    Type
REMARK                         _______ _______ _______ _____ _____    ______ ____
ROOT
ATOM      1  C   UNL     1     102.269 126.147  81.936  0.00  0.00    +0.000 C 
ATOM      2  C   UNL     1     103.116 125.445  81.455  0.00  0.00    +0.000 C 
ENDROOT
BRANCH   1   6
ATOM      3  C   UNL     1      99.277 128.656  83.547  0.00  0.00    +0.000 A 
ATOM      4  C   UNL     1     100.623 128.979  83.719  0.00  0.00    +0.000 A 
ATOM      5  C   UNL     1     101.614 128.148  83.191  0.00  0.00    +0.000 A 
ATOM      6  C   UNL     1     101.258 126.993  82.490  0.00  0.00    +0.000 A 
ATOM      7  C   UNL     1      99.909 126.670  82.321  0.00  0.00    +0.000 A 
ATOM      8  C   UNL     1      98.920 127.502  82.849  0.00  0.00    +0.000 A 
ENDBRANCH   1   6
BRANCH   2   9
ATOM      9  C   UNL     1     104.114 124.621  80.865  0.00  0.00    +0.000 A 
ATOM     10  C   UNL     1     104.841 124.918  79.735  0.00  0.00    +0.000 A 
ATOM     11  O   UNL     1     105.706 123.904  79.442  0.00  0.00    +0.000 OA
ATOM     12  C   UNL     1     105.529 122.948  80.397  0.00  0.00    +0.000 A 
ATOM     13  C   UNL     1     104.565 123.357  81.280  0.00  0.00    +0.000 A 
ATOM     14  F   UNL     1     104.149 122.684  82.314  0.00  0.00    +0.000 F 
ENDBRANCH   2   9
TORSDOF 2
ENDMDL
