MODEL 1
REMARK VINA RESULT:      -4.4      0.000      0.000
REMARK  Name = *****
REMARK  4 active torsions:
REMARK  status: ('A' for Active; 'I' for Inactive)
REMARK    1  A    between atoms: C_4  and  N_7
REMARK    2  A    between atoms: N_7  and  C_8
REMARK    3  A    between atoms: C_8  and  C_10
REMARK    4  A    between atoms: C_15  and  S_16
REMARK                            x       y       z     vdW  Elec       q    Type
REMARK                         _______ _______ _______ _____ _____    ______ ____
ROOT
ATOM      1  C   UNL     1      88.580  64.133  86.840  0.00  0.00    +0.000 C 
ATOM      2  S   UNL     1      87.812  63.311  85.597  0.00  0.00    +0.000 S 
ENDROOT
BRANCH   1   3
ATOM      3  C   UNL     1      88.923  65.570  86.638  0.00  0.00    +0.000 A 
ATOM      4  C   UNL     1      88.056  66.525  87.193  0.00  0.00    +0.000 A 
ATOM      5  C   UNL     1      88.345  67.882  87.066  0.00  0.00    +0.000 A 
ATOM      6  C   UNL     1      89.497  68.287  86.397  0.00  0.00    +0.000 A 
ATOM      7  C   UNL     1      90.365  67.337  85.852  0.00  0.00    +0.000 A 
ATOM      8  C   UNL     1      90.089  65.967  85.962  0.00  0.00    +0.000 A 
BRANCH   8   9
ATOM      9  S   UNL     1      91.268  64.826  85.255  0.00  0.00    +0.000 S 
ATOM     10  H   UNL     1      91.931  64.184  86.254  0.00  0.00    +0.000 HD
ENDBRANCH   8   9
ENDBRANCH   1   3
BRANCH   1  11
ATOM     11  N   UNL     1      89.008  63.679  88.080  0.00  0.00    +0.000 N 
ATOM     12  H   UNL     1      89.802  63.098  88.034  0.00  0.00    +0.000 HD
BRANCH  11  16
ATOM     13  C   UNL     1      87.351  64.277  91.925  0.00  0.00    +0.000 A 
ATOM     14  C   UNL     1      88.729  64.124  91.806  0.00  0.00    +0.000 A 
ATOM     15  C   UNL     1      89.315  63.925  90.549  0.00  0.00    +0.000 A 
ATOM     16  C   UNL     1      88.532  63.884  89.396  0.00  0.00    +0.000 A 
ATOM     17  C   UNL     1      87.142  64.026  89.535  0.00  0.00    +0.000 A 
ATOM     18  C   UNL     1      86.555  64.226  90.787  0.00  0.00    +0.000 A 
ENDBRANCH  11  16
ENDBRANCH   1  11
TORSDOF 4
ENDMDL
