REMARK  Name = *****
REMARK  4 active torsions:
REMARK  status: ('A' for Active; 'I' for Inactive)
REMARK    1  A    between atoms: C_1  and  O_2
REMARK    2  A    between atoms: O_2  and  P_3
REMARK    3  A    between atoms: P_3  and  C_4
REMARK    4  A    between atoms: P_3  and  C_10
REMARK                            x       y       z     vdW  Elec       q    Type
REMARK                         _______ _______ _______ _____ _____    ______ ____
ROOT
ATOM      1  C   UNL     1       4.915  -1.411  -1.313  0.00  0.00    +0.000 A 
ATOM      2  C   UNL     1       5.607  -2.603  -1.007  0.00  0.00    +0.000 A 
ATOM      3  C   UNL     1       6.993  -2.676  -1.093  0.00  0.00    +0.000 A 
ATOM      4  C   UNL     1       7.717  -1.558  -1.489  0.00  0.00    +0.000 A 
ATOM      5  C   UNL     1       7.071  -0.353  -1.800  0.00  0.00    +0.000 A 
ATOM      6  C   UNL     1       7.843   0.751  -2.199  0.00  0.00    +0.000 A 
ATOM      7  C   UNL     1       7.249   1.969  -2.519  0.00  0.00    +0.000 A 
ATOM      8  C   UNL     1       5.871   2.096  -2.442  0.00  0.00    +0.000 A 
ATOM      9  C   UNL     1       5.092   1.006  -2.045  0.00  0.00    +0.000 A 
ATOM     10  C   UNL     1       5.656  -0.253  -1.715  0.00  0.00    +0.000 A 
ENDROOT
BRANCH   1  11
ATOM     11  P   UNL     1       3.079  -1.545  -1.133  0.00  0.00    +0.000 P 
BRANCH  11  12
ATOM     12  C   UNL     1       2.491  -1.064  -2.799  0.00  0.00    +0.000 A 
ATOM     13  C   UNL     1       3.091  -1.580  -3.958  0.00  0.00    +0.000 A 
ATOM     14  C   UNL     1       2.627  -1.223  -5.228  0.00  0.00    +0.000 A 
ATOM     15  C   UNL     1       1.547  -0.355  -5.358  0.00  0.00    +0.000 A 
ATOM     16  C   UNL     1       0.926   0.153  -4.220  0.00  0.00    +0.000 A 
ATOM     17  C   UNL     1       1.392  -0.203  -2.951  0.00  0.00    +0.000 A 
ENDBRANCH  11  12
BRANCH  11  19
ATOM     18  C   UNL     1       2.869  -0.264   1.105  0.00  0.00    +0.000 C 
ATOM     19  O   UNL     1       2.763  -0.183  -0.310  0.00  0.00    +0.000 OA
ENDBRANCH  11  19
ENDBRANCH   1  11
TORSDOF 3
