MODEL 1
REMARK VINA RESULT:      -4.5      0.000      0.000
REMARK  Name = *****
REMARK  4 active torsions:
REMARK  status: ('A' for Active; 'I' for Inactive)
REMARK    1  A    between atoms: C_1  and  C_2
REMARK    2  A    between atoms: C_5  and  N_8
REMARK    3  A    between atoms: N_8  and  O_18
REMARK    4  A    between atoms: C_9  and  C_11
REMARK                            x       y       z     vdW  Elec       q    Type
REMARK                         _______ _______ _______ _____ _____    ______ ____
ROOT
ATOM      1  N   UNL     1     101.840 126.954  83.220  0.00  0.00    +0.000 N 
ATOM      2  C   UNL     1     100.478 127.186  83.052  0.00  0.00    +0.000 C 
ATOM      3  O   UNL     1      99.719 126.619  82.269  0.00  0.00    +0.000 OA
ENDROOT
BRANCH   1   8
ATOM      4  C   UNL     1     105.080 123.162  80.335  0.00  0.00    +0.000 C 
ATOM      5  C   UNL     1     104.261 124.168  81.085  0.00  0.00    +0.000 A 
ATOM      6  C   UNL     1     103.658 125.237  80.418  0.00  0.00    +0.000 A 
ATOM      7  C   UNL     1     102.869 126.162  81.115  0.00  0.00    +0.000 A 
ATOM      8  C   UNL     1     102.654 126.039  82.492  0.00  0.00    +0.000 A 
ATOM      9  C   UNL     1     103.250 124.950  83.149  0.00  0.00    +0.000 A 
ATOM     10  C   UNL     1     104.039 124.024  82.457  0.00  0.00    +0.000 A 
ENDBRANCH   1   8
BRANCH   2  11
ATOM     11  C   UNL     1      99.862 128.231  83.905  0.00  0.00    +0.000 A 
ATOM     12  C   UNL     1      99.800 129.544  83.424  0.00  0.00    +0.000 A 
ATOM     13  C   UNL     1      99.198 130.538  84.197  0.00  0.00    +0.000 A 
ATOM     14  C   UNL     1      98.648 130.210  85.437  0.00  0.00    +0.000 A 
ATOM     15  C   UNL     1      98.686 128.897  85.910  0.00  0.00    +0.000 A 
ATOM     16  C   UNL     1      99.289 127.900  85.140  0.00  0.00    +0.000 A 
ATOM     17 BR   UNL     1      97.830 131.557  86.482  0.00  0.00    +0.000 Br
ENDBRANCH   2  11
BRANCH   1  18
ATOM     18  O   UNL     1     102.551 127.882  84.021  0.00  0.00    +0.000 OA
ATOM     19  H   UNL     1     103.386 127.485  84.312  0.00  0.00    +0.000 HD
ENDBRANCH   1  18
TORSDOF 3
ENDMDL
