MODEL 1
REMARK VINA RESULT:      -4.6      0.000      0.000
REMARK  Name = *****
REMARK  5 active torsions:
REMARK  status: ('A' for Active; 'I' for Inactive)
REMARK    1  A    between atoms: C_1  and  C_2
REMARK    2  A    between atoms: C_2  and  C_4
REMARK    3  A    between atoms: C_9  and  S_10
REMARK    4  A    between atoms: S_10  and  C_11
REMARK    5  A    between atoms: C_11  and  C_12
REMARK                            x       y       z     vdW  Elec       q    Type
REMARK                         _______ _______ _______ _____ _____    ______ ____
ROOT
ATOM      1  C   UNL     1      99.441 128.590  83.623  0.00  0.00    +0.000 A 
ATOM      2  C   UNL     1      99.085 129.943  83.725  0.00  0.00    +0.000 A 
ATOM      3  C   UNL     1     100.022 130.881  84.153  0.00  0.00    +0.000 A 
ATOM      4  C   UNL     1     101.315 130.472  84.473  0.00  0.00    +0.000 A 
ATOM      5  C   UNL     1     101.677 129.127  84.349  0.00  0.00    +0.000 A 
ATOM      6  C   UNL     1     100.750 128.172  83.908  0.00  0.00    +0.000 A 
ENDROOT
BRANCH   1   8
ATOM      7  C   UNL     1      97.397 127.168  84.225  0.00  0.00    +0.000 C 
ATOM      8  C   UNL     1      98.376 127.658  83.194  0.00  0.00    +0.000 C 
ATOM      9  O   UNL     1      98.297 127.349  82.008  0.00  0.00    +0.000 OA
ENDBRANCH   1   8
BRANCH   6  10
ATOM     10  S   UNL     1     101.336 126.495  83.711  0.00  0.00    +0.000 S 
BRANCH  10  11
ATOM     11  C   UNL     1     102.138 126.663  82.078  0.00  0.00    +0.000 C 
BRANCH  11  12
ATOM     12  C   UNL     1     103.107 125.534  81.829  0.00  0.00    +0.000 A 
ATOM     13  C   UNL     1     103.582 125.278  80.535  0.00  0.00    +0.000 A 
ATOM     14  C   UNL     1     104.470 124.228  80.301  0.00  0.00    +0.000 A 
ATOM     15  C   UNL     1     104.888 123.419  81.357  0.00  0.00    +0.000 A 
ATOM     16  C   UNL     1     104.416 123.658  82.646  0.00  0.00    +0.000 A 
ATOM     17  C   UNL     1     103.528 124.709  82.882  0.00  0.00    +0.000 A 
ENDBRANCH  11  12
ENDBRANCH  10  11
ENDBRANCH   6  10
TORSDOF 4
ENDMDL
