MODEL 1
REMARK VINA RESULT:      -4.7      0.000      0.000
REMARK  Name = *****
REMARK  4 active torsions:
REMARK  status: ('A' for Active; 'I' for Inactive)
REMARK    1  A    between atoms: C_2  and  C_3
REMARK    2  A    between atoms: C_3  and  C_4
REMARK    3  A    between atoms: C_3  and  S_10
REMARK    4  A    between atoms: S_10  and  C_11
REMARK                            x       y       z     vdW  Elec       q    Type
REMARK                         _______ _______ _______ _____ _____    ______ ____
ROOT
ATOM      1  C   UNL     1     103.046 126.662  81.244  0.00  0.00    +0.000 C 
ENDROOT
BRANCH   1   2
ATOM      2  C   UNL     1     103.662 125.284  81.444  0.00  0.00    +0.000 A 
ATOM      3  C   UNL     1     103.694 124.655  82.702  0.00  0.00    +0.000 A 
ATOM      4  C   UNL     1     104.277 123.395  82.858  0.00  0.00    +0.000 A 
ATOM      5  C   UNL     1     104.841 122.747  81.762  0.00  0.00    +0.000 A 
ATOM      6  C   UNL     1     104.824 123.355  80.511  0.00  0.00    +0.000 A 
ATOM      7  C   UNL     1     104.240 124.614  80.352  0.00  0.00    +0.000 A 
ENDBRANCH   1   2
BRANCH   1   9
ATOM      8  C   UNL     1     104.510 128.618  80.591  0.00  0.00    +0.000 C 
ATOM      9  C   UNL     1     103.839 127.501  80.268  0.00  0.00    +0.000 C 
ENDBRANCH   1   9
BRANCH   1  10
ATOM     10  S   UNL     1     102.893 127.568  82.842  0.00  0.00    +0.000 S 
BRANCH  10  11
ATOM     11  C   UNL     1     101.120 127.708  82.950  0.00  0.00    +0.000 A 
ATOM     12  C   UNL     1     100.527 128.827  83.543  0.00  0.00    +0.000 A 
ATOM     13  C   UNL     1      99.136 128.931  83.616  0.00  0.00    +0.000 A 
ATOM     14  C   UNL     1      98.333 127.920  83.088  0.00  0.00    +0.000 A 
ATOM     15  C   UNL     1      98.919 126.810  82.482  0.00  0.00    +0.000 A 
ATOM     16  C   UNL     1     100.310 126.706  82.410  0.00  0.00    +0.000 A 
ENDBRANCH  10  11
ENDBRANCH   1  10
TORSDOF 4
ENDMDL
