MODEL 1
REMARK VINA RESULT:      -4.7      0.000      0.000
REMARK  Name = *****
REMARK  5 active torsions:
REMARK  status: ('A' for Active; 'I' for Inactive)
REMARK    1  A    between atoms: C_1  and  C_2
REMARK    2  A    between atoms: C_2  and  O_4
REMARK    3  A    between atoms: O_4  and  C_5
REMARK    4  A    between atoms: C_8  and  C_11
REMARK    5  A    between atoms: C_12  and  C_13
REMARK                            x       y       z     vdW  Elec       q    Type
REMARK                         _______ _______ _______ _____ _____    ______ ____
ROOT
ATOM      1  C   UNL     1     105.620 122.755  80.935  0.00  0.00    +0.000 A 
ATOM      2  C   UNL     1     105.360 123.661  79.910  0.00  0.00    +0.000 A 
ATOM      3  C   UNL     1     104.453 124.701  80.130  0.00  0.00    +0.000 A 
ATOM      4  C   UNL     1     103.785 124.819  81.358  0.00  0.00    +0.000 A 
ATOM      5  C   UNL     1     104.058 123.890  82.374  0.00  0.00    +0.000 A 
ATOM      6  C   UNL     1     104.965 122.850  82.160  0.00  0.00    +0.000 A 
ENDROOT
BRANCH   4   7
ATOM      7  C   UNL     1     102.846 125.916  81.635  0.00  0.00    +0.000 C 
ATOM      8  C   UNL     1     101.867 125.847  82.551  0.00  0.00    +0.000 C 
BRANCH   8   9
ATOM      9  C   UNL     1     100.939 126.949  82.841  0.00  0.00    +0.000 A 
ATOM     10  C   UNL     1     101.354 128.132  83.467  0.00  0.00    +0.000 A 
ATOM     11  C   UNL     1     100.448 129.171  83.696  0.00  0.00    +0.000 A 
ATOM     12  C   UNL     1      99.120 129.042  83.294  0.00  0.00    +0.000 A 
ATOM     13  C   UNL     1      98.698 127.877  82.657  0.00  0.00    +0.000 A 
ATOM     14  C   UNL     1      99.605 126.839  82.426  0.00  0.00    +0.000 A 
ENDBRANCH   8   9
ENDBRANCH   4   7
BRANCH   1  15
ATOM     15  O   UNL     1     106.475 121.665  80.741  0.00  0.00    +0.000 OA
BRANCH  15  17
ATOM     16  C   UNL     1     108.464 122.144  81.895  0.00  0.00    +0.000 C 
ATOM     17  C   UNL     1     107.817 121.976  80.552  0.00  0.00    +0.000 C 
ATOM     18  O   UNL     1     108.401 122.112  79.485  0.00  0.00    +0.000 OA
ENDBRANCH  15  17
ENDBRANCH   1  15
TORSDOF 4
ENDMDL
