REMARK  Name = *****
REMARK  2 active torsions:
REMARK  status: ('A' for Active; 'I' for Inactive)
REMARK    1  A    between atoms: C_4  and  C_7
REMARK    2  A    between atoms: C_8  and  C_9
REMARK                            x       y       z     vdW  Elec       q    Type
REMARK                         _______ _______ _______ _____ _____    ______ ____
ROOT
ATOM      1  C   UNL     1       6.406   0.087  -0.769  0.00  0.00    +0.000 C 
ATOM      2  C   UNL     1       7.578   0.098  -1.033  0.00  0.00    +0.000 C 
ENDROOT
BRANCH   1   6
ATOM      3  C   UNL     1       2.283   0.048   0.148  0.00  0.00    +0.000 A 
ATOM      4  C   UNL     1       2.957   1.263   0.016  0.00  0.00    +0.000 A 
ATOM      5  C   UNL     1       4.320   1.276  -0.287  0.00  0.00    +0.000 A 
ATOM      6  C   UNL     1       5.010   0.074  -0.458  0.00  0.00    +0.000 A 
ATOM      7  C   UNL     1       4.334  -1.141  -0.325  0.00  0.00    +0.000 A 
ATOM      8  C   UNL     1       2.971  -1.153  -0.022  0.00  0.00    +0.000 A 
ENDBRANCH   1   6
BRANCH   2   9
ATOM      9  C   UNL     1       8.973   0.112  -1.350  0.00  0.00    +0.000 A 
ATOM     10  C   UNL     1       9.630   1.326  -1.566  0.00  0.00    +0.000 A 
ATOM     11  C   UNL     1      10.991   1.338  -1.877  0.00  0.00    +0.000 A 
ATOM     12  C   UNL     1      11.696   0.138  -1.972  0.00  0.00    +0.000 A 
ATOM     13  C   UNL     1      11.042  -1.075  -1.756  0.00  0.00    +0.000 A 
ATOM     14  C   UNL     1       9.681  -1.089  -1.445  0.00  0.00    +0.000 A 
ENDBRANCH   2   9
TORSDOF 2
