MODEL 1
REMARK VINA RESULT:      -4.1      0.000      0.000
REMARK  Name = *****
REMARK  4 active torsions:
REMARK  status: ('A' for Active; 'I' for Inactive)
REMARK    1  A    between atoms: C_1  and  S_2
REMARK    2  A    between atoms: S_2  and  C_3
REMARK    3  A    between atoms: C_8  and  C_9
REMARK    4  A    between atoms: C_10  and  C_11
REMARK                            x       y       z     vdW  Elec       q    Type
REMARK                         _______ _______ _______ _____ _____    ______ ____
ROOT
ATOM      1  C   UNL     1     101.515 128.211  83.211  0.00  0.00    +0.000 A 
ATOM      2  C   UNL     1     100.474 128.994  83.733  0.00  0.00    +0.000 A 
ATOM      3  C   UNL     1      99.140 128.631  83.536  0.00  0.00    +0.000 A 
ATOM      4  C   UNL     1      98.832 127.477  82.822  0.00  0.00    +0.000 A 
ATOM      5  C   UNL     1      99.857 126.683  82.307  0.00  0.00    +0.000 A 
ATOM      6  C   UNL     1     101.199 127.039  82.500  0.00  0.00    +0.000 A 
ENDROOT
BRANCH   1   8
ATOM      7  C   UNL     1     102.827 130.213  84.546  0.00  0.00    +0.000 C 
ATOM      8  S   UNL     1     103.192 128.760  83.527  0.00  0.00    +0.000 S 
ENDBRANCH   1   8
BRANCH   6   9
ATOM      9  C   UNL     1     102.210 126.176  81.959  0.00  0.00    +0.000 C 
ATOM     10  C   UNL     1     103.061 125.453  81.518  0.00  0.00    +0.000 C 
BRANCH  10  11
ATOM     11  C   UNL     1     104.077 124.592  81.011  0.00  0.00    +0.000 A 
ATOM     12  C   UNL     1     104.356 123.331  81.493  0.00  0.00    +0.000 A 
ATOM     13  C   UNL     1     105.427 122.709  80.785  0.00  0.00    +0.000 A 
ATOM     14  C   UNL     1     105.925 123.520  79.789  0.00  0.00    +0.000 A 
ATOM     15  S   UNL     1     105.102 125.019  79.712  0.00  0.00    +0.000 S 
ENDBRANCH  10  11
ENDBRANCH   6   9
TORSDOF 3
ENDMDL
