MODEL 1
REMARK VINA RESULT:      -4.4      0.000      0.000
REMARK  Name = *****
REMARK  3 active torsions:
REMARK  status: ('A' for Active; 'I' for Inactive)
REMARK    1  A    between atoms: C_4  and  S_16
REMARK    2  A    between atoms: C_5  and  N_7
REMARK    3  A    between atoms: C_8  and  C_9
REMARK                            x       y       z     vdW  Elec       q    Type
REMARK                         _______ _______ _______ _____ _____    ______ ____
ROOT
ATOM      1  N   UNL     1     102.084 126.099  82.701  0.00  0.00    +0.000 NA
ATOM      2  C   UNL     1     102.564 126.026  81.499  0.00  0.00    +0.000 C 
ENDROOT
BRANCH   2   3
ATOM      3  C   UNL     1     103.651 125.092  81.150  0.00  0.00    +0.000 A 
ATOM      4  C   UNL     1     104.357 125.234  79.952  0.00  0.00    +0.000 A 
ATOM      5  C   UNL     1     105.380 124.336  79.654  0.00  0.00    +0.000 A 
ATOM      6  C   UNL     1     105.700 123.305  80.537  0.00  0.00    +0.000 A 
ATOM      7  C   UNL     1     104.992 123.167  81.733  0.00  0.00    +0.000 A 
ATOM      8  C   UNL     1     103.965 124.061  82.042  0.00  0.00    +0.000 A 
ATOM      9 CL   UNL     1     106.257 124.499  78.183  0.00  0.00    +0.000 Cl
ENDBRANCH   2   3
BRANCH   1  14
ATOM     10  C   UNL     1      98.708 127.624  82.578  0.00  0.00    +0.000 A 
ATOM     11  C   UNL     1      98.928 128.848  83.204  0.00  0.00    +0.000 A 
ATOM     12  C   UNL     1     100.205 129.178  83.662  0.00  0.00    +0.000 A 
ATOM     13  C   UNL     1     101.268 128.281  83.500  0.00  0.00    +0.000 A 
ATOM     14  C   UNL     1     101.044 127.033  82.888  0.00  0.00    +0.000 A 
ATOM     15  C   UNL     1      99.762 126.723  82.418  0.00  0.00    +0.000 A 
BRANCH  13  16
ATOM     16  S   UNL     1     102.889 128.759  84.088  0.00  0.00    +0.000 S 
ATOM     17  H   UNL     1     102.952 128.585  85.435  0.00  0.00    +0.000 HD
ENDBRANCH  13  16
ENDBRANCH   1  14
TORSDOF 3
ENDMDL
