MODEL 1
REMARK VINA RESULT:      -4.1      0.000      0.000
REMARK  Name = *****
REMARK  3 active torsions:
REMARK  status: ('A' for Active; 'I' for Inactive)
REMARK    1  A    between atoms: C_1  and  P_2
REMARK    2  A    between atoms: P_2  and  C_4
REMARK    3  A    between atoms: P_2  and  C_10
REMARK                            x       y       z     vdW  Elec       q    Type
REMARK                         _______ _______ _______ _____ _____    ______ ____
ROOT
ATOM      1  C   UNL     1      88.671  68.804  83.679  0.00  0.00    +0.000 C 
ATOM      2  P   UNL     1      88.362  69.641  85.277  0.00  0.00    +0.000 P 
ATOM      3  S   UNL     1      89.592  68.224  86.143  0.00  0.00    +0.000 S 
ENDROOT
BRANCH   2   4
ATOM      4  C   UNL     1      89.389  71.259  84.633  0.00  0.00    +0.000 C 
ATOM      5  C   UNL     1      88.489  72.212  83.834  0.00  0.00    +0.000 C 
ATOM      6  C   UNL     1      89.233  73.503  83.497  0.00  0.00    +0.000 C 
ATOM      7  C   UNL     1      90.544  73.215  82.766  0.00  0.00    +0.000 C 
ATOM      8  C   UNL     1      91.434  72.252  83.550  0.00  0.00    +0.000 C 
ATOM      9  C   UNL     1      90.703  70.957  83.905  0.00  0.00    +0.000 C 
ENDBRANCH   2   4
BRANCH   2  10
ATOM     10  C   UNL     1      88.054  70.479  86.874  0.00  0.00    +0.000 C 
ATOM     11  C   UNL     1      88.801  70.133  88.178  0.00  0.00    +0.000 C 
ATOM     12  C   UNL     1      88.506  71.157  89.276  0.00  0.00    +0.000 C 
ATOM     13  C   UNL     1      87.008  71.265  89.547  0.00  0.00    +0.000 C 
ATOM     14  C   UNL     1      86.227  71.575  88.275  0.00  0.00    +0.000 C 
ATOM     15  C   UNL     1      86.536  70.579  87.159  0.00  0.00    +0.000 C 
ENDBRANCH   2  10
TORSDOF 2
ENDMDL
