MODEL 1
REMARK VINA RESULT:      -4.9      0.000      0.000
REMARK  Name = *****
REMARK  3 active torsions:
REMARK  status: ('A' for Active; 'I' for Inactive)
REMARK    1  A    between atoms: C_4  and  C_7
REMARK    2  A    between atoms: C_8  and  C_9
REMARK    3  A    between atoms: C_10  and  C_16
REMARK                            x       y       z     vdW  Elec       q    Type
REMARK                         _______ _______ _______ _____ _____    ______ ____
ROOT
ATOM      1  C   UNL     1     104.065 124.651  81.295  0.00  0.00    +0.000 A 
ATOM      2  C   UNL     1     104.638 123.654  82.101  0.00  0.00    +0.000 A 
ATOM      3  C   UNL     1     105.674 122.850  81.599  0.00  0.00    +0.000 A 
ATOM      4  C   UNL     1     106.138 123.041  80.296  0.00  0.00    +0.000 A 
ATOM      5  C   UNL     1     105.566 124.029  79.506  0.00  0.00    +0.000 A 
ATOM      6  C   UNL     1     104.539 124.833  79.990  0.00  0.00    +0.000 A 
ATOM      7  F   UNL     1     106.010 124.212  78.256  0.00  0.00    +0.000 F 
ENDROOT
BRANCH   1   9
ATOM      8  C   UNL     1     102.120 126.217  82.134  0.00  0.00    +0.000 C 
ATOM      9  C   UNL     1     103.008 125.503  81.754  0.00  0.00    +0.000 C 
BRANCH   8  13
ATOM     10  C   UNL     1      99.005 128.733  83.478  0.00  0.00    +0.000 A 
ATOM     11  C   UNL     1      98.705 127.559  82.788  0.00  0.00    +0.000 A 
ATOM     12  C   UNL     1      99.733 126.727  82.343  0.00  0.00    +0.000 A 
ATOM     13  C   UNL     1     101.065 127.070  82.588  0.00  0.00    +0.000 A 
ATOM     14  C   UNL     1     101.365 128.247  83.279  0.00  0.00    +0.000 A 
ATOM     15  C   UNL     1     100.334 129.078  83.723  0.00  0.00    +0.000 A 
ENDBRANCH   8  13
ENDBRANCH   1   9
BRANCH   2  16
ATOM     16  C   UNL     1     104.176 123.418  83.489  0.00  0.00    +0.000 C 
ATOM     17  O   UNL     1     103.919 122.292  83.901  0.00  0.00    +0.000 OA
ENDBRANCH   2  16
TORSDOF 3
ENDMDL
