MODEL 1
REMARK VINA RESULT:      -4.6      0.000      0.000
REMARK  Name = *****
REMARK  4 active torsions:
REMARK  status: ('A' for Active; 'I' for Inactive)
REMARK    1  A    between atoms: C_3  and  O_18
REMARK    2  A    between atoms: C_6  and  C_7
REMARK    3  A    between atoms: C_8  and  C_9
REMARK    4  A    between atoms: C_12  and  C_14
REMARK                            x       y       z     vdW  Elec       q    Type
REMARK                         _______ _______ _______ _____ _____    ______ ____
ROOT
ATOM      1  C   UNL     1     102.656 126.453  81.584  0.00  0.00    +0.000 C 
ATOM      2  C   UNL     1     101.497 126.060  82.135  0.00  0.00    +0.000 C 
ENDROOT
BRANCH   1   8
ATOM      3  C   UNL     1     104.423 125.786  79.918  0.00  0.00    +0.000 A 
ATOM      4  C   UNL     1     105.364 124.863  79.452  0.00  0.00    +0.000 A 
ATOM      5  C   UNL     1     105.550 123.669  80.139  0.00  0.00    +0.000 A 
ATOM      6  C   UNL     1     104.810 123.383  81.278  0.00  0.00    +0.000 A 
ATOM      7  C   UNL     1     103.870 124.307  81.744  0.00  0.00    +0.000 A 
ATOM      8  C   UNL     1     103.677 125.524  81.077  0.00  0.00    +0.000 A 
BRANCH   5   9
ATOM      9  O   UNL     1     106.457 122.740  79.721  0.00  0.00    +0.000 OA
ATOM     10  H   UNL     1     107.149 122.471  80.291  0.00  0.00    +0.000 HD
ENDBRANCH   5   9
ENDBRANCH   1   8
BRANCH   2  11
ATOM     11  C   UNL     1     100.535 126.994  82.601  0.00  0.00    +0.000 A 
ATOM     12  N   UNL     1      99.260 127.038  82.246  0.00  0.00    +0.000 NA
ATOM     13  N   UNL     1      98.663 128.083  82.913  0.00  0.00    +0.000 NA
ATOM     14  C   UNL     1      99.599 128.642  83.652  0.00  0.00    +0.000 A 
ATOM     15  O   UNL     1     100.809 128.005  83.507  0.00  0.00    +0.000 OA
BRANCH  14  16
ATOM     16  C   UNL     1      99.537 129.812  84.578  0.00  0.00    +0.000 C 
ATOM     17 CL   UNL     1      99.436 131.360  83.682  0.00  0.00    +0.000 Cl
ATOM     18 CL   UNL     1      98.094 129.685  85.637  0.00  0.00    +0.000 Cl
ATOM     19 CL   UNL     1     101.005 129.857  85.610  0.00  0.00    +0.000 Cl
ENDBRANCH  14  16
ENDBRANCH   2  11
TORSDOF 4
ENDMDL
