MODEL 1
REMARK VINA RESULT:      -4.5      0.000      0.000
REMARK  Name = *****
REMARK  4 active torsions:
REMARK  status: ('A' for Active; 'I' for Inactive)
REMARK    1  A    between atoms: C_4  and  C_7
REMARK    2  A    between atoms: C_7  and  C_8
REMARK    3  A    between atoms: C_8  and  O_10
REMARK    4  A    between atoms: O_10  and  C_11
REMARK                            x       y       z     vdW  Elec       q    Type
REMARK                         _______ _______ _______ _____ _____    ______ ____
ROOT
ATOM      1  C   UNL     1     102.768 125.389  83.288  0.00  0.00    +0.000 C 
ATOM      2  O   UNL     1     102.385 125.116  84.417  0.00  0.00    +0.000 OA
ENDROOT
BRANCH   1   3
ATOM      3  C   UNL     1     101.918 125.962  82.159  0.00  0.00    +0.000 C 
BRANCH   3   7
ATOM      4  C   UNL     1      99.239 129.273  83.208  0.00  0.00    +0.000 C 
ATOM      5  C   UNL     1     100.509 129.094  84.032  0.00  0.00    +0.000 C 
ATOM      6  C   UNL     1     101.539 128.243  83.282  0.00  0.00    +0.000 C 
ATOM      7  C   UNL     1     100.943 127.024  82.615  0.00  0.00    +0.000 C 
ATOM      8  C   UNL     1      99.613 126.884  82.458  0.00  0.00    +0.000 C 
ATOM      9  C   UNL     1      98.609 127.922  82.872  0.00  0.00    +0.000 C 
ENDBRANCH   3   7
ENDBRANCH   1   3
BRANCH   1  10
ATOM     10  O   UNL     1     104.067 125.238  82.797  0.00  0.00    +0.000 OA
BRANCH  10  11
ATOM     11  C   UNL     1     104.320 123.966  82.284  0.00  0.00    +0.000 A 
ATOM     12  C   UNL     1     104.572 123.824  80.921  0.00  0.00    +0.000 A 
ATOM     13  C   UNL     1     104.878 122.562  80.413  0.00  0.00    +0.000 A 
ATOM     14  C   UNL     1     104.943 121.461  81.272  0.00  0.00    +0.000 A 
ATOM     15  C   UNL     1     104.706 121.620  82.640  0.00  0.00    +0.000 A 
ATOM     16  C   UNL     1     104.400 122.880  83.154  0.00  0.00    +0.000 A 
ENDBRANCH  10  11
ENDBRANCH   1  10
TORSDOF 4
ENDMDL
