MODEL 1
REMARK VINA RESULT:      -4.6      0.000      0.000
REMARK  Name = *****
REMARK  3 active torsions:
REMARK  status: ('A' for Active; 'I' for Inactive)
REMARK    1  A    between atoms: C_1  and  C_2
REMARK    2  A    between atoms: C_3  and  N_9
REMARK    3  A    between atoms: C_10  and  C_11
REMARK                            x       y       z     vdW  Elec       q    Type
REMARK                         _______ _______ _______ _____ _____    ______ ____
ROOT
ATOM      1  C   UNL     1     102.519 128.808  84.027  0.00  0.00    +0.000 C 
ATOM      2  C   UNL     1     101.173 128.376  83.514  0.00  0.00    +0.000 A 
ATOM      3  C   UNL     1     100.980 127.083  82.991  0.00  0.00    +0.000 A 
ATOM      4  C   UNL     1      99.725 126.708  82.491  0.00  0.00    +0.000 A 
ATOM      5  C   UNL     1      98.645 127.585  82.537  0.00  0.00    +0.000 A 
ATOM      6  C   UNL     1      98.816 128.853  83.083  0.00  0.00    +0.000 A 
ATOM      7  C   UNL     1     100.068 129.246  83.566  0.00  0.00    +0.000 A 
ATOM      8 CL   UNL     1     100.196 130.836  84.237  0.00  0.00    +0.000 Cl
ENDROOT
BRANCH   3   9
ATOM      9  N   UNL     1     102.033 126.154  82.918  0.00  0.00    +0.000 NA
ATOM     10  C   UNL     1     102.463 125.878  81.726  0.00  0.00    +0.000 C 
BRANCH  10  11
ATOM     11  C   UNL     1     103.560 124.920  81.495  0.00  0.00    +0.000 A 
ATOM     12  C   UNL     1     104.011 124.084  82.520  0.00  0.00    +0.000 A 
ATOM     13  C   UNL     1     105.049 123.185  82.275  0.00  0.00    +0.000 A 
ATOM     14  C   UNL     1     105.635 123.123  81.010  0.00  0.00    +0.000 A 
ATOM     15  C   UNL     1     105.184 123.957  79.987  0.00  0.00    +0.000 A 
ATOM     16  C   UNL     1     104.145 124.858  80.226  0.00  0.00    +0.000 A 
ENDBRANCH  10  11
ENDBRANCH   3   9
TORSDOF 2
ENDMDL
