MODEL 1
REMARK VINA RESULT:      -4.7      0.000      0.000
REMARK  Name = *****
REMARK  3 active torsions:
REMARK  status: ('A' for Active; 'I' for Inactive)
REMARK    1  A    between atoms: C_4  and  N_7
REMARK    2  A    between atoms: N_7  and  C_8
REMARK    3  A    between atoms: C_8  and  C_10
REMARK                            x       y       z     vdW  Elec       q    Type
REMARK                         _______ _______ _______ _____ _____    ______ ____
ROOT
ATOM      1  C   UNL     1     102.887 126.130  81.328  0.00  0.00    +0.000 C 
ATOM      2  S   UNL     1     103.653 127.290  80.391  0.00  0.00    +0.000 S 
ENDROOT
BRANCH   1   3
ATOM      3  C   UNL     1     103.616 124.870  81.668  0.00  0.00    +0.000 A 
ATOM      4  C   UNL     1     104.239 124.151  80.643  0.00  0.00    +0.000 A 
ATOM      5  C   UNL     1     104.938 122.993  80.960  0.00  0.00    +0.000 A 
ATOM      6  C   UNL     1     105.028 122.542  82.274  0.00  0.00    +0.000 A 
ATOM      7  C   UNL     1     104.408 123.261  83.296  0.00  0.00    +0.000 A 
ATOM      8  C   UNL     1     103.702 124.429  82.996  0.00  0.00    +0.000 A 
ATOM      9  F   UNL     1     105.539 122.301  79.985  0.00  0.00    +0.000 F 
ENDBRANCH   1   3
BRANCH   1  10
ATOM     10  N   UNL     1     101.598 126.125  81.849  0.00  0.00    +0.000 N 
ATOM     11  H   UNL     1     101.133 125.264  81.739  0.00  0.00    +0.000 HD
BRANCH  10  15
ATOM     12  C   UNL     1      99.068 128.928  83.757  0.00  0.00    +0.000 A 
ATOM     13  C   UNL     1     100.446 129.073  83.885  0.00  0.00    +0.000 A 
ATOM     14  C   UNL     1     101.315 128.166  83.267  0.00  0.00    +0.000 A 
ATOM     15  C   UNL     1     100.820 127.109  82.505  0.00  0.00    +0.000 A 
ATOM     16  C   UNL     1      99.427 126.967  82.398  0.00  0.00    +0.000 A 
ATOM     17  C   UNL     1      98.556 127.872  83.014  0.00  0.00    +0.000 A 
ENDBRANCH  10  15
ENDBRANCH   1  10
TORSDOF 3
ENDMDL
