MODEL 1
REMARK VINA RESULT:      -4.8      0.000      0.000
REMARK  Name = *****
REMARK  4 active torsions:
REMARK  status: ('A' for Active; 'I' for Inactive)
REMARK    1  A    between atoms: C_1  and  C_2
REMARK    2  A    between atoms: C_4  and  C_16
REMARK    3  A    between atoms: C_5  and  C_8
REMARK    4  A    between atoms: C_9  and  C_10
REMARK                            x       y       z     vdW  Elec       q    Type
REMARK                         _______ _______ _______ _____ _____    ______ ____
ROOT
ATOM      1  C   UNL     1     107.090 121.670  80.816  0.00  0.00    +0.000 C 
ATOM      2  C   UNL     1     106.018 122.655  81.179  0.00  0.00    +0.000 A 
ATOM      3  C   UNL     1     105.637 122.829  82.517  0.00  0.00    +0.000 A 
ATOM      4  C   UNL     1     104.613 123.724  82.871  0.00  0.00    +0.000 A 
ATOM      5  C   UNL     1     103.957 124.442  81.856  0.00  0.00    +0.000 A 
ATOM      6  C   UNL     1     104.325 124.258  80.520  0.00  0.00    +0.000 A 
ATOM      7  C   UNL     1     105.345 123.367  80.182  0.00  0.00    +0.000 A 
ATOM      8  C   UNL     1     104.240 123.888  84.318  0.00  0.00    +0.000 C 
ENDROOT
BRANCH   5   9
ATOM      9  C   UNL     1     102.903 125.367  82.155  0.00  0.00    +0.000 C 
ATOM     10  C   UNL     1     102.019 126.141  82.405  0.00  0.00    +0.000 C 
BRANCH  10  11
ATOM     11  C   UNL     1     100.962 127.057  82.705  0.00  0.00    +0.000 A 
ATOM     12  C   UNL     1     101.246 128.270  83.335  0.00  0.00    +0.000 A 
ATOM     13  C   UNL     1     100.214 129.165  83.627  0.00  0.00    +0.000 A 
ATOM     14  C   UNL     1      98.899 128.847  83.290  0.00  0.00    +0.000 A 
ATOM     15  C   UNL     1      98.613 127.635  82.661  0.00  0.00    +0.000 A 
ATOM     16  C   UNL     1      99.645 126.740  82.367  0.00  0.00    +0.000 A 
ENDBRANCH  10  11
ENDBRANCH   5   9
TORSDOF 2
ENDMDL
