REMARK  Name = *****
REMARK  6 active torsions:
REMARK  status: ('A' for Active; 'I' for Inactive)
REMARK    1  A    between atoms: C_1  and  O_2
REMARK    2  A    between atoms: O_2  and  C_3
REMARK    3  A    between atoms: C_6  and  O_9
REMARK    4  A    between atoms: O_9  and  C_10
REMARK    5  A    between atoms: C_10  and  O_12
REMARK    6  A    between atoms: O_12  and  C_13
REMARK                            x       y       z     vdW  Elec       q    Type
REMARK                         _______ _______ _______ _____ _____    ______ ____
ROOT
ATOM      1  O   UNL     1       4.605   4.738   1.750  0.00  0.00    +0.000 OA
ENDROOT
BRANCH   1   5
ATOM      2  C   UNL     1       3.305   0.879   0.781  0.00  0.00    +0.000 A 
ATOM      3  C   UNL     1       2.380   1.824   1.235  0.00  0.00    +0.000 A 
ATOM      4  C   UNL     1       2.801   3.113   1.574  0.00  0.00    +0.000 A 
ATOM      5  C   UNL     1       4.151   3.443   1.476  0.00  0.00    +0.000 A 
ATOM      6  C   UNL     1       5.081   2.521   1.005  0.00  0.00    +0.000 A 
ATOM      7  C   UNL     1       4.653   1.237   0.665  0.00  0.00    +0.000 A 
BRANCH   2   9
ATOM      8  C   UNL     1       1.675  -0.837   0.553  0.00  0.00    +0.000 C 
ATOM      9  O   UNL     1       3.024  -0.409   0.415  0.00  0.00    +0.000 OA
ENDBRANCH   2   9
ENDBRANCH   1   5
BRANCH   1  10
ATOM     10  C   UNL     1       4.435   5.174   3.059  0.00  0.00    +0.000 C 
ATOM     11  O   UNL     1       3.949   4.530   3.979  0.00  0.00    +0.000 OA
BRANCH  10  12
ATOM     12  O   UNL     1       4.916   6.474   3.123  0.00  0.00    +0.000 OA
BRANCH  12  13
ATOM     13  C   UNL     1       4.787   7.045   4.389  0.00  0.00    +0.000 A 
ATOM     14  C   UNL     1       5.867   6.996   5.268  0.00  0.00    +0.000 A 
ATOM     15  C   UNL     1       5.757   7.612   6.514  0.00  0.00    +0.000 A 
ATOM     16  C   UNL     1       4.580   8.279   6.862  0.00  0.00    +0.000 A 
ATOM     17  C   UNL     1       3.512   8.339   5.963  0.00  0.00    +0.000 A 
ATOM     18  C   UNL     1       3.615   7.726   4.716  0.00  0.00    +0.000 A 
ENDBRANCH  12  13
ENDBRANCH  10  12
ENDBRANCH   1  10
TORSDOF 5
