MODEL 1
REMARK VINA RESULT:      -4.6      0.000      0.000
REMARK  Name = *****
REMARK  3 active torsions:
REMARK  status: ('A' for Active; 'I' for Inactive)
REMARK    1  A    between atoms: C_5  and  C_7
REMARK    2  A    between atoms: C_7  and  S_8
REMARK    3  A    between atoms: S_8  and  C_9
REMARK                            x       y       z     vdW  Elec       q    Type
REMARK                         _______ _______ _______ _____ _____    ______ ____
ROOT
ATOM      1  S   UNL     1     103.162 127.028  83.744  0.00  0.00    +0.000 S 
ENDROOT
BRANCH   1   2
ATOM      2  C   UNL     1     101.470 127.479  83.376  0.00  0.00    +0.000 A 
ATOM      3  C   UNL     1     101.083 128.787  83.709  0.00  0.00    +0.000 A 
ATOM      4  C   UNL     1      99.777 129.224  83.476  0.00  0.00    +0.000 A 
ATOM      5  C   UNL     1      98.837 128.372  82.911  0.00  0.00    +0.000 A 
ATOM      6  C   UNL     1      99.222 127.081  82.584  0.00  0.00    +0.000 A 
ATOM      7  C   UNL     1     100.520 126.626  82.811  0.00  0.00    +0.000 A 
ATOM      8  F   UNL     1      98.325 126.247  82.041  0.00  0.00    +0.000 F 
ATOM      9 CL   UNL     1      99.327 130.832  83.894  0.00  0.00    +0.000 Cl
ENDBRANCH   1   2
BRANCH   1  10
ATOM     10  C   UNL     1     103.103 125.208  83.886  0.00  0.00    +0.000 C 
BRANCH  10  15
ATOM     11  C   UNL     1     104.322 124.528  80.331  0.00  0.00    +0.000 A 
ATOM     12  C   UNL     1     104.896 123.265  80.471  0.00  0.00    +0.000 A 
ATOM     13  C   UNL     1     104.888 122.634  81.714  0.00  0.00    +0.000 A 
ATOM     14  C   UNL     1     104.309 123.270  82.808  0.00  0.00    +0.000 A 
ATOM     15  C   UNL     1     103.728 124.538  82.690  0.00  0.00    +0.000 A 
ATOM     16  C   UNL     1     103.739 125.161  81.433  0.00  0.00    +0.000 A 
ATOM     17  F   UNL     1     104.307 122.640  83.991  0.00  0.00    +0.000 F 
ENDBRANCH  10  15
ENDBRANCH   1  10
TORSDOF 3
ENDMDL
