MODEL 1
REMARK VINA RESULT:      -4.6      0.000      0.000
REMARK  Name = *****
REMARK  4 active torsions:
REMARK  status: ('A' for Active; 'I' for Inactive)
REMARK    1  A    between atoms: C_4  and  C_17
REMARK    2  A    between atoms: C_5  and  C_7
REMARK    3  A    between atoms: C_7  and  O_9
REMARK    4  A    between atoms: O_9  and  C_10
REMARK                            x       y       z     vdW  Elec       q    Type
REMARK                         _______ _______ _______ _____ _____    ______ ____
ROOT
ATOM      1  C   UNL     1      85.001  72.223  86.039  0.00  0.00    +0.000 A 
ATOM      2  C   UNL     1      84.820  72.223  87.420  0.00  0.00    +0.000 A 
ATOM      3  C   UNL     1      85.741  71.575  88.247  0.00  0.00    +0.000 A 
ATOM      4  C   UNL     1      86.862  70.917  87.707  0.00  0.00    +0.000 A 
ATOM      5  C   UNL     1      87.050  70.954  86.312  0.00  0.00    +0.000 A 
ATOM      6  C   UNL     1      86.110  71.588  85.485  0.00  0.00    +0.000 A 
ENDROOT
BRANCH   4   7
ATOM      7  C   UNL     1      87.813  70.197  88.625  0.00  0.00    +0.000 C 
ATOM      8  F   UNL     1      87.336  70.081  89.897  0.00  0.00    +0.000 F 
ATOM      9  F   UNL     1      88.091  68.925  88.229  0.00  0.00    +0.000 F 
ATOM     10  F   UNL     1      89.011  70.832  88.742  0.00  0.00    +0.000 F 
ENDBRANCH   4   7
BRANCH   5  11
ATOM     11  C   UNL     1      88.204  70.321  85.633  0.00  0.00    +0.000 C 
ATOM     12  O   UNL     1      88.121  69.268  85.024  0.00  0.00    +0.000 OA
BRANCH  11  13
ATOM     13  O   UNL     1      89.277  71.179  85.728  0.00  0.00    +0.000 OA
BRANCH  13  14
ATOM     14  C   UNL     1      89.762  71.606  84.488  0.00  0.00    +0.000 A 
ATOM     15  C   UNL     1      89.270  72.770  83.899  0.00  0.00    +0.000 A 
ATOM     16  C   UNL     1      89.811  73.186  82.686  0.00  0.00    +0.000 A 
ATOM     17  C   UNL     1      90.841  72.462  82.080  0.00  0.00    +0.000 A 
ATOM     18  C   UNL     1      91.339  71.310  82.694  0.00  0.00    +0.000 A 
ATOM     19  C   UNL     1      90.803  70.882  83.907  0.00  0.00    +0.000 A 
ATOM     20 CL   UNL     1      89.214  74.611  81.929  0.00  0.00    +0.000 Cl
ENDBRANCH  13  14
ENDBRANCH  11  13
ENDBRANCH   5  11
TORSDOF 4
ENDMDL
