MODEL 1
REMARK VINA RESULT:      -4.3      0.000      0.000
REMARK  Name = *****
REMARK  3 active torsions:
REMARK  status: ('A' for Active; 'I' for Inactive)
REMARK    1  A    between atoms: C_4  and  O_7
REMARK    2  A    between atoms: O_7  and  C_8
REMARK    3  A    between atoms: C_8  and  C_10
REMARK                            x       y       z     vdW  Elec       q    Type
REMARK                         _______ _______ _______ _____ _____    ______ ____
ROOT
ATOM      1  C   UNL     1     102.797 125.563  83.442  0.00  0.00    +0.000 C 
ATOM      2  O   UNL     1     102.390 125.140  84.514  0.00  0.00    +0.000 OA
ENDROOT
BRANCH   1   3
ATOM      3  C   UNL     1     103.568 124.722  82.484  0.00  0.00    +0.000 A 
ATOM      4  C   UNL     1     104.178 123.514  82.855  0.00  0.00    +0.000 A 
ATOM      5  C   UNL     1     104.889 122.768  81.912  0.00  0.00    +0.000 A 
ATOM      6  C   UNL     1     104.996 123.219  80.596  0.00  0.00    +0.000 A 
ATOM      7  C   UNL     1     104.392 124.416  80.219  0.00  0.00    +0.000 A 
ATOM      8  C   UNL     1     103.680 125.166  81.158  0.00  0.00    +0.000 A 
ENDBRANCH   1   3
BRANCH   1   9
ATOM      9  O   UNL     1     102.644 126.821  82.934  0.00  0.00    +0.000 OA
BRANCH   9  13
ATOM     10  C   UNL     1      98.719 128.519  82.920  0.00  0.00    +0.000 C 
ATOM     11  C   UNL     1      99.650 128.842  84.086  0.00  0.00    +0.000 C 
ATOM     12  C   UNL     1     101.115 128.640  83.689  0.00  0.00    +0.000 C 
ATOM     13  C   UNL     1     101.336 127.348  82.944  0.00  0.00    +0.000 C 
ATOM     14  C   UNL     1     100.333 126.632  82.415  0.00  0.00    +0.000 C 
ATOM     15  C   UNL     1      98.900 127.075  82.445  0.00  0.00    +0.000 C 
ENDBRANCH   9  13
ENDBRANCH   1   9
TORSDOF 3
ENDMDL
