MODEL 1
REMARK VINA RESULT:      -5.2      0.000      0.000
REMARK  Name = *****
REMARK  2 active torsions:
REMARK  status: ('A' for Active; 'I' for Inactive)
REMARK    1  A    between atoms: C_3  and  C_8
REMARK    2  A    between atoms: C_9  and  C_10
REMARK                            x       y       z     vdW  Elec       q    Type
REMARK                         _______ _______ _______ _____ _____    ______ ____
ROOT
ATOM      1  C   UNL     1     102.896 126.231  81.462  0.00  0.00    +0.000 C 
ATOM      2  C   UNL     1     101.848 126.076  82.290  0.00  0.00    +0.000 C 
ENDROOT
BRANCH   2   3
ATOM      3  C   UNL     1     100.942 127.162  82.701  0.00  0.00    +0.000 A 
ATOM      4  C   UNL     1      99.566 127.041  82.450  0.00  0.00    +0.000 A 
ATOM      5  C   UNL     1      98.661 128.028  82.843  0.00  0.00    +0.000 A 
ATOM      6  C   UNL     1      99.125 129.158  83.511  0.00  0.00    +0.000 A 
ATOM      7  C   UNL     1     100.484 129.279  83.781  0.00  0.00    +0.000 A 
ATOM      8  C   UNL     1     101.391 128.297  83.390  0.00  0.00    +0.000 A 
ATOM      9  F   UNL     1     100.929 130.360  84.435  0.00  0.00    +0.000 F 
ATOM     10  F   UNL     1      99.089 125.960  81.816  0.00  0.00    +0.000 F 
ENDBRANCH   2   3
BRANCH   1  13
ATOM     11  C   UNL     1     104.812 122.988  81.590  0.00  0.00    +0.000 A 
ATOM     12  C   UNL     1     103.951 124.040  81.919  0.00  0.00    +0.000 A 
ATOM     13  C   UNL     1     103.788 125.134  81.055  0.00  0.00    +0.000 A 
ATOM     14  C   UNL     1     104.524 125.167  79.865  0.00  0.00    +0.000 A 
ATOM     15  C   UNL     1     105.378 124.115  79.546  0.00  0.00    +0.000 A 
ATOM     16  C   UNL     1     105.526 123.026  80.395  0.00  0.00    +0.000 A 
ATOM     17  F   UNL     1     106.075 124.157  78.402  0.00  0.00    +0.000 F 
ENDBRANCH   1  13
TORSDOF 2
ENDMDL
