REMARK  Name = *****
REMARK  2 active torsions:
REMARK  status: ('A' for Active; 'I' for Inactive)
REMARK    1  A    between atoms: C_4  and  S_8
REMARK    2  A    between atoms: S_8  and  C_9
REMARK                            x       y       z     vdW  Elec       q    Type
REMARK                         _______ _______ _______ _____ _____    ______ ____
ROOT
ATOM      1  C   UNL     1       0.098   0.190   1.256  0.00  0.00    +0.000 C 
ATOM      2  C   UNL     1      -0.202   1.152   0.103  0.00  0.00    +0.000 C 
ATOM      3  C   UNL     1       0.959   0.847  -0.871  0.00  0.00    +0.000 C 
ATOM      4  C   UNL     1       1.213  -0.675  -0.639  0.00  0.00    +0.000 C 
ATOM      5  C   UNL     1       0.078  -1.052   0.354  0.00  0.00    +0.000 C 
ATOM      6  C   UNL     1      -1.280  -0.839  -0.282  0.00  0.00    +0.000 C 
ATOM      7  C   UNL     1      -1.443   0.484  -0.437  0.00  0.00    +0.000 C 
ENDROOT
BRANCH   4   8
ATOM      8  S   UNL     1       1.225  -1.686  -2.163  0.00  0.00    +0.000 S 
BRANCH   8   9
ATOM      9  C   UNL     1       2.644  -0.993  -2.991  0.00  0.00    +0.000 A 
ATOM     10  C   UNL     1       3.924  -1.066  -2.432  0.00  0.00    +0.000 A 
ATOM     11  C   UNL     1       5.020  -0.521  -3.105  0.00  0.00    +0.000 A 
ATOM     12  C   UNL     1       4.843   0.092  -4.344  0.00  0.00    +0.000 A 
ATOM     13  C   UNL     1       3.573   0.155  -4.914  0.00  0.00    +0.000 A 
ATOM     14  C   UNL     1       2.477  -0.390  -4.241  0.00  0.00    +0.000 A 
ENDBRANCH   8   9
ENDBRANCH   4   8
TORSDOF 2
