MODEL 1
REMARK VINA RESULT:      -4.6      0.000      0.000
REMARK  Name = *****
REMARK  6 active torsions:
REMARK  status: ('A' for Active; 'I' for Inactive)
REMARK    1  A    between atoms: C_1  and  C_2
REMARK    2  A    between atoms: C_3  and  C_9
REMARK    3  A    between atoms: C_4  and  C_8
REMARK    4  A    between atoms: C_9  and  C_10
REMARK    5  A    between atoms: C_10  and  C_11
REMARK    6  A    between atoms: C_11  and  C_13
REMARK                            x       y       z     vdW  Elec       q    Type
REMARK                         _______ _______ _______ _____ _____    ______ ____
ROOT
ATOM      1  C   UNL     1      88.574  70.493  86.061  0.00  0.00    +0.000 C 
ENDROOT
BRANCH   1   4
ATOM      2  C   UNL     1      86.276  71.667  84.540  0.00  0.00    +0.000 C 
ATOM      3  C   UNL     1      86.260  71.566  86.043  0.00  0.00    +0.000 A 
ATOM      4  C   UNL     1      87.351  71.039  86.779  0.00  0.00    +0.000 A 
ATOM      5  C   UNL     1      87.275  70.997  88.194  0.00  0.00    +0.000 A 
ATOM      6  C   UNL     1      86.131  71.488  88.843  0.00  0.00    +0.000 A 
ATOM      7  C   UNL     1      85.065  72.005  88.115  0.00  0.00    +0.000 A 
ATOM      8  C   UNL     1      85.131  72.046  86.727  0.00  0.00    +0.000 A 
ATOM      9  C   UNL     1      88.406  70.477  89.044  0.00  0.00    +0.000 C 
ENDBRANCH   1   4
BRANCH   1  10
ATOM     10  C   UNL     1      88.323  69.090  85.510  0.00  0.00    +0.000 C 
BRANCH  10  11
ATOM     11  C   UNL     1      89.040  68.031  86.327  0.00  0.00    +0.000 C 
ATOM     12  O   UNL     1      90.237  68.132  86.598  0.00  0.00    +0.000 OA
BRANCH  11  13
ATOM     13  C   UNL     1      88.201  66.841  86.803  0.00  0.00    +0.000 C 
ATOM     14  C   UNL     1      87.308  67.238  87.985  0.00  0.00    +0.000 C 
ATOM     15  C   UNL     1      86.497  66.056  88.506  0.00  0.00    +0.000 C 
ATOM     16  C   UNL     1      87.387  64.871  88.864  0.00  0.00    +0.000 C 
ATOM     17  C   UNL     1      88.275  64.466  87.692  0.00  0.00    +0.000 C 
ATOM     18  C   UNL     1      89.092  65.646  87.174  0.00  0.00    +0.000 C 
ENDBRANCH  11  13
ENDBRANCH  10  11
ENDBRANCH   1  10
TORSDOF 4
ENDMDL
