REMARK  Name = *****
REMARK  3 active torsions:
REMARK  status: ('A' for Active; 'I' for Inactive)
REMARK    1  A    between atoms: C_5  and  N_7
REMARK    2  A    between atoms: N_7  and  C_8
REMARK    3  A    between atoms: C_8  and  C_10
REMARK                            x       y       z     vdW  Elec       q    Type
REMARK                         _______ _______ _______ _____ _____    ______ ____
ROOT
ATOM      1  N   UNL     1      -1.239  -1.841  -0.345  0.00  0.00    +0.000 N 
ATOM      2  H   UNL     1      -0.772  -2.638  -0.686  0.00  0.00    +0.000 HD
ENDROOT
BRANCH   1   7
ATOM      3  C   UNL     1       0.182   1.533   0.543  0.00  0.00    +0.000 A 
ATOM      4  C   UNL     1       1.545   1.266   0.448  0.00  0.00    +0.000 A 
ATOM      5  C   UNL     1       1.970  -0.009   0.090  0.00  0.00    +0.000 A 
ATOM      6  C   UNL     1       1.026  -1.009  -0.165  0.00  0.00    +0.000 A 
ATOM      7  C   UNL     1      -0.361  -0.760  -0.059  0.00  0.00    +0.000 A 
ATOM      8  C   UNL     1      -0.763   0.529   0.288  0.00  0.00    +0.000 A 
ATOM      9 CL   UNL     1       1.617  -2.576  -0.616  0.00  0.00    +0.000 Cl
ENDBRANCH   1   7
BRANCH   1  10
ATOM     10  C   UNL     1      -2.611  -2.016  -0.245  0.00  0.00    +0.000 C 
ATOM     11  S   UNL     1      -3.774  -0.989   0.388  0.00  0.00    +0.000 S 
BRANCH  10  12
ATOM     12  C   UNL     1      -3.028  -3.347  -0.780  0.00  0.00    +0.000 A 
ATOM     13  C   UNL     1      -3.586  -4.313   0.067  0.00  0.00    +0.000 A 
ATOM     14  C   UNL     1      -3.945  -5.561  -0.448  0.00  0.00    +0.000 A 
ATOM     15  C   UNL     1      -3.742  -5.838  -1.801  0.00  0.00    +0.000 A 
ATOM     16  C   UNL     1      -3.182  -4.880  -2.647  0.00  0.00    +0.000 A 
ATOM     17  C   UNL     1      -2.821  -3.631  -2.137  0.00  0.00    +0.000 A 
ATOM     18 CL   UNL     1      -4.184  -7.377  -2.431  0.00  0.00    +0.000 Cl
ENDBRANCH  10  12
ENDBRANCH   1  10
TORSDOF 3
