MODEL 1
REMARK VINA RESULT:      -4.9      0.000      0.000
REMARK  Name = *****
REMARK  2 active torsions:
REMARK  status: ('A' for Active; 'I' for Inactive)
REMARK    1  A    between atoms: C_4  and  C_9
REMARK    2  A    between atoms: C_10  and  C_11
REMARK                            x       y       z     vdW  Elec       q    Type
REMARK                         _______ _______ _______ _____ _____    ______ ____
ROOT
ATOM      1  C   UNL     1      99.063 128.954  83.462  0.00  0.00    +0.000 C 
ATOM      2  C   UNL     1      98.794 127.812  82.481  0.00  0.00    +0.000 C 
ATOM      3  C   UNL     1      99.746 126.655  82.642  0.00  0.00    +0.000 C 
ATOM      4  C   UNL     1     101.163 127.012  82.594  0.00  0.00    +0.000 C 
ATOM      5  C   UNL     1     100.666 126.437  83.871  0.00  0.00    +0.000 C 
ATOM      6  C   UNL     1     101.317 127.841  83.788  0.00  0.00    +0.000 C 
ATOM      7  C   UNL     1     100.551 129.139  83.764  0.00  0.00    +0.000 C 
ATOM      8 BR   UNL     1      99.655 126.287  85.412  0.00  0.00    +0.000 Br
ENDROOT
BRANCH   4   9
ATOM      9  C   UNL     1     102.189 126.291  81.934  0.00  0.00    +0.000 C 
ATOM     10  C   UNL     1     103.062 125.681  81.379  0.00  0.00    +0.000 C 
BRANCH  10  11
ATOM     11  C   UNL     1     104.104 124.957  80.718  0.00  0.00    +0.000 A 
ATOM     12  C   UNL     1     104.879 125.582  79.739  0.00  0.00    +0.000 A 
ATOM     13  C   UNL     1     105.897 124.875  79.095  0.00  0.00    +0.000 A 
ATOM     14  C   UNL     1     106.140 123.543  79.431  0.00  0.00    +0.000 A 
ATOM     15  C   UNL     1     105.368 122.916  80.409  0.00  0.00    +0.000 A 
ATOM     16  C   UNL     1     104.349 123.623  81.053  0.00  0.00    +0.000 A 
ENDBRANCH  10  11
ENDBRANCH   4   9
TORSDOF 2
ENDMDL
