MODEL 1
REMARK VINA RESULT:      -4.5      0.000      0.000
REMARK  Name = *****
REMARK  4 active torsions:
REMARK  status: ('A' for Active; 'I' for Inactive)
REMARK    1  A    between atoms: C_2  and  C_3
REMARK    2  A    between atoms: C_3  and  C_4
REMARK    3  A    between atoms: C_9  and  C_10
REMARK    4  A    between atoms: C_11  and  C_12
REMARK                            x       y       z     vdW  Elec       q    Type
REMARK                         _______ _______ _______ _____ _____    ______ ____
ROOT
ATOM      1  C   UNL     1     101.438 128.071  83.536  0.00  0.00    +0.000 A 
ATOM      2  C   UNL     1     100.387 128.900  83.966  0.00  0.00    +0.000 A 
ATOM      3  C   UNL     1      99.077 128.680  83.536  0.00  0.00    +0.000 A 
ATOM      4  C   UNL     1      98.796 127.624  82.676  0.00  0.00    +0.000 A 
ATOM      5  C   UNL     1      99.825 126.783  82.250  0.00  0.00    +0.000 A 
ATOM      6  C   UNL     1     101.142 126.997  82.677  0.00  0.00    +0.000 A 
ENDROOT
BRANCH   6   7
ATOM      7  C   UNL     1     102.156 126.091  82.221  0.00  0.00    +0.000 C 
ATOM      8  C   UNL     1     103.000 125.330  81.835  0.00  0.00    +0.000 C 
BRANCH   8   9
ATOM      9  C   UNL     1     103.998 124.416  81.371  0.00  0.00    +0.000 A 
ATOM     10  C   UNL     1     104.364 123.320  82.155  0.00  0.00    +0.000 A 
ATOM     11  C   UNL     1     105.339 122.429  81.700  0.00  0.00    +0.000 A 
ATOM     12  C   UNL     1     105.946 122.634  80.462  0.00  0.00    +0.000 A 
ATOM     13  C   UNL     1     105.582 123.727  79.676  0.00  0.00    +0.000 A 
ATOM     14  C   UNL     1     104.608 124.619  80.130  0.00  0.00    +0.000 A 
ENDBRANCH   8   9
ENDBRANCH   6   7
BRANCH   1  15
ATOM     15  C   UNL     1     102.838 128.345  84.044  0.00  0.00    +0.000 C 
BRANCH  15  17
ATOM     16  C   UNL     1     104.476 128.902  82.217  0.00  0.00    +0.000 C 
ATOM     17  C   UNL     1     103.598 129.287  83.151  0.00  0.00    +0.000 C 
ENDBRANCH  15  17
ENDBRANCH   1  15
TORSDOF 4
ENDMDL
