MODEL 1
REMARK VINA RESULT:      -4.6      0.000      0.000
REMARK  Name = *****
REMARK  7 active torsions:
REMARK  status: ('A' for Active; 'I' for Inactive)
REMARK    1  A    between atoms: C_1  and  C_2
REMARK    2  A    between atoms: C_4  and  C_19
REMARK    3  A    between atoms: C_5  and  O_9
REMARK    4  A    between atoms: C_6  and  C_8
REMARK    5  A    between atoms: O_9  and  C_10
REMARK    6  A    between atoms: C_10  and  C_12
REMARK    7  A    between atoms: C_12  and  C_13
REMARK                            x       y       z     vdW  Elec       q    Type
REMARK                         _______ _______ _______ _____ _____    ______ ____
ROOT
ATOM      1  O   UNL     1      87.671  68.489  86.200  0.00  0.00    +0.000 OA
ENDROOT
BRANCH   1   6
ATOM      2  C   UNL     1      88.468  63.686  89.142  0.00  0.00    +0.000 C 
ATOM      3  C   UNL     1      88.239  64.934  88.341  0.00  0.00    +0.000 A 
ATOM      4  C   UNL     1      87.185  65.798  88.668  0.00  0.00    +0.000 A 
ATOM      5  C   UNL     1      86.981  66.986  87.955  0.00  0.00    +0.000 A 
ATOM      6  C   UNL     1      87.882  67.311  86.929  0.00  0.00    +0.000 A 
ATOM      7  C   UNL     1      88.932  66.455  86.565  0.00  0.00    +0.000 A 
ATOM      8  C   UNL     1      89.112  65.276  87.299  0.00  0.00    +0.000 A 
ATOM      9  C   UNL     1      89.886  66.805  85.460  0.00  0.00    +0.000 C 
ATOM     10  C   UNL     1      85.850  67.902  88.322  0.00  0.00    +0.000 C 
ENDBRANCH   1   6
BRANCH   1  11
ATOM     11  C   UNL     1      88.341  69.591  86.722  0.00  0.00    +0.000 C 
ATOM     12  O   UNL     1      89.152  69.593  87.642  0.00  0.00    +0.000 OA
BRANCH  11  13
ATOM     13  C   UNL     1      87.899  70.830  85.982  0.00  0.00    +0.000 C 
BRANCH  13  14
ATOM     14  C   UNL     1      86.588  71.365  86.494  0.00  0.00    +0.000 A 
ATOM     15  C   UNL     1      85.620  71.838  85.597  0.00  0.00    +0.000 A 
ATOM     16  C   UNL     1      84.416  72.363  86.068  0.00  0.00    +0.000 A 
ATOM     17  C   UNL     1      84.170  72.425  87.438  0.00  0.00    +0.000 A 
ATOM     18  C   UNL     1      85.128  71.964  88.338  0.00  0.00    +0.000 A 
ATOM     19  C   UNL     1      86.333  71.439  87.870  0.00  0.00    +0.000 A 
ENDBRANCH  13  14
ENDBRANCH  11  13
ENDBRANCH   1  11
TORSDOF 4
ENDMDL
