MODEL 1
REMARK VINA RESULT:      -4.9      0.000      0.000
REMARK  Name = *****
REMARK  2 active torsions:
REMARK  status: ('A' for Active; 'I' for Inactive)
REMARK    1  A    between atoms: C_4  and  C_7
REMARK    2  A    between atoms: C_10  and  C_12
REMARK                            x       y       z     vdW  Elec       q    Type
REMARK                         _______ _______ _______ _____ _____    ______ ____
ROOT
ATOM      1  C   UNL     1      89.719  68.466  86.211  0.00  0.00    +0.000 C 
ATOM      2  N   UNL     1      90.062  69.293  85.281  0.00  0.00    +0.000 NA
ATOM      3  O   UNL     1      89.795  70.575  85.805  0.00  0.00    +0.000 OA
ATOM      4  C   UNL     1      89.255  70.365  87.118  0.00  0.00    +0.000 C 
ATOM      5  O   UNL     1      89.237  68.970  87.364  0.00  0.00    +0.000 OA
ENDROOT
BRANCH   4   6
ATOM      6  C   UNL     1      87.851  70.913  87.250  0.00  0.00    +0.000 A 
ATOM      7  C   UNL     1      87.075  71.172  86.103  0.00  0.00    +0.000 A 
ATOM      8  C   UNL     1      85.766  71.650  86.208  0.00  0.00    +0.000 A 
ATOM      9  C   UNL     1      85.204  71.868  87.461  0.00  0.00    +0.000 A 
ATOM     10  C   UNL     1      85.948  71.603  88.609  0.00  0.00    +0.000 A 
ATOM     11  C   UNL     1      87.260  71.124  88.506  0.00  0.00    +0.000 A 
ATOM     12 CL   UNL     1      88.102  70.799  89.981  0.00  0.00    +0.000 Cl
ENDBRANCH   4   6
BRANCH   1  16
ATOM     13  C   UNL     1      89.893  64.204  86.081  0.00  0.00    +0.000 A 
ATOM     14  C   UNL     1      88.903  64.846  86.823  0.00  0.00    +0.000 A 
ATOM     15  C   UNL     1      88.850  66.241  86.859  0.00  0.00    +0.000 A 
ATOM     16  C   UNL     1      89.791  66.998  86.148  0.00  0.00    +0.000 A 
ATOM     17  C   UNL     1      90.783  66.348  85.403  0.00  0.00    +0.000 A 
ATOM     18  C   UNL     1      90.831  64.953  85.370  0.00  0.00    +0.000 A 
ENDBRANCH   1  16
TORSDOF 2
ENDMDL
