MODEL 1
REMARK VINA RESULT:      -4.4      0.000      0.000
REMARK  Name = *****
REMARK  5 active torsions:
REMARK  status: ('A' for Active; 'I' for Inactive)
REMARK    1  A    between atoms: C_1  and  C_2
REMARK    2  A    between atoms: C_5  and  C_8
REMARK    3  A    between atoms: C_8  and  C_9
REMARK    4  A    between atoms: C_9  and  O_11
REMARK    5  A    between atoms: O_11  and  C_12
REMARK                            x       y       z     vdW  Elec       q    Type
REMARK                         _______ _______ _______ _____ _____    ______ ____
ROOT
ATOM      1  C   UNL     1     102.759 125.475  83.179  0.00  0.00    +0.000 C 
ATOM      2  O   UNL     1     102.554 124.973  84.277  0.00  0.00    +0.000 OA
ENDROOT
BRANCH   1   3
ATOM      3  C   UNL     1     101.675 126.025  82.283  0.00  0.00    +0.000 C 
BRANCH   3   8
ATOM      4  C   UNL     1      99.178 130.829  84.438  0.00  0.00    +0.000 C 
ATOM      5  C   UNL     1      99.812 129.592  83.876  0.00  0.00    +0.000 A 
ATOM      6  C   UNL     1      99.037 128.590  83.283  0.00  0.00    +0.000 A 
ATOM      7  C   UNL     1      99.640 127.443  82.759  0.00  0.00    +0.000 A 
ATOM      8  C   UNL     1     101.031 127.280  82.814  0.00  0.00    +0.000 A 
ATOM      9  C   UNL     1     101.805 128.287  83.407  0.00  0.00    +0.000 A 
ATOM     10  C   UNL     1     101.202 129.434  83.926  0.00  0.00    +0.000 A 
ENDBRANCH   3   8
ENDBRANCH   1   3
BRANCH   1  11
ATOM     11  O   UNL     1     103.984 125.623  82.599  0.00  0.00    +0.000 OA
BRANCH  11  12
ATOM     12  C   UNL     1     104.188 124.899  81.372  0.00  0.00    +0.000 C 
ATOM     13  C   UNL     1     104.701 123.487  81.674  0.00  0.00    +0.000 C 
ATOM     14  C   UNL     1     105.063 122.739  80.395  0.00  0.00    +0.000 C 
ATOM     15  C   UNL     1     106.064 123.521  79.548  0.00  0.00    +0.000 C 
ATOM     16  C   UNL     1     105.577 124.938  79.258  0.00  0.00    +0.000 C 
ATOM     17  C   UNL     1     105.213 125.677  80.542  0.00  0.00    +0.000 C 
ENDBRANCH  11  12
ENDBRANCH   1  11
TORSDOF 4
ENDMDL
