MODEL 1
REMARK VINA RESULT:      -4.5      0.000      0.000
REMARK  Name = *****
REMARK  3 active torsions:
REMARK  status: ('A' for Active; 'I' for Inactive)
REMARK    1  A    between atoms: C_4  and  C_7
REMARK    2  A    between atoms: C_7  and  O_8
REMARK    3  A    between atoms: O_8  and  C_9
REMARK                            x       y       z     vdW  Elec       q    Type
REMARK                         _______ _______ _______ _____ _____    ______ ____
ROOT
ATOM      1  O   UNL     1     102.851 126.218  81.302  0.00  0.00    +0.000 OA
ENDROOT
BRANCH   1   2
ATOM      2  C   UNL     1     103.766 125.271  80.896  0.00  0.00    +0.000 A 
ATOM      3  N   UNL     1     104.508 125.480  79.791  0.00  0.00    +0.000 NA
ATOM      4  C   UNL     1     105.379 124.506  79.465  0.00  0.00    +0.000 A 
ATOM      5  C   UNL     1     105.556 123.334  80.173  0.00  0.00    +0.000 A 
ATOM      6  C   UNL     1     104.771 123.158  81.305  0.00  0.00    +0.000 A 
ATOM      7  C   UNL     1     103.859 124.135  81.684  0.00  0.00    +0.000 A 
ATOM      8  I   UNL     1     104.963 121.429  82.438  0.00  0.00    +0.000 I 
ATOM      9 CL   UNL     1     106.299 124.824  78.051  0.00  0.00    +0.000 Cl
ENDBRANCH   1   2
BRANCH   1  10
ATOM     10  C   UNL     1     102.148 125.851  82.490  0.00  0.00    +0.000 C 
BRANCH  10  14
ATOM     11  C   UNL     1      99.111 128.830  83.221  0.00  0.00    +0.000 A 
ATOM     12  C   UNL     1     100.425 129.065  83.619  0.00  0.00    +0.000 A 
ATOM     13  C   UNL     1     101.411 128.103  83.387  0.00  0.00    +0.000 A 
ATOM     14  C   UNL     1     101.089 126.896  82.750  0.00  0.00    +0.000 A 
ATOM     15  C   UNL     1      99.762 126.670  82.356  0.00  0.00    +0.000 A 
ATOM     16  C   UNL     1      98.778 127.633  82.589  0.00  0.00    +0.000 A 
ENDBRANCH  10  14
ENDBRANCH   1  10
TORSDOF 3
ENDMDL
