MODEL 1
REMARK VINA RESULT:      -5.0      0.000      0.000
REMARK  Name = *****
REMARK  3 active torsions:
REMARK  status: ('A' for Active; 'I' for Inactive)
REMARK    1  A    between atoms: C_6  and  C_7
REMARK    2  A    between atoms: C_8  and  C_9
REMARK    3  A    between atoms: C_8  and  C_11
REMARK                            x       y       z     vdW  Elec       q    Type
REMARK                         _______ _______ _______ _____ _____    ______ ____
ROOT
ATOM      1  C   UNL     1     102.227 125.714  82.615  0.00  0.00    +0.000 C 
ATOM      2  C   UNL     1     103.156 125.653  81.640  0.00  0.00    +0.000 C 
ENDROOT
BRANCH   1   8
ATOM      3  C   UNL     1     101.803 127.971  83.539  0.00  0.00    +0.000 A 
ATOM      4  C   UNL     1     100.954 129.046  83.809  0.00  0.00    +0.000 A 
ATOM      5  C   UNL     1      99.623 128.984  83.415  0.00  0.00    +0.000 A 
ATOM      6  C   UNL     1      99.122 127.866  82.759  0.00  0.00    +0.000 A 
ATOM      7  C   UNL     1      99.969 126.789  82.488  0.00  0.00    +0.000 A 
ATOM      8  C   UNL     1     101.318 126.840  82.868  0.00  0.00    +0.000 A 
ATOM      9  F   UNL     1      98.808 130.015  83.677  0.00  0.00    +0.000 F 
ENDBRANCH   1   8
BRANCH   2  10
ATOM     10  C   UNL     1     104.002 124.444  81.539  0.00  0.00    +0.000 A 
ATOM     11  C   UNL     1     104.585 124.073  80.316  0.00  0.00    +0.000 A 
ATOM     12  C   UNL     1     105.389 122.933  80.229  0.00  0.00    +0.000 A 
ATOM     13  C   UNL     1     105.619 122.158  81.363  0.00  0.00    +0.000 A 
ATOM     14  C   UNL     1     105.053 122.513  82.585  0.00  0.00    +0.000 A 
ATOM     15  C   UNL     1     104.249 123.654  82.673  0.00  0.00    +0.000 A 
ATOM     16 CL   UNL     1     106.608 120.755  81.254  0.00  0.00    +0.000 Cl
ENDBRANCH   2  10
BRANCH   2  17
ATOM     17  C   UNL     1     103.385 126.731  80.726  0.00  0.00    +0.000 C 
ATOM     18  N   UNL     1     103.561 127.612  79.992  0.00  0.00    +0.000 NA
ENDBRANCH   2  17
TORSDOF 3
ENDMDL
