MODEL 1
REMARK VINA RESULT:      -3.7      0.000      0.000
REMARK  Name = *****
REMARK  1 active torsions:
REMARK  status: ('A' for Active; 'I' for Inactive)
REMARK    1  A    between atoms: C_7  and  C_9
REMARK                            x       y       z     vdW  Elec       q    Type
REMARK                         _______ _______ _______ _____ _____    ______ ____
ROOT
ATOM      1  C   UNL     1     105.611 123.727  82.587  0.00  0.00    +0.000 A 
ATOM      2  C   UNL     1     106.203 123.488  81.368  0.00  0.00    +0.000 A 
ATOM      3  S   UNL     1     105.356 124.163  80.039  0.00  0.00    +0.000 S 
ATOM      4  C   UNL     1     104.150 124.805  81.126  0.00  0.00    +0.000 A 
ATOM      5  C   UNL     1     104.417 124.494  82.428  0.00  0.00    +0.000 A 
ATOM      6  S   UNL     1     103.209 125.131  83.504  0.00  0.00    +0.000 S 
ATOM      7  C   UNL     1     102.341 125.839  82.179  0.00  0.00    +0.000 A 
ATOM      8  C   UNL     1     102.959 125.573  80.966  0.00  0.00    +0.000 A 
ENDROOT
BRANCH   7   9
ATOM      9  C   UNL     1     101.137 126.579  82.453  0.00  0.00    +0.000 C 
ATOM     10  C   UNL     1     101.205 127.718  83.174  0.00  0.00    +0.000 C 
ATOM     11  S   UNL     1      99.701 128.533  83.492  0.00  0.00    +0.000 S 
ATOM     12  S   UNL     1      98.623 126.949  82.770  0.00  0.00    +0.000 S 
ATOM     13  N   UNL     1      99.881 126.157  82.016  0.00  0.00    +0.000 N 
ATOM     14  H   UNL     1      99.751 125.462  81.331  0.00  0.00    +0.000 HD
ENDBRANCH   7   9
TORSDOF 1
ENDMDL
