MODEL 1
REMARK VINA RESULT:      -4.7      0.000      0.000
REMARK  Name = *****
REMARK  3 active torsions:
REMARK  status: ('A' for Active; 'I' for Inactive)
REMARK    1  A    between atoms: C_3  and  O_8
REMARK    2  A    between atoms: O_8  and  C_9
REMARK    3  A    between atoms: C_9  and  C_11
REMARK                            x       y       z     vdW  Elec       q    Type
REMARK                         _______ _______ _______ _____ _____    ______ ____
ROOT
ATOM      1  C   UNL     1     103.408 127.692  82.581  0.00  0.00    +0.000 C 
ATOM      2  O   UNL     1     103.912 128.728  82.172  0.00  0.00    +0.000 OA
ENDROOT
BRANCH   1   3
ATOM      3  C   UNL     1     103.736 126.372  81.998  0.00  0.00    +0.000 A 
ATOM      4  C   UNL     1     103.785 126.139  80.621  0.00  0.00    +0.000 A 
ATOM      5  C   UNL     1     104.102 124.875  80.120  0.00  0.00    +0.000 A 
ATOM      6  C   UNL     1     104.381 123.831  81.000  0.00  0.00    +0.000 A 
ATOM      7  C   UNL     1     104.345 124.065  82.372  0.00  0.00    +0.000 A 
ATOM      8  C   UNL     1     104.029 125.322  82.878  0.00  0.00    +0.000 A 
ATOM      9  F   UNL     1     104.618 123.064  83.216  0.00  0.00    +0.000 F 
ATOM     10  F   UNL     1     103.555 127.120  79.737  0.00  0.00    +0.000 F 
ENDBRANCH   1   3
BRANCH   1  11
ATOM     11  O   UNL     1     102.547 127.547  83.649  0.00  0.00    +0.000 OA
BRANCH  11  14
ATOM     12  C   UNL     1      99.282 129.216  83.426  0.00  0.00    +0.000 A 
ATOM     13  C   UNL     1     100.636 128.990  83.678  0.00  0.00    +0.000 A 
ATOM     14  C   UNL     1     101.202 127.761  83.334  0.00  0.00    +0.000 A 
ATOM     15  C   UNL     1     100.433 126.742  82.776  0.00  0.00    +0.000 A 
ATOM     16  C   UNL     1      99.089 126.984  82.531  0.00  0.00    +0.000 A 
ATOM     17  C   UNL     1      98.506 128.210  82.847  0.00  0.00    +0.000 A 
ATOM     18  F   UNL     1      98.332 126.020  81.988  0.00  0.00    +0.000 F 
ENDBRANCH  11  14
ENDBRANCH   1  11
TORSDOF 3
ENDMDL
