REMARK  Name = *****
REMARK  1 active torsions:
REMARK  status: ('A' for Active; 'I' for Inactive)
REMARK    1  A    between atoms: C_6  and  C_7
REMARK                            x       y       z     vdW  Elec       q    Type
REMARK                         _______ _______ _______ _____ _____    ______ ____
ROOT
ATOM      1  C   UNL     1       0.785   1.209  -0.397  0.00  0.00    +0.000 C 
ATOM      2  C   UNL     1       1.473   0.008   0.253  0.00  0.00    +0.000 C 
ATOM      3  C   UNL     1       0.748  -1.301  -0.061  0.00  0.00    +0.000 C 
ATOM      4  C   UNL     1      -0.718  -1.204   0.280  0.00  0.00    +0.000 C 
ATOM      5  C   UNL     1      -1.321  -2.063   1.054  0.00  0.00    +0.000 C 
ATOM      6  C   UNL     1      -1.922  -2.921   1.827  0.00  0.00    +0.000 C 
ATOM      7  C   UNL     1      -1.427  -0.021  -0.332  0.00  0.00    +0.000 C 
ATOM      8  C   UNL     1      -0.693   1.282  -0.014  0.00  0.00    +0.000 C 
ENDROOT
BRANCH   6   9
ATOM      9  C   UNL     1      -2.525  -2.593   3.136  0.00  0.00    +0.000 A 
ATOM     10  C   UNL     1      -2.453  -1.280   3.640  0.00  0.00    +0.000 A 
ATOM     11  C   UNL     1      -3.015  -0.940   4.875  0.00  0.00    +0.000 A 
ATOM     12  C   UNL     1      -3.661  -1.907   5.637  0.00  0.00    +0.000 A 
ATOM     13  C   UNL     1      -3.745  -3.214   5.163  0.00  0.00    +0.000 A 
ATOM     14  C   UNL     1      -3.184  -3.558   3.925  0.00  0.00    +0.000 A 
ATOM     15 CL   UNL     1      -3.350  -5.213   3.436  0.00  0.00    +0.000 Cl
ENDBRANCH   6   9
TORSDOF 1
