MODEL 1
REMARK VINA RESULT:      -4.1      0.000      0.000
REMARK  Name = *****
REMARK  7 active torsions:
REMARK  status: ('A' for Active; 'I' for Inactive)
REMARK    1  A    between atoms: C_1  and  C_2
REMARK    2  A    between atoms: C_3  and  C_10
REMARK    3  A    between atoms: C_4  and  C_7
REMARK    4  A    between atoms: C_7  and  C_9
REMARK    5  A    between atoms: C_10  and  O_11
REMARK    6  A    between atoms: O_11  and  C_12
REMARK    7  A    between atoms: C_12  and  C_14
REMARK                            x       y       z     vdW  Elec       q    Type
REMARK                         _______ _______ _______ _____ _____    ______ ____
ROOT
ATOM      1  C   UNL     1      89.919  67.834  85.836  0.00  0.00    +0.000 C 
ENDROOT
BRANCH   1   4
ATOM      2  C   UNL     1      90.680  64.742  85.419  0.00  0.00    +0.000 C 
ATOM      3  C   UNL     1      89.622  65.334  86.284  0.00  0.00    +0.000 C 
ATOM      4  C   UNL     1      89.295  66.626  86.462  0.00  0.00    +0.000 C 
ATOM      5  C   UNL     1      88.147  66.786  87.435  0.00  0.00    +0.000 C 
ATOM      6  C   UNL     1      88.040  65.379  88.052  0.00  0.00    +0.000 C 
ATOM      7  C   UNL     1      88.750  64.425  87.097  0.00  0.00    +0.000 C 
BRANCH   5   8
ATOM      8  C   UNL     1      86.878  67.301  86.770  0.00  0.00    +0.000 C 
ATOM      9  C   UNL     1      86.689  67.354  85.440  0.00  0.00    +0.000 C 
ATOM     10  C   UNL     1      85.799  67.757  87.716  0.00  0.00    +0.000 C 
ENDBRANCH   5   8
ENDBRANCH   1   4
BRANCH   1  11
ATOM     11  O   UNL     1      89.956  68.894  86.801  0.00  0.00    +0.000 OA
BRANCH  11  12
ATOM     12  C   UNL     1      89.621  70.124  86.344  0.00  0.00    +0.000 C 
ATOM     13  O   UNL     1      90.235  70.787  85.522  0.00  0.00    +0.000 OA
BRANCH  12  14
ATOM     14  C   UNL     1      88.363  70.588  86.992  0.00  0.00    +0.000 A 
ATOM     15  C   UNL     1      87.253  71.024  86.255  0.00  0.00    +0.000 A 
ATOM     16  C   UNL     1      86.095  71.448  86.913  0.00  0.00    +0.000 A 
ATOM     17  C   UNL     1      86.040  71.439  88.306  0.00  0.00    +0.000 A 
ATOM     18  C   UNL     1      87.139  71.006  89.046  0.00  0.00    +0.000 A 
ATOM     19  C   UNL     1      88.298  70.582  88.392  0.00  0.00    +0.000 A 
ENDBRANCH  12  14
ENDBRANCH  11  12
ENDBRANCH   1  11
TORSDOF 5
ENDMDL
