MODEL 1
REMARK VINA RESULT:      -4.7      0.000      0.000
REMARK  Name = *****
REMARK  5 active torsions:
REMARK  status: ('A' for Active; 'I' for Inactive)
REMARK    1  A    between atoms: C_1  and  C_2
REMARK    2  A    between atoms: C_3  and  O_11
REMARK    3  A    between atoms: C_5  and  C_8
REMARK    4  A    between atoms: O_11  and  C_12
REMARK    5  A    between atoms: C_12  and  C_13
REMARK                            x       y       z     vdW  Elec       q    Type
REMARK                         _______ _______ _______ _____ _____    ______ ____
ROOT
ATOM      1  C   UNL     1      89.407  71.786  84.636  0.00  0.00    +0.000 C 
ATOM      2  C   UNL     1      89.598  70.349  85.029  0.00  0.00    +0.000 A 
ATOM      3  C   UNL     1      89.507  69.953  86.369  0.00  0.00    +0.000 A 
ATOM      4  C   UNL     1      89.647  68.611  86.739  0.00  0.00    +0.000 A 
ATOM      5  C   UNL     1      89.929  67.645  85.765  0.00  0.00    +0.000 A 
ATOM      6  C   UNL     1      90.052  68.042  84.425  0.00  0.00    +0.000 A 
ATOM      7  C   UNL     1      89.884  69.381  84.060  0.00  0.00    +0.000 A 
ENDROOT
BRANCH   5   8
ATOM      8  C   UNL     1      90.097  66.195  86.110  0.00  0.00    +0.000 C 
ATOM      9  O   UNL     1      91.054  65.605  85.610  0.00  0.00    +0.000 OA
ATOM     10 CL   UNL     1      88.960  65.416  87.191  0.00  0.00    +0.000 Cl
ENDBRANCH   5   8
BRANCH   3  11
ATOM     11  O   UNL     1      89.195  70.903  87.308  0.00  0.00    +0.000 OA
BRANCH  11  12
ATOM     12  C   UNL     1      88.262  70.407  88.276  0.00  0.00    +0.000 C 
BRANCH  12  13
ATOM     13  C   UNL     1      86.925  71.074  88.056  0.00  0.00    +0.000 A 
ATOM     14  C   UNL     1      86.166  71.525  89.147  0.00  0.00    +0.000 A 
ATOM     15  C   UNL     1      84.942  72.165  88.944  0.00  0.00    +0.000 A 
ATOM     16  C   UNL     1      84.466  72.366  87.650  0.00  0.00    +0.000 A 
ATOM     17  C   UNL     1      85.215  71.930  86.558  0.00  0.00    +0.000 A 
ATOM     18  C   UNL     1      86.439  71.290  86.759  0.00  0.00    +0.000 A 
ENDBRANCH  12  13
ENDBRANCH  11  12
ENDBRANCH   3  11
TORSDOF 4
ENDMDL
