MODEL 1
REMARK VINA RESULT:      -4.3      0.000      0.000
REMARK  Name = *****
REMARK  4 active torsions:
REMARK  status: ('A' for Active; 'I' for Inactive)
REMARK    1  A    between atoms: C_4  and  C_8
REMARK    2  A    between atoms: C_8  and  O_9
REMARK    3  A    between atoms: O_9  and  C_10
REMARK    4  A    between atoms: C_10  and  C_11
REMARK                            x       y       z     vdW  Elec       q    Type
REMARK                         _______ _______ _______ _____ _____    ______ ____
ROOT
ATOM      1  C   UNL     1     104.166 126.369  80.359  0.00  0.00    +0.000 C 
ENDROOT
BRANCH   1   5
ATOM      2  C   UNL     1     102.967 126.126  83.298  0.00  0.00    +0.000 C 
ATOM      3  C   UNL     1     102.739 127.637  83.389  0.00  0.00    +0.000 C 
ATOM      4  C   UNL     1     103.365 128.114  82.059  0.00  0.00    +0.000 C 
ATOM      5  C   UNL     1     102.957 126.987  81.059  0.00  0.00    +0.000 C 
ATOM      6  C   UNL     1     102.200 125.990  81.977  0.00  0.00    +0.000 C 
ATOM      7  C   UNL     1     100.910 126.664  82.398  0.00  0.00    +0.000 C 
ATOM      8  C   UNL     1     101.236 127.658  83.238  0.00  0.00    +0.000 C 
ENDBRANCH   1   5
BRANCH   1   9
ATOM      9  O   UNL     1     103.891 124.995  80.097  0.00  0.00    +0.000 OA
BRANCH   9  10
ATOM     10  C   UNL     1     105.072 124.196  80.174  0.00  0.00    +0.000 C 
BRANCH  10  11
ATOM     11  C   UNL     1     104.864 123.047  81.130  0.00  0.00    +0.000 A 
ATOM     12  C   UNL     1     104.786 123.260  82.514  0.00  0.00    +0.000 A 
ATOM     13  C   UNL     1     104.550 122.196  83.386  0.00  0.00    +0.000 A 
ATOM     14  C   UNL     1     104.380 120.907  82.885  0.00  0.00    +0.000 A 
ATOM     15  C   UNL     1     104.442 120.683  81.511  0.00  0.00    +0.000 A 
ATOM     16  C   UNL     1     104.678 121.747  80.637  0.00  0.00    +0.000 A 
ENDBRANCH  10  11
ENDBRANCH   9  10
ENDBRANCH   1   9
TORSDOF 4
ENDMDL
