REMARK  Name = *****
REMARK  2 active torsions:
REMARK  status: ('A' for Active; 'I' for Inactive)
REMARK    1  A    between atoms: C_4  and  S_8
REMARK    2  A    between atoms: S_8  and  C_9
REMARK                            x       y       z     vdW  Elec       q    Type
REMARK                         _______ _______ _______ _____ _____    ______ ____
ROOT
ATOM      1  S   UNL     1       1.169   1.462  -2.306  0.00  0.00    +0.000 S 
ENDROOT
BRANCH   1   5
ATOM      2  C   UNL     1       0.131  -0.080   1.304  0.00  0.00    +0.000 C 
ATOM      3  C   UNL     1      -0.240  -1.128   0.252  0.00  0.00    +0.000 C 
ATOM      4  C   UNL     1       0.889  -0.944  -0.788  0.00  0.00    +0.000 C 
ATOM      5  C   UNL     1       1.192   0.585  -0.700  0.00  0.00    +0.000 C 
ATOM      6  C   UNL     1       0.109   1.080   0.298  0.00  0.00    +0.000 C 
ATOM      7  C   UNL     1      -1.279   0.854  -0.265  0.00  0.00    +0.000 C 
ATOM      8  C   UNL     1      -1.483  -0.472  -0.299  0.00  0.00    +0.000 C 
ENDBRANCH   1   5
BRANCH   1   9
ATOM      9  C   UNL     1       2.509   0.637  -3.147  0.00  0.00    +0.000 A 
ATOM     10  C   UNL     1       3.810   0.643  -2.637  0.00  0.00    +0.000 A 
ATOM     11  C   UNL     1       4.830  -0.008  -3.330  0.00  0.00    +0.000 A 
ATOM     12  C   UNL     1       4.570  -0.659  -4.534  0.00  0.00    +0.000 A 
ATOM     13  C   UNL     1       3.277  -0.654  -5.055  0.00  0.00    +0.000 A 
ATOM     14  C   UNL     1       2.251  -0.004  -4.365  0.00  0.00    +0.000 A 
ATOM     15 CL   UNL     1       6.429  -0.005  -2.691  0.00  0.00    +0.000 Cl
ENDBRANCH   1   9
TORSDOF 2
