MODEL 1
REMARK VINA RESULT:      -4.9      0.000      0.000
REMARK  Name = *****
REMARK  2 active torsions:
REMARK  status: ('A' for Active; 'I' for Inactive)
REMARK    1  A    between atoms: C_4  and  C_7
REMARK    2  A    between atoms: C_8  and  C_9
REMARK                            x       y       z     vdW  Elec       q    Type
REMARK                         _______ _______ _______ _____ _____    ______ ____
ROOT
ATOM      1  C   UNL     1     102.904 126.296  81.507  0.00  0.00    +0.000 C 
ATOM      2  C   UNL     1     101.812 126.098  82.264  0.00  0.00    +0.000 C 
ENDROOT
BRANCH   2   3
ATOM      3  C   UNL     1     100.914 127.165  82.740  0.00  0.00    +0.000 A 
ATOM      4  C   UNL     1     101.385 128.308  83.401  0.00  0.00    +0.000 A 
ATOM      5  C   UNL     1     100.500 129.312  83.809  0.00  0.00    +0.000 A 
ATOM      6  C   UNL     1      99.135 129.194  83.553  0.00  0.00    +0.000 A 
ATOM      7  C   UNL     1      98.654 128.074  82.879  0.00  0.00    +0.000 A 
ATOM      8  C   UNL     1      99.540 127.077  82.476  0.00  0.00    +0.000 A 
ATOM      9  F   UNL     1      99.044 126.015  81.822  0.00  0.00    +0.000 F 
ENDBRANCH   2   3
BRANCH   1  13
ATOM     10  C   UNL     1     105.537 123.142  80.310  0.00  0.00    +0.000 A 
ATOM     11  C   UNL     1     105.400 124.266  79.498  0.00  0.00    +0.000 A 
ATOM     12  C   UNL     1     104.537 125.301  79.873  0.00  0.00    +0.000 A 
ATOM     13  C   UNL     1     103.795 125.215  81.058  0.00  0.00    +0.000 A 
ATOM     14  C   UNL     1     103.954 124.086  81.874  0.00  0.00    +0.000 A 
ATOM     15  C   UNL     1     104.816 123.053  81.498  0.00  0.00    +0.000 A 
ENDBRANCH   1  13
TORSDOF 2
ENDMDL
