MODEL 1
REMARK VINA RESULT:      -4.7      0.000      0.000
REMARK  Name = *****
REMARK  2 active torsions:
REMARK  status: ('A' for Active; 'I' for Inactive)
REMARK    1  A    between atoms: C_4  and  C_6
REMARK    2  A    between atoms: C_7  and  C_8
REMARK                            x       y       z     vdW  Elec       q    Type
REMARK                         _______ _______ _______ _____ _____    ______ ____
ROOT
ATOM      1  C   UNL     1     101.427 127.165  82.581  0.00  0.00    +0.000 A 
ATOM      2  C   UNL     1     101.847 128.294  83.288  0.00  0.00    +0.000 A 
ATOM      3  C   UNL     1     100.917 129.171  83.838  0.00  0.00    +0.000 A 
ATOM      4  C   UNL     1      99.559 128.929  83.688  0.00  0.00    +0.000 A 
ATOM      5  C   UNL     1      99.129 127.809  82.988  0.00  0.00    +0.000 A 
ATOM      6  C   UNL     1     100.059 126.932  82.437  0.00  0.00    +0.000 A 
ATOM      7  F   UNL     1      99.624 125.856  81.763  0.00  0.00    +0.000 F 
ATOM      8  F   UNL     1      97.817 127.574  82.841  0.00  0.00    +0.000 F 
ATOM      9  F   UNL     1      98.663 129.772  84.218  0.00  0.00    +0.000 F 
ATOM     10  F   UNL     1     101.333 130.251  84.514  0.00  0.00    +0.000 F 
ATOM     11  F   UNL     1     103.156 128.546  83.444  0.00  0.00    +0.000 F 
ENDROOT
BRANCH   1  13
ATOM     12  C   UNL     1     103.184 125.506  81.540  0.00  0.00    +0.000 C 
ATOM     13  C   UNL     1     102.381 126.264  82.015  0.00  0.00    +0.000 C 
BRANCH  12  17
ATOM     14  C   UNL     1     105.358 122.655  80.639  0.00  0.00    +0.000 A 
ATOM     15  C   UNL     1     105.897 123.480  79.678  0.00  0.00    +0.000 A 
ATOM     16  S   UNL     1     105.175 125.032  79.687  0.00  0.00    +0.000 S 
ATOM     17  C   UNL     1     104.136 124.608  80.977  0.00  0.00    +0.000 A 
ATOM     18  C   UNL     1     104.337 123.309  81.392  0.00  0.00    +0.000 A 
ENDBRANCH  12  17
ENDBRANCH   1  13
TORSDOF 2
ENDMDL
