MODEL 1
REMARK VINA RESULT:      -4.6      0.000      0.000
REMARK  Name = *****
REMARK  4 active torsions:
REMARK  status: ('A' for Active; 'I' for Inactive)
REMARK    1  A    between atoms: C_1  and  C_2
REMARK    2  A    between atoms: C_5  and  C_8
REMARK    3  A    between atoms: C_8  and  O_10
REMARK    4  A    between atoms: O_10  and  C_11
REMARK                            x       y       z     vdW  Elec       q    Type
REMARK                         _______ _______ _______ _____ _____    ______ ____
ROOT
ATOM      1  C   UNL     1     103.370 127.471  82.322  0.00  0.00    +0.000 C 
ATOM      2  O   UNL     1     103.711 128.528  81.812  0.00  0.00    +0.000 OA
ENDROOT
BRANCH   1   7
ATOM      3  C   UNL     1     105.031 122.231  80.459  0.00  0.00    +0.000 C 
ATOM      4  C   UNL     1     104.575 123.584  80.921  0.00  0.00    +0.000 A 
ATOM      5  C   UNL     1     104.492 124.649  80.018  0.00  0.00    +0.000 A 
ATOM      6  C   UNL     1     104.100 125.919  80.450  0.00  0.00    +0.000 A 
ATOM      7  C   UNL     1     103.793 126.142  81.799  0.00  0.00    +0.000 A 
ATOM      8  C   UNL     1     103.893 125.079  82.706  0.00  0.00    +0.000 A 
ATOM      9  C   UNL     1     104.286 123.811  82.271  0.00  0.00    +0.000 A 
ENDBRANCH   1   7
BRANCH   1  10
ATOM     10  O   UNL     1     102.593 127.303  83.453  0.00  0.00    +0.000 OA
BRANCH  10  11
ATOM     11  C   UNL     1     101.297 127.789  83.283  0.00  0.00    +0.000 A 
ATOM     12  C   UNL     1     100.957 129.014  83.853  0.00  0.00    +0.000 A 
ATOM     13  C   UNL     1      99.648 129.485  83.721  0.00  0.00    +0.000 A 
ATOM     14  C   UNL     1      98.693 128.725  83.038  0.00  0.00    +0.000 A 
ATOM     15  C   UNL     1      99.040 127.490  82.487  0.00  0.00    +0.000 A 
ATOM     16  C   UNL     1     100.343 127.023  82.618  0.00  0.00    +0.000 A 
ATOM     17  F   UNL     1     100.668 125.825  82.112  0.00  0.00    +0.000 F 
ENDBRANCH  10  11
ENDBRANCH   1  10
TORSDOF 3
ENDMDL
