MODEL 1
REMARK VINA RESULT:      -4.4      0.000      0.000
REMARK  Name = *****
REMARK  4 active torsions:
REMARK  status: ('A' for Active; 'I' for Inactive)
REMARK    1  A    between atoms: C_1  and  C_2
REMARK    2  A    between atoms: C_2  and  C_8
REMARK    3  A    between atoms: C_8  and  O_10
REMARK    4  A    between atoms: O_10  and  C_11
REMARK                            x       y       z     vdW  Elec       q    Type
REMARK                         _______ _______ _______ _____ _____    ______ ____
ROOT
ATOM      1  C   UNL     1     102.723 125.447  82.777  0.00  0.00    +0.000 C 
ATOM      2  O   UNL     1     102.809 124.866  83.853  0.00  0.00    +0.000 OA
ENDROOT
BRANCH   1   4
ATOM      3  C   UNL     1     104.678 124.440  81.463  0.00  0.00    +0.000 C 
ATOM      4  C   UNL     1     103.905 125.722  81.810  0.00  0.00    +0.000 C 
ATOM      5  C   UNL     1     103.340 126.291  80.515  0.00  0.00    +0.000 C 
ATOM      6  C   UNL     1     103.646 127.511  80.040  0.00  0.00    +0.000 C 
ATOM      7  C   UNL     1     104.578 128.461  80.735  0.00  0.00    +0.000 C 
ATOM      8  C   UNL     1     105.136 127.921  82.022  0.00  0.00    +0.000 C 
ATOM      9  C   UNL     1     104.839 126.702  82.505  0.00  0.00    +0.000 C 
ENDBRANCH   1   4
BRANCH   1  10
ATOM     10  O   UNL     1     101.540 125.877  82.240  0.00  0.00    +0.000 OA
BRANCH  10  11
ATOM     11  C   UNL     1     100.736 126.736  83.070  0.00  0.00    +0.000 C 
ATOM     12  C   UNL     1      99.356 126.917  82.433  0.00  0.00    +0.000 C 
ATOM     13  C   UNL     1      98.519 127.947  83.186  0.00  0.00    +0.000 C 
ATOM     14  C   UNL     1      99.252 129.281  83.316  0.00  0.00    +0.000 C 
ATOM     15  C   UNL     1     100.634 129.108  83.939  0.00  0.00    +0.000 C 
ATOM     16  C   UNL     1     101.464 128.078  83.180  0.00  0.00    +0.000 C 
ENDBRANCH  10  11
ENDBRANCH   1  10
TORSDOF 3
ENDMDL
