REMARK  Name = *****
REMARK  4 active torsions:
REMARK  status: ('A' for Active; 'I' for Inactive)
REMARK    1  A    between atoms: C_4  and  C_7
REMARK    2  A    between atoms: C_7  and  C_8
REMARK    3  A    between atoms: C_8  and  C_9
REMARK    4  A    between atoms: C_10  and  C_11
REMARK                            x       y       z     vdW  Elec       q    Type
REMARK                         _______ _______ _______ _____ _____    ______ ____
ROOT
ATOM      1  C   UNL     1      -3.628  -0.772   0.535  0.00  0.00    +0.000 C 
ENDROOT
BRANCH   1   2
ATOM      2  C   UNL     1      -5.112  -0.713   0.287  0.00  0.00    +0.000 C 
ATOM      3  C   UNL     1      -5.899  -1.701  -0.167  0.00  0.00    +0.000 C 
BRANCH   3   4
ATOM      4  C   UNL     1      -5.436  -3.044  -0.518  0.00  0.00    +0.000 A 
ATOM      5  C   UNL     1      -5.191  -3.995   0.478  0.00  0.00    +0.000 A 
ATOM      6  C   UNL     1      -4.747  -5.273   0.135  0.00  0.00    +0.000 A 
ATOM      7  C   UNL     1      -4.549  -5.607  -1.205  0.00  0.00    +0.000 A 
ATOM      8  C   UNL     1      -4.794  -4.663  -2.202  0.00  0.00    +0.000 A 
ATOM      9  C   UNL     1      -5.237  -3.384  -1.860  0.00  0.00    +0.000 A 
ENDBRANCH   3   4
ENDBRANCH   1   2
BRANCH   1  10
ATOM     10  C   UNL     1      -2.864   0.111  -0.454  0.00  0.00    +0.000 C 
BRANCH  10  14
ATOM     11  C   UNL     1       1.379  -0.015   0.309  0.00  0.00    +0.000 A 
ATOM     12  C   UNL     1       0.788  -0.977  -0.508  0.00  0.00    +0.000 A 
ATOM     13  C   UNL     1      -0.584  -0.933  -0.759  0.00  0.00    +0.000 A 
ATOM     14  C   UNL     1      -1.377   0.078  -0.198  0.00  0.00    +0.000 A 
ATOM     15  C   UNL     1      -0.774   1.036   0.627  0.00  0.00    +0.000 A 
ATOM     16  C   UNL     1       0.599   0.990   0.878  0.00  0.00    +0.000 A 
ENDBRANCH  10  14
ENDBRANCH   1  10
TORSDOF 4
