MODEL 1
REMARK VINA RESULT:      -4.4      0.000      0.000
REMARK  Name = *****
REMARK  3 active torsions:
REMARK  status: ('A' for Active; 'I' for Inactive)
REMARK    1  A    between atoms: C_6  and  C_7
REMARK    2  A    between atoms: C_7  and  O_8
REMARK    3  A    between atoms: O_8  and  C_9
REMARK                            x       y       z     vdW  Elec       q    Type
REMARK                         _______ _______ _______ _____ _____    ______ ____
ROOT
ATOM      1  C   UNL     1     102.572 125.637  82.836  0.00  0.00    +0.000 C 
ENDROOT
BRANCH   1   7
ATOM      2  C   UNL     1     103.931 126.382  80.831  0.00  0.00    +0.000 A 
ATOM      3  C   UNL     1     104.807 126.112  79.776  0.00  0.00    +0.000 A 
ATOM      4  C   UNL     1     105.293 124.820  79.591  0.00  0.00    +0.000 A 
ATOM      5  C   UNL     1     104.912 123.793  80.452  0.00  0.00    +0.000 A 
ATOM      6  C   UNL     1     104.036 124.062  81.506  0.00  0.00    +0.000 A 
ATOM      7  C   UNL     1     103.537 125.359  81.707  0.00  0.00    +0.000 A 
ATOM      8 CL   UNL     1     106.369 124.490  78.290  0.00  0.00    +0.000 Cl
ENDBRANCH   1   7
BRANCH   1   9
ATOM      9  O   UNL     1     101.274 125.857  82.287  0.00  0.00    +0.000 OA
BRANCH   9  10
ATOM     10  C   UNL     1     100.613 126.986  82.681  0.00  0.00    +0.000 A 
ATOM     11  C   UNL     1      99.246 127.237  82.522  0.00  0.00    +0.000 A 
ATOM     12  C   UNL     1      98.700 128.442  82.975  0.00  0.00    +0.000 A 
ATOM     13  C   UNL     1      99.518 129.387  83.582  0.00  0.00    +0.000 A 
ATOM     14  C   UNL     1     100.876 129.152  83.745  0.00  0.00    +0.000 A 
ATOM     15  C   UNL     1     101.422 127.950  83.293  0.00  0.00    +0.000 A 
ATOM     16  F   UNL     1      98.989 130.538  84.015  0.00  0.00    +0.000 F 
ENDBRANCH   9  10
ENDBRANCH   1   9
TORSDOF 3
ENDMDL
