MODEL 1
REMARK VINA RESULT:      -4.4      0.000      0.000
REMARK  Name = *****
REMARK  5 active torsions:
REMARK  status: ('A' for Active; 'I' for Inactive)
REMARK    1  A    between atoms: C_1  and  C_2
REMARK    2  A    between atoms: C_2  and  N_3
REMARK    3  A    between atoms: N_3  and  C_4
REMARK    4  A    between atoms: N_3  and  C_10
REMARK    5  A    between atoms: C_10  and  C_12
REMARK                            x       y       z     vdW  Elec       q    Type
REMARK                         _______ _______ _______ _____ _____    ______ ____
ROOT
ATOM      1  N   UNL     1      88.070  70.528  86.004  0.00  0.00    +0.000 N 
ENDROOT
BRANCH   1   2
ATOM      2  C   UNL     1      86.839  71.122  86.467  0.00  0.00    +0.000 A 
ATOM      3  C   UNL     1      85.899  71.668  85.579  0.00  0.00    +0.000 A 
ATOM      4  C   UNL     1      84.727  72.275  86.044  0.00  0.00    +0.000 A 
ATOM      5  C   UNL     1      84.480  72.364  87.410  0.00  0.00    +0.000 A 
ATOM      6  C   UNL     1      85.407  71.851  88.309  0.00  0.00    +0.000 A 
ATOM      7  C   UNL     1      86.577  71.243  87.840  0.00  0.00    +0.000 A 
ENDBRANCH   1   2
BRANCH   1   9
ATOM      8  C   UNL     1      89.673  68.777  86.765  0.00  0.00    +0.000 C 
ATOM      9  C   UNL     1      89.073  70.153  87.023  0.00  0.00    +0.000 C 
ENDBRANCH   1   9
BRANCH   1  10
ATOM     10  C   UNL     1      88.390  70.399  84.628  0.00  0.00    +0.000 C 
ATOM     11  S   UNL     1      87.713  69.265  83.567  0.00  0.00    +0.000 S 
BRANCH  10  12
ATOM     12  C   UNL     1      89.364  71.393  84.086  0.00  0.00    +0.000 A 
ATOM     13  C   UNL     1      90.687  70.986  83.865  0.00  0.00    +0.000 A 
ATOM     14  C   UNL     1      91.618  71.897  83.360  0.00  0.00    +0.000 A 
ATOM     15  C   UNL     1      91.224  73.204  83.076  0.00  0.00    +0.000 A 
ATOM     16  C   UNL     1      89.906  73.613  83.290  0.00  0.00    +0.000 A 
ATOM     17  C   UNL     1      88.970  72.706  83.794  0.00  0.00    +0.000 A 
ATOM     18 CL   UNL     1      92.372  74.326  82.458  0.00  0.00    +0.000 Cl
ENDBRANCH  10  12
ENDBRANCH   1  10
TORSDOF 4
ENDMDL
