MODEL 1
REMARK VINA RESULT:      -4.5      0.000      0.000
REMARK  Name = *****
REMARK  6 active torsions:
REMARK  status: ('A' for Active; 'I' for Inactive)
REMARK    1  A    between atoms: C_1  and  C_2
REMARK    2  A    between atoms: C_4  and  C_18
REMARK    3  A    between atoms: C_5  and  C_9
REMARK    4  A    between atoms: C_6  and  C_8
REMARK    5  A    between atoms: C_9  and  S_11
REMARK    6  A    between atoms: S_11  and  C_12
REMARK                            x       y       z     vdW  Elec       q    Type
REMARK                         _______ _______ _______ _____ _____    ______ ____
ROOT
ATOM      1  C   UNL     1      84.644  72.173  89.476  0.00  0.00    +0.000 C 
ATOM      2  C   UNL     1      85.532  71.763  88.336  0.00  0.00    +0.000 A 
ATOM      3  C   UNL     1      86.762  71.143  88.589  0.00  0.00    +0.000 A 
ATOM      4  C   UNL     1      87.620  70.780  87.539  0.00  0.00    +0.000 A 
ATOM      5  C   UNL     1      87.240  71.093  86.219  0.00  0.00    +0.000 A 
ATOM      6  C   UNL     1      86.001  71.706  85.942  0.00  0.00    +0.000 A 
ATOM      7  C   UNL     1      85.165  72.048  87.016  0.00  0.00    +0.000 A 
ATOM      8  C   UNL     1      85.568  72.029  84.539  0.00  0.00    +0.000 C 
ATOM      9  C   UNL     1      88.932  70.123  87.867  0.00  0.00    +0.000 C 
ENDROOT
BRANCH   5  10
ATOM     10  C   UNL     1      88.142  70.752  85.098  0.00  0.00    +0.000 C 
ATOM     11  O   UNL     1      89.175  71.379  84.901  0.00  0.00    +0.000 OA
BRANCH  10  12
ATOM     12  S   UNL     1      87.668  69.354  84.155  0.00  0.00    +0.000 S 
BRANCH  12  13
ATOM     13  C   UNL     1      88.406  68.075  85.141  0.00  0.00    +0.000 A 
ATOM     14  C   UNL     1      89.778  67.850  85.123  0.00  0.00    +0.000 A 
ATOM     15  C   UNL     1      90.303  66.846  85.933  0.00  0.00    +0.000 A 
ATOM     16  C   UNL     1      89.448  66.108  86.742  0.00  0.00    +0.000 A 
ATOM     17  C   UNL     1      88.096  66.404  86.704  0.00  0.00    +0.000 A 
ATOM     18  N   UNL     1      87.559  67.368  85.925  0.00  0.00    +0.000 NA
ENDBRANCH  12  13
ENDBRANCH  10  12
ENDBRANCH   5  10
TORSDOF 3
ENDMDL
