REMARK  Name = *****
REMARK  2 active torsions:
REMARK  status: ('A' for Active; 'I' for Inactive)
REMARK    1  A    between atoms: C_4  and  C_7
REMARK    2  A    between atoms: C_8  and  C_9
REMARK                            x       y       z     vdW  Elec       q    Type
REMARK                         _______ _______ _______ _____ _____    ______ ____
ROOT
ATOM      1  C   UNL     1      -2.797   0.442  -0.326  0.00  0.00    +0.000 C 
ATOM      2  C   UNL     1      -3.729  -0.524  -0.375  0.00  0.00    +0.000 C 
ENDROOT
BRANCH   2   3
ATOM      3  C   UNL     1      -5.172  -0.292  -0.560  0.00  0.00    +0.000 A 
ATOM      4  C   UNL     1      -5.674   0.790  -1.297  0.00  0.00    +0.000 A 
ATOM      5  C   UNL     1      -7.052   0.956  -1.474  0.00  0.00    +0.000 A 
ATOM      6  C   UNL     1      -7.947   0.038  -0.927  0.00  0.00    +0.000 A 
ATOM      7  C   UNL     1      -7.464  -1.053  -0.209  0.00  0.00    +0.000 A 
ATOM      8  C   UNL     1      -6.090  -1.213  -0.036  0.00  0.00    +0.000 A 
ATOM      9  F   UNL     1      -5.658  -2.280   0.654  0.00  0.00    +0.000 F 
ENDBRANCH   2   3
BRANCH   1  13
ATOM     10  C   UNL     1       1.396  -0.191   0.247  0.00  0.00    +0.000 A 
ATOM     11  C   UNL     1       0.664  -1.097  -0.517  0.00  0.00    +0.000 A 
ATOM     12  C   UNL     1      -0.708  -0.907  -0.706  0.00  0.00    +0.000 A 
ATOM     13  C   UNL     1      -1.363   0.186  -0.123  0.00  0.00    +0.000 A 
ATOM     14  C   UNL     1      -0.612   1.099   0.630  0.00  0.00    +0.000 A 
ATOM     15  C   UNL     1       0.759   0.908   0.819  0.00  0.00    +0.000 A 
ENDBRANCH   1  13
TORSDOF 2
