MODEL 1
REMARK VINA RESULT:      -4.7      0.000      0.000
REMARK  Name = *****
REMARK  3 active torsions:
REMARK  status: ('A' for Active; 'I' for Inactive)
REMARK    1  A    between atoms: C_5  and  C_7
REMARK    2  A    between atoms: C_7  and  C_8
REMARK    3  A    between atoms: C_8  and  C_10
REMARK                            x       y       z     vdW  Elec       q    Type
REMARK                         _______ _______ _______ _____ _____    ______ ____
ROOT
ATOM      1  C   UNL     1     103.534 127.584  82.226  0.00  0.00    +0.000 C 
ATOM      2  O   UNL     1     103.882 128.560  81.559  0.00  0.00    +0.000 OA
ENDROOT
BRANCH   1   3
ATOM      3  C   UNL     1     103.884 126.211  81.741  0.00  0.00    +0.000 A 
ATOM      4  C   UNL     1     104.168 125.927  80.401  0.00  0.00    +0.000 A 
ATOM      5  C   UNL     1     104.490 124.622  80.009  0.00  0.00    +0.000 A 
ATOM      6  C   UNL     1     104.528 123.599  80.954  0.00  0.00    +0.000 A 
ATOM      7  C   UNL     1     104.245 123.867  82.290  0.00  0.00    +0.000 A 
ATOM      8  C   UNL     1     103.922 125.170  82.681  0.00  0.00    +0.000 A 
ATOM      9 CL   UNL     1     104.926 121.998  80.467  0.00  0.00    +0.000 Cl
ENDBRANCH   1   3
BRANCH   1  10
ATOM     10  C   UNL     1     102.737 127.763  83.506  0.00  0.00    +0.000 C 
BRANCH  10  15
ATOM     11  C   UNL     1      99.211 126.853  82.376  0.00  0.00    +0.000 A 
ATOM     12  C   UNL     1      98.471 127.964  82.768  0.00  0.00    +0.000 A 
ATOM     13  C   UNL     1      99.108 129.031  83.397  0.00  0.00    +0.000 A 
ATOM     14  C   UNL     1     100.486 128.987  83.646  0.00  0.00    +0.000 A 
ATOM     15  C   UNL     1     101.244 127.863  83.281  0.00  0.00    +0.000 A 
ATOM     16  C   UNL     1     100.585 126.805  82.624  0.00  0.00    +0.000 A 
ATOM     17 CL   UNL     1     101.190 130.371  84.406  0.00  0.00    +0.000 Cl
ENDBRANCH  10  15
ENDBRANCH   1  10
TORSDOF 3
ENDMDL
