MODEL 1
REMARK VINA RESULT:      -4.5      0.000      0.000
REMARK  Name = *****
REMARK  3 active torsions:
REMARK  status: ('A' for Active; 'I' for Inactive)
REMARK    1  A    between atoms: C_4  and  S_7
REMARK    2  A    between atoms: S_7  and  C_8
REMARK    3  A    between atoms: C_8  and  C_10
REMARK                            x       y       z     vdW  Elec       q    Type
REMARK                         _______ _______ _______ _____ _____    ______ ____
ROOT
ATOM      1  C   UNL     1     102.996 125.538  83.768  0.00  0.00    +0.000 C 
ATOM      2  O   UNL     1     102.495 124.967  84.731  0.00  0.00    +0.000 OA
ENDROOT
BRANCH   1   3
ATOM      3  C   UNL     1     103.643 124.740  82.680  0.00  0.00    +0.000 A 
ATOM      4  C   UNL     1     104.220 123.476  82.874  0.00  0.00    +0.000 A 
ATOM      5  C   UNL     1     104.798 122.800  81.797  0.00  0.00    +0.000 A 
ATOM      6  C   UNL     1     104.810 123.363  80.522  0.00  0.00    +0.000 A 
ATOM      7  C   UNL     1     104.238 124.616  80.318  0.00  0.00    +0.000 A 
ATOM      8  C   UNL     1     103.658 125.300  81.390  0.00  0.00    +0.000 A 
ATOM      9 BR   UNL     1     105.571 121.095  82.070  0.00  0.00    +0.000 Br
ENDBRANCH   1   3
BRANCH   1  10
ATOM     10  S   UNL     1     102.954 127.292  83.606  0.00  0.00    +0.000 S 
BRANCH  10  14
ATOM     11  C   UNL     1      98.525 128.084  82.743  0.00  0.00    +0.000 A 
ATOM     12  C   UNL     1      99.289 129.057  83.386  0.00  0.00    +0.000 A 
ATOM     13  C   UNL     1     100.637 128.818  83.661  0.00  0.00    +0.000 A 
ATOM     14  C   UNL     1     101.226 127.600  83.302  0.00  0.00    +0.000 A 
ATOM     15  C   UNL     1     100.456 126.633  82.649  0.00  0.00    +0.000 A 
ATOM     16  C   UNL     1      99.107 126.873  82.374  0.00  0.00    +0.000 A 
ENDBRANCH  10  14
ENDBRANCH   1  10
TORSDOF 3
ENDMDL
