MODEL 1
REMARK VINA RESULT:      -4.3      0.000      0.000
REMARK  Name = *****
REMARK  3 active torsions:
REMARK  status: ('A' for Active; 'I' for Inactive)
REMARK    1  A    between atoms: C_4  and  C_7
REMARK    2  A    between atoms: C_8  and  S_10
REMARK    3  A    between atoms: S_10  and  C_11
REMARK                            x       y       z     vdW  Elec       q    Type
REMARK                         _______ _______ _______ _____ _____    ______ ____
ROOT
ATOM      1  C   UNL     1      86.967  71.158  88.716  0.00  0.00    +0.000 C 
ATOM      2  C   UNL     1      87.196  69.710  89.103  0.00  0.00    +0.000 C 
ATOM      3  O   UNL     1      86.315  70.555  89.849  0.00  0.00    +0.000 OA
ENDROOT
BRANCH   1   7
ATOM      4  C   UNL     1      84.542  72.369  85.335  0.00  0.00    +0.000 A 
ATOM      5  C   UNL     1      84.055  72.520  86.630  0.00  0.00    +0.000 A 
ATOM      6  C   UNL     1      84.835  72.125  87.720  0.00  0.00    +0.000 A 
ATOM      7  C   UNL     1      86.112  71.567  87.543  0.00  0.00    +0.000 A 
ATOM      8  C   UNL     1      86.581  71.431  86.225  0.00  0.00    +0.000 A 
ATOM      9  C   UNL     1      85.806  71.825  85.131  0.00  0.00    +0.000 A 
ENDBRANCH   1   7
BRANCH   2  10
ATOM     10  S   UNL     1      86.438  68.370  88.299  0.00  0.00    +0.000 S 
BRANCH  10  11
ATOM     11  C   UNL     1      87.865  67.698  87.467  0.00  0.00    +0.000 A 
ATOM     12  C   UNL     1      88.817  68.534  86.877  0.00  0.00    +0.000 A 
ATOM     13  C   UNL     1      89.933  67.990  86.235  0.00  0.00    +0.000 A 
ATOM     14  C   UNL     1      90.103  66.607  86.186  0.00  0.00    +0.000 A 
ATOM     15  C   UNL     1      89.163  65.769  86.782  0.00  0.00    +0.000 A 
ATOM     16  C   UNL     1      88.048  66.312  87.423  0.00  0.00    +0.000 A 
ENDBRANCH  10  11
ENDBRANCH   2  10
TORSDOF 3
ENDMDL
