MODEL 1
REMARK VINA RESULT:      -3.6      0.000      0.000
REMARK  Name = *****
REMARK  5 active torsions:
REMARK  status: ('A' for Active; 'I' for Inactive)
REMARK    1  A    between atoms: C_1  and  C_2
REMARK    2  A    between atoms: C_3  and  S_8
REMARK    3  A    between atoms: S_8  and  S_9
REMARK    4  A    between atoms: S_9  and  C_10
REMARK    5  A    between atoms: C_11  and  C_16
REMARK                            x       y       z     vdW  Elec       q    Type
REMARK                         _______ _______ _______ _____ _____    ______ ____
ROOT
ATOM      1  S   UNL     1     103.581 127.045  83.278  0.00  0.00    +0.000 S 
ENDROOT
BRANCH   1   4
ATOM      2  C   UNL     1     102.132 129.683  84.486  0.00  0.00    +0.000 C 
ATOM      3  C   UNL     1     101.399 128.625  83.711  0.00  0.00    +0.000 A 
ATOM      4  C   UNL     1     101.910 127.501  83.170  0.00  0.00    +0.000 A 
ATOM      5  S   UNL     1     100.794 126.428  82.362  0.00  0.00    +0.000 S 
ATOM      6  C   UNL     1      99.365 127.413  82.584  0.00  0.00    +0.000 A 
ATOM      7  O   UNL     1      98.268 127.118  82.138  0.00  0.00    +0.000 OA
ATOM      8  S   UNL     1      99.677 128.879  83.490  0.00  0.00    +0.000 S 
ENDBRANCH   1   4
BRANCH   1   9
ATOM      9  S   UNL     1     103.365 125.007  83.509  0.00  0.00    +0.000 S 
BRANCH   9  10
ATOM     10  C   UNL     1     104.244 124.448  82.115  0.00  0.00    +0.000 A 
ATOM     11  C   UNL     1     104.674 123.180  81.958  0.00  0.00    +0.000 A 
ATOM     12  S   UNL     1     105.497 122.823  80.450  0.00  0.00    +0.000 S 
ATOM     13  C   UNL     1     105.346 124.417  79.742  0.00  0.00    +0.000 A 
ATOM     14  O   UNL     1     105.768 124.704  78.634  0.00  0.00    +0.000 OA
ATOM     15  S   UNL     1     104.518 125.550  80.785  0.00  0.00    +0.000 S 
ATOM     16  C   UNL     1     104.529 122.035  82.920  0.00  0.00    +0.000 C 
ENDBRANCH   9  10
ENDBRANCH   1   9
TORSDOF 3
ENDMDL
