MODEL 1
REMARK VINA RESULT:      -4.5      0.000      0.000
REMARK  Name = *****
REMARK  1 active torsions:
REMARK  status: ('A' for Active; 'I' for Inactive)
REMARK    1  A    between atoms: N_12  and  C_13
REMARK                            x       y       z     vdW  Elec       q    Type
REMARK                         _______ _______ _______ _____ _____    ______ ____
ROOT
ATOM      1  C   UNL     1     102.334 128.983  83.800  0.00  0.00    +0.000 C 
ATOM      2  C   UNL     1     101.439 128.106  83.336  0.00  0.00    +0.000 C 
ATOM      3  C   UNL     1     101.787 126.757  82.709  0.00  0.00    +0.000 C 
ATOM      4  C   UNL     1     102.169 125.686  83.749  0.00  0.00    +0.000 C 
ATOM      5  C   UNL     1     103.635 125.729  84.164  0.00  0.00    +0.000 C 
ATOM      6  C   UNL     1     104.558 125.661  82.954  0.00  0.00    +0.000 C 
ATOM      7  C   UNL     1     104.263 126.765  81.945  0.00  0.00    +0.000 C 
ATOM      8  C   UNL     1     102.791 126.799  81.539  0.00  0.00    +0.000 C 
ATOM      9  O   UNL     1     100.533 126.332  82.131  0.00  0.00    +0.000 OA
ATOM     10  C   UNL     1      99.546 127.198  82.485  0.00  0.00    +0.000 C 
ATOM     11  O   UNL     1      98.383 127.041  82.146  0.00  0.00    +0.000 OA
ATOM     12  N   UNL     1     100.069 128.241  83.247  0.00  0.00    +0.000 N 
ENDROOT
BRANCH  12  13
ATOM     13  C   UNL     1      99.119 129.230  83.774  0.00  0.00    +0.000 C 
ATOM     14  C   UNL     1      99.353 130.737  83.560  0.00  0.00    +0.000 C 
ATOM     15  C   UNL     1     100.239 131.424  84.605  0.00  0.00    +0.000 C 
ATOM     16  C   UNL     1      99.828 131.091  86.032  0.00  0.00    +0.000 C 
ATOM     17  C   UNL     1      99.766 129.585  86.234  0.00  0.00    +0.000 C 
ATOM     18  C   UNL     1      98.775 128.957  85.261  0.00  0.00    +0.000 C 
ENDBRANCH  12  13
TORSDOF 1
ENDMDL
