MODEL 1
REMARK VINA RESULT:      -4.6      0.000      0.000
REMARK  Name = *****
REMARK  5 active torsions:
REMARK  status: ('A' for Active; 'I' for Inactive)
REMARK    1  A    between atoms: C_1  and  C_2
REMARK    2  A    between atoms: C_5  and  S_8
REMARK    3  A    between atoms: S_8  and  S_11
REMARK    4  A    between atoms: S_11  and  C_12
REMARK    5  A    between atoms: C_17  and  C_18
REMARK                            x       y       z     vdW  Elec       q    Type
REMARK                         _______ _______ _______ _____ _____    ______ ____
ROOT
ATOM      1  S   UNL     1      89.050  70.245  86.237  0.00  0.00    +0.000 S 
ATOM      2  O   UNL     1      89.774  71.212  85.434  0.00  0.00    +0.000 OA
ATOM      3  O   UNL     1      89.600  69.731  87.477  0.00  0.00    +0.000 OA
ENDROOT
BRANCH   1   8
ATOM      4  C   UNL     1      83.654  72.716  87.527  0.00  0.00    +0.000 C 
ATOM      5  C   UNL     1      84.973  72.075  87.204  0.00  0.00    +0.000 A 
ATOM      6  C   UNL     1      85.795  71.595  88.233  0.00  0.00    +0.000 A 
ATOM      7  C   UNL     1      87.038  71.029  87.941  0.00  0.00    +0.000 A 
ATOM      8  C   UNL     1      87.459  70.945  86.611  0.00  0.00    +0.000 A 
ATOM      9  C   UNL     1      86.663  71.446  85.578  0.00  0.00    +0.000 A 
ATOM     10  C   UNL     1      85.422  72.010  85.878  0.00  0.00    +0.000 A 
ENDBRANCH   1   8
BRANCH   1  11
ATOM     11  S   UNL     1      88.555  68.617  85.019  0.00  0.00    +0.000 S 
BRANCH  11  12
ATOM     12  C   UNL     1      88.239  67.354  86.245  0.00  0.00    +0.000 A 
ATOM     13  C   UNL     1      86.999  67.366  86.902  0.00  0.00    +0.000 A 
ATOM     14  C   UNL     1      86.691  66.399  87.859  0.00  0.00    +0.000 A 
ATOM     15  C   UNL     1      87.616  65.407  88.164  0.00  0.00    +0.000 A 
ATOM     16  C   UNL     1      88.848  65.380  87.510  0.00  0.00    +0.000 A 
ATOM     17  C   UNL     1      89.175  66.346  86.544  0.00  0.00    +0.000 A 
ATOM     18  C   UNL     1      90.520  66.273  85.872  0.00  0.00    +0.000 C 
ENDBRANCH  11  12
ENDBRANCH   1  11
TORSDOF 3
ENDMDL
