REMARK  Name = *****
REMARK  3 active torsions:
REMARK  status: ('A' for Active; 'I' for Inactive)
REMARK    1  A    between atoms: C_4  and  C_7
REMARK    2  A    between atoms: C_7  and  S_9
REMARK    3  A    between atoms: S_9  and  C_10
REMARK                            x       y       z     vdW  Elec       q    Type
REMARK                         _______ _______ _______ _____ _____    ______ ____
ROOT
ATOM      1  C   UNL     1      -2.756  -0.221   0.232  0.00  0.00    +0.000 C 
ATOM      2  O   UNL     1      -3.403   0.810   0.377  0.00  0.00    +0.000 OA
ENDROOT
BRANCH   1   6
ATOM      3  C   UNL     1       1.491   0.123  -0.388  0.00  0.00    +0.000 A 
ATOM      4  C   UNL     1       0.920  -1.146  -0.316  0.00  0.00    +0.000 A 
ATOM      5  C   UNL     1      -0.457  -1.290  -0.118  0.00  0.00    +0.000 A 
ATOM      6  C   UNL     1      -1.278  -0.159   0.010  0.00  0.00    +0.000 A 
ATOM      7  C   UNL     1      -0.687   1.114  -0.064  0.00  0.00    +0.000 A 
ATOM      8  C   UNL     1       0.688   1.253  -0.262  0.00  0.00    +0.000 A 
ENDBRANCH   1   6
BRANCH   1   9
ATOM      9  S   UNL     1      -3.533  -1.804   0.256  0.00  0.00    +0.000 S 
BRANCH   9  10
ATOM     10  C   UNL     1      -5.009  -1.468   1.193  0.00  0.00    +0.000 A 
ATOM     11  C   UNL     1      -6.259  -1.536   0.568  0.00  0.00    +0.000 A 
ATOM     12  C   UNL     1      -7.428  -1.300   1.297  0.00  0.00    +0.000 A 
ATOM     13  C   UNL     1      -7.347  -1.002   2.657  0.00  0.00    +0.000 A 
ATOM     14  C   UNL     1      -6.107  -0.940   3.292  0.00  0.00    +0.000 A 
ATOM     15  C   UNL     1      -4.940  -1.177   2.560  0.00  0.00    +0.000 A 
ATOM     16  I   UNL     1      -9.083  -0.650   3.743  0.00  0.00    +0.000 I 
ENDBRANCH   9  10
ENDBRANCH   1   9
TORSDOF 3
