MODEL 1
REMARK VINA RESULT:      -4.0      0.000      0.000
REMARK  Name = *****
REMARK  4 active torsions:
REMARK  status: ('A' for Active; 'I' for Inactive)
REMARK    1  A    between atoms: C_1  and  C_2
REMARK    2  A    between atoms: C_5  and  C_7
REMARK    3  A    between atoms: C_7  and  S_8
REMARK    4  A    between atoms: S_8  and  C_9
REMARK                            x       y       z     vdW  Elec       q    Type
REMARK                         _______ _______ _______ _____ _____    ______ ____
ROOT
ATOM      1  C   UNL     1     103.421 126.870  81.482  0.00  0.00    +0.000 C 
ENDROOT
BRANCH   1   6
ATOM      2  C   UNL     1     104.966 122.069  80.505  0.00  0.00    +0.000 C 
ATOM      3  C   UNL     1     104.530 123.331  81.146  0.00  0.00    +0.000 A 
ATOM      4  C   UNL     1     104.359 123.572  82.493  0.00  0.00    +0.000 A 
ATOM      5  O   UNL     1     103.953 124.847  82.711  0.00  0.00    +0.000 OA
ATOM      6  C   UNL     1     103.847 125.447  81.490  0.00  0.00    +0.000 A 
ATOM      7  C   UNL     1     104.198 124.554  80.499  0.00  0.00    +0.000 A 
ENDBRANCH   1   6
BRANCH   1   8
ATOM      8  S   UNL     1     103.013 127.428  83.170  0.00  0.00    +0.000 S 
BRANCH   8   9
ATOM      9  C   UNL     1     101.248 127.691  83.057  0.00  0.00    +0.000 A 
ATOM     10  C   UNL     1     100.606 128.842  83.525  0.00  0.00    +0.000 A 
ATOM     11  C   UNL     1      99.218 128.974  83.420  0.00  0.00    +0.000 A 
ATOM     12  C   UNL     1      98.458 127.950  82.857  0.00  0.00    +0.000 A 
ATOM     13  C   UNL     1      99.085 126.793  82.403  0.00  0.00    +0.000 A 
ATOM     14  C   UNL     1     100.472 126.664  82.505  0.00  0.00    +0.000 A 
ENDBRANCH   8   9
ENDBRANCH   1   8
TORSDOF 3
ENDMDL
