REMARK  Name = *****
REMARK  3 active torsions:
REMARK  status: ('A' for Active; 'I' for Inactive)
REMARK    1  A    between atoms: C_4  and  C_7
REMARK    2  A    between atoms: C_7  and  C_8
REMARK    3  A    between atoms: C_8  and  C_12
REMARK                            x       y       z     vdW  Elec       q    Type
REMARK                         _______ _______ _______ _____ _____    ______ ____
ROOT
ATOM      1  C   UNL     1      -3.506  -0.922  -0.550  0.00  0.00    +0.000 C 
ATOM      2  C   UNL     1      -3.110  -2.133  -0.972  0.00  0.00    +0.000 C 
ATOM      3  F   UNL     1      -3.995  -3.144  -1.111  0.00  0.00    +0.000 F 
ATOM      4  F   UNL     1      -1.811  -2.353  -1.268  0.00  0.00    +0.000 F 
ENDROOT
BRANCH   1   5
ATOM      5  C   UNL     1      -4.926  -0.671  -0.243  0.00  0.00    +0.000 A 
ATOM      6  C   UNL     1      -5.546  -1.329   0.831  0.00  0.00    +0.000 A 
ATOM      7  C   UNL     1      -6.887  -1.082   1.132  0.00  0.00    +0.000 A 
ATOM      8  C   UNL     1      -7.607  -0.179   0.360  0.00  0.00    +0.000 A 
ATOM      9  C   UNL     1      -7.012   0.482  -0.708  0.00  0.00    +0.000 A 
ATOM     10  C   UNL     1      -5.671   0.237  -1.010  0.00  0.00    +0.000 A 
ATOM     11  F   UNL     1      -8.893   0.059   0.649  0.00  0.00    +0.000 F 
ENDBRANCH   1   5
BRANCH   1  12
ATOM     12  C   UNL     1      -2.546   0.234  -0.418  0.00  0.00    +0.000 C 
BRANCH  12  16
ATOM     13  C   UNL     1      -1.577   1.081   3.703  0.00  0.00    +0.000 A 
ATOM     14  C   UNL     1      -0.849   0.125   2.997  0.00  0.00    +0.000 A 
ATOM     15  C   UNL     1      -1.159  -0.145   1.663  0.00  0.00    +0.000 A 
ATOM     16  C   UNL     1      -2.196   0.546   1.020  0.00  0.00    +0.000 A 
ATOM     17  C   UNL     1      -2.926   1.501   1.742  0.00  0.00    +0.000 A 
ATOM     18  C   UNL     1      -2.615   1.768   3.077  0.00  0.00    +0.000 A 
ENDBRANCH  12  16
ENDBRANCH   1  12
TORSDOF 3
