REMARK  Name = *****
REMARK  4 active torsions:
REMARK  status: ('A' for Active; 'I' for Inactive)
REMARK    1  A    between atoms: C_4  and  C_7
REMARK    2  A    between atoms: C_7  and  S_8
REMARK    3  A    between atoms: S_8  and  C_9
REMARK    4  A    between atoms: C_9  and  C_10
REMARK                            x       y       z     vdW  Elec       q    Type
REMARK                         _______ _______ _______ _____ _____    ______ ____
ROOT
ATOM      1  S   UNL     1      -3.584  -1.454  -0.207  0.00  0.00    +0.000 S 
ENDROOT
BRANCH   1   2
ATOM      2  C   UNL     1      -2.868   0.216  -0.191  0.00  0.00    +0.000 C 
BRANCH   2   6
ATOM      3  C   UNL     1       1.422   0.084   0.237  0.00  0.00    +0.000 A 
ATOM      4  C   UNL     1       0.847   0.068  -1.032  0.00  0.00    +0.000 A 
ATOM      5  C   UNL     1      -0.541   0.111  -1.172  0.00  0.00    +0.000 A 
ATOM      6  C   UNL     1      -1.369   0.177  -0.041  0.00  0.00    +0.000 A 
ATOM      7  C   UNL     1      -0.778   0.183   1.231  0.00  0.00    +0.000 A 
ATOM      8  C   UNL     1       0.610   0.139   1.368  0.00  0.00    +0.000 A 
ENDBRANCH   2   6
ENDBRANCH   1   2
BRANCH   1   9
ATOM      9  C   UNL     1      -5.329  -0.990  -0.408  0.00  0.00    +0.000 C 
BRANCH   9  10
ATOM     10  C   UNL     1      -6.189  -2.205  -0.478  0.00  0.00    +0.000 A 
ATOM     11  C   UNL     1      -6.711  -2.972   0.549  0.00  0.00    +0.000 A 
ATOM     12  N   UNL     1      -7.500  -4.040   0.165  0.00  0.00    +0.000 NA
ATOM     13  C   UNL     1      -7.541  -4.072  -1.144  0.00  0.00    +0.000 A 
ATOM     14  S   UNL     1      -6.699  -2.861  -1.986  0.00  0.00    +0.000 S 
ATOM     15 CL   UNL     1      -8.420  -5.265  -2.009  0.00  0.00    +0.000 Cl
ENDBRANCH   9  10
ENDBRANCH   1   9
TORSDOF 4
