MODEL 1
REMARK VINA RESULT:      -4.4      0.000      0.000
REMARK  Name = *****
REMARK  4 active torsions:
REMARK  status: ('A' for Active; 'I' for Inactive)
REMARK    1  A    between atoms: C_4  and  C_7
REMARK    2  A    between atoms: C_7  and  O_8
REMARK    3  A    between atoms: O_8  and  C_9
REMARK    4  A    between atoms: C_9  and  C_11
REMARK                            x       y       z     vdW  Elec       q    Type
REMARK                         _______ _______ _______ _____ _____    ______ ____
ROOT
ATOM      1  O   UNL     1     103.525 125.121  80.182  0.00  0.00    +0.000 OA
ENDROOT
BRANCH   1   2
ATOM      2  C   UNL     1     104.639 124.352  80.093  0.00  0.00    +0.000 C 
ATOM      3  O   UNL     1     105.559 124.504  79.305  0.00  0.00    +0.000 OA
BRANCH   2   4
ATOM      4  C   UNL     1     104.599 123.261  81.105  0.00  0.00    +0.000 A 
ATOM      5  C   UNL     1     104.678 121.937  80.653  0.00  0.00    +0.000 A 
ATOM      6  C   UNL     1     104.646 120.878  81.562  0.00  0.00    +0.000 A 
ATOM      7  C   UNL     1     104.532 121.136  82.927  0.00  0.00    +0.000 A 
ATOM      8  C   UNL     1     104.450 122.451  83.386  0.00  0.00    +0.000 A 
ATOM      9  C   UNL     1     104.483 123.513  82.480  0.00  0.00    +0.000 A 
ENDBRANCH   2   4
ENDBRANCH   1   2
BRANCH   1  10
ATOM     10  C   UNL     1     103.724 126.544  80.254  0.00  0.00    +0.000 C 
BRANCH  10  14
ATOM     11  C   UNL     1     101.797 127.404  84.089  0.00  0.00    +0.000 C 
ATOM     12  C   UNL     1     102.618 128.512  83.436  0.00  0.00    +0.000 C 
ATOM     13  C   UNL     1     103.546 127.967  82.354  0.00  0.00    +0.000 C 
ATOM     14  C   UNL     1     102.779 127.149  81.301  0.00  0.00    +0.000 C 
ATOM     15  C   UNL     1     101.951 126.042  81.969  0.00  0.00    +0.000 C 
ATOM     16  C   UNL     1     101.025 126.597  83.050  0.00  0.00    +0.000 C 
ENDBRANCH  10  14
ENDBRANCH   1  10
TORSDOF 4
ENDMDL
