MODEL 1
REMARK VINA RESULT:      -4.6      0.000      0.000
REMARK  Name = *****
REMARK  5 active torsions:
REMARK  status: ('A' for Active; 'I' for Inactive)
REMARK    1  A    between atoms: C_1  and  C_2
REMARK    2  A    between atoms: C_5  and  O_8
REMARK    3  A    between atoms: O_8  and  C_9
REMARK    4  A    between atoms: C_10  and  C_11
REMARK    5  A    between atoms: C_11  and  C_12
REMARK                            x       y       z     vdW  Elec       q    Type
REMARK                         _______ _______ _______ _____ _____    ______ ____
ROOT
ATOM      1  C   UNL     1      87.961  68.506  87.482  0.00  0.00    +0.000 C 
ATOM      2  C   UNL     1      87.455  69.292  88.438  0.00  0.00    +0.000 C 
ENDROOT
BRANCH   1   3
ATOM      3  O   UNL     1      87.860  67.135  87.542  0.00  0.00    +0.000 OA
BRANCH   3   8
ATOM      4  C   UNL     1      91.862  64.312  84.686  0.00  0.00    +0.000 C 
ATOM      5  C   UNL     1      90.815  65.045  85.473  0.00  0.00    +0.000 A 
ATOM      6  C   UNL     1      89.715  64.355  86.001  0.00  0.00    +0.000 A 
ATOM      7  C   UNL     1      88.722  65.041  86.703  0.00  0.00    +0.000 A 
ATOM      8  C   UNL     1      88.831  66.419  86.885  0.00  0.00    +0.000 A 
ATOM      9  C   UNL     1      89.900  67.122  86.334  0.00  0.00    +0.000 A 
ATOM     10  C   UNL     1      90.891  66.435  85.631  0.00  0.00    +0.000 A 
ENDBRANCH   3   8
ENDBRANCH   1   3
BRANCH   2  11
ATOM     11  C   UNL     1      87.525  70.790  88.415  0.00  0.00    +0.000 C 
BRANCH  11  12
ATOM     12  C   UNL     1      86.309  71.415  87.776  0.00  0.00    +0.000 A 
ATOM     13  C   UNL     1      85.256  71.893  88.571  0.00  0.00    +0.000 A 
ATOM     14  C   UNL     1      84.126  72.461  87.981  0.00  0.00    +0.000 A 
ATOM     15  C   UNL     1      84.033  72.554  86.594  0.00  0.00    +0.000 A 
ATOM     16  C   UNL     1      85.070  72.077  85.794  0.00  0.00    +0.000 A 
ATOM     17  C   UNL     1      86.202  71.508  86.381  0.00  0.00    +0.000 A 
ENDBRANCH  11  12
ENDBRANCH   2  11
TORSDOF 4
ENDMDL
