MODEL 1
REMARK VINA RESULT:      -4.7      0.000      0.000
REMARK  Name = *****
REMARK  2 active torsions:
REMARK  status: ('A' for Active; 'I' for Inactive)
REMARK    1  A    between atoms: C_6  and  C_7
REMARK    2  A    between atoms: C_7  and  C_8
REMARK                            x       y       z     vdW  Elec       q    Type
REMARK                         _______ _______ _______ _____ _____    ______ ____
ROOT
ATOM      1  C   UNL     1      91.313  72.578  82.191  0.00  0.00    +0.000 C 
ATOM      2  C   UNL     1      91.787  71.245  82.771  0.00  0.00    +0.000 C 
ATOM      3  C   UNL     1      90.652  70.487  83.459  0.00  0.00    +0.000 C 
ATOM      4  C   UNL     1      89.952  71.358  84.473  0.00  0.00    +0.000 C 
ATOM      5  C   UNL     1      89.736  70.976  85.701  0.00  0.00    +0.000 C 
ATOM      6  C   UNL     1      89.511  70.609  86.928  0.00  0.00    +0.000 C 
ATOM      7  C   UNL     1      89.491  72.694  83.945  0.00  0.00    +0.000 C 
ATOM      8  C   UNL     1      90.633  73.439  83.255  0.00  0.00    +0.000 C 
ENDROOT
BRANCH   6   9
ATOM      9  C   UNL     1      88.283  69.884  87.395  0.00  0.00    +0.000 C 
BRANCH   9  10
ATOM     10  C   UNL     1      87.048  70.751  87.344  0.00  0.00    +0.000 A 
ATOM     11  C   UNL     1      86.445  71.194  88.530  0.00  0.00    +0.000 A 
ATOM     12  C   UNL     1      85.294  71.982  88.489  0.00  0.00    +0.000 A 
ATOM     13  C   UNL     1      84.732  72.331  87.263  0.00  0.00    +0.000 A 
ATOM     14  C   UNL     1      85.317  71.890  86.078  0.00  0.00    +0.000 A 
ATOM     15  C   UNL     1      86.468  71.101  86.116  0.00  0.00    +0.000 A 
ENDBRANCH   9  10
ENDBRANCH   6   9
TORSDOF 2
ENDMDL
