MODEL 1
REMARK VINA RESULT:      -4.4      0.000      0.000
REMARK  Name = *****
REMARK  4 active torsions:
REMARK  status: ('A' for Active; 'I' for Inactive)
REMARK    1  A    between atoms: C_6  and  C_7
REMARK    2  A    between atoms: C_7  and  N_8
REMARK    3  A    between atoms: N_8  and  C_9
REMARK    4  A    between atoms: C_9  and  C_10
REMARK                            x       y       z     vdW  Elec       q    Type
REMARK                         _______ _______ _______ _____ _____    ______ ____
ROOT
ATOM      1  N   UNL     1     103.491 125.215  80.057  0.00  0.00    +0.000 NA
ENDROOT
BRANCH   1   2
ATOM      2  C   UNL     1     103.610 126.638  80.391  0.00  0.00    +0.000 C 
BRANCH   2   8
ATOM      3  C   UNL     1     101.775 126.155  82.070  0.00  0.00    +0.000 A 
ATOM      4  C   UNL     1     101.044 126.486  83.216  0.00  0.00    +0.000 A 
ATOM      5  C   UNL     1     101.359 127.640  83.929  0.00  0.00    +0.000 A 
ATOM      6  C   UNL     1     102.398 128.467  83.511  0.00  0.00    +0.000 A 
ATOM      7  C   UNL     1     103.128 128.135  82.368  0.00  0.00    +0.000 A 
ATOM      8  C   UNL     1     102.825 126.975  81.637  0.00  0.00    +0.000 A 
ATOM      9 CL   UNL     1     100.457 128.045  85.338  0.00  0.00    +0.000 Cl
ENDBRANCH   2   8
ENDBRANCH   1   2
BRANCH   1  10
ATOM     10  C   UNL     1     104.558 124.528  80.276  0.00  0.00    +0.000 C 
BRANCH  10  11
ATOM     11  C   UNL     1     104.557 123.366  81.187  0.00  0.00    +0.000 A 
ATOM     12  C   UNL     1     104.419 123.542  82.569  0.00  0.00    +0.000 A 
ATOM     13  C   UNL     1     104.422 122.431  83.415  0.00  0.00    +0.000 A 
ATOM     14  C   UNL     1     104.564 121.152  82.878  0.00  0.00    +0.000 A 
ATOM     15  C   UNL     1     104.702 120.973  81.501  0.00  0.00    +0.000 A 
ATOM     16  C   UNL     1     104.698 122.083  80.650  0.00  0.00    +0.000 A 
ATOM     17 CL   UNL     1     104.570 119.784  83.920  0.00  0.00    +0.000 Cl
ENDBRANCH  10  11
ENDBRANCH   1  10
TORSDOF 4
ENDMDL
