MODEL 1
REMARK VINA RESULT:      -4.2      0.000      0.000
REMARK  Name = *****
REMARK  4 active torsions:
REMARK  status: ('A' for Active; 'I' for Inactive)
REMARK    1  A    between atoms: C_2  and  C_3
REMARK    2  A    between atoms: C_2  and  O_10
REMARK    3  A    between atoms: C_3  and  C_4
REMARK    4  A    between atoms: O_10  and  C_11
REMARK                            x       y       z     vdW  Elec       q    Type
REMARK                         _______ _______ _______ _____ _____    ______ ____
ROOT
ATOM      1  C   UNL     1      86.542  68.676  88.404  0.00  0.00    +0.000 C 
ATOM      2  C   UNL     1      87.379  69.721  88.294  0.00  0.00    +0.000 C 
ENDROOT
BRANCH   2   3
ATOM      3  C   UNL     1      86.950  71.149  88.526  0.00  0.00    +0.000 C 
BRANCH   3   4
ATOM      4  C   UNL     1      85.927  71.627  87.521  0.00  0.00    +0.000 A 
ATOM      5  C   UNL     1      86.196  71.567  86.146  0.00  0.00    +0.000 A 
ATOM      6  C   UNL     1      85.261  72.031  85.220  0.00  0.00    +0.000 A 
ATOM      7  C   UNL     1      84.049  72.562  85.659  0.00  0.00    +0.000 A 
ATOM      8  C   UNL     1      83.773  72.634  87.023  0.00  0.00    +0.000 A 
ATOM      9  C   UNL     1      84.707  72.171  87.950  0.00  0.00    +0.000 A 
ENDBRANCH   3   4
ENDBRANCH   2   3
BRANCH   2  10
ATOM     10  O   UNL     1      88.741  69.562  88.078  0.00  0.00    +0.000 OA
BRANCH  10  11
ATOM     11  C   UNL     1      89.244  69.546  86.782  0.00  0.00    +0.000 C 
ATOM     12  C   UNL     1      89.750  70.676  86.263  0.00  0.00    +0.000 C 
ATOM     13  C   UNL     1      90.232  70.796  84.849  0.00  0.00    +0.000 C 
ATOM     14  C   UNL     1      89.771  69.641  83.959  0.00  0.00    +0.000 C 
ATOM     15  C   UNL     1      89.906  68.301  84.675  0.00  0.00    +0.000 C 
ATOM     16  C   UNL     1      89.096  68.279  85.974  0.00  0.00    +0.000 C 
ENDBRANCH  10  11
ENDBRANCH   2  10
TORSDOF 4
ENDMDL
