MODEL 1
REMARK VINA RESULT:      -4.6      0.000      0.000
REMARK  Name = *****
REMARK  5 active torsions:
REMARK  status: ('A' for Active; 'I' for Inactive)
REMARK    1  A    between atoms: C_1  and  C_2
REMARK    2  A    between atoms: C_5  and  C_8
REMARK    3  A    between atoms: C_9  and  C_10
REMARK    4  A    between atoms: C_15  and  O_16
REMARK    5  A    between atoms: O_16  and  C_17
REMARK                            x       y       z     vdW  Elec       q    Type
REMARK                         _______ _______ _______ _____ _____    ______ ____
ROOT
ATOM      1  C   UNL     1     102.861 125.334  82.077  0.00  0.00    +0.000 C 
ATOM      2  C   UNL     1     102.017 126.141  82.354  0.00  0.00    +0.000 C 
ENDROOT
BRANCH   1   7
ATOM      3  C   UNL     1     107.037 121.574  80.924  0.00  0.00    +0.000 C 
ATOM      4  C   UNL     1     105.920 122.535  81.211  0.00  0.00    +0.000 A 
ATOM      5  C   UNL     1     105.404 123.356  80.200  0.00  0.00    +0.000 A 
ATOM      6  C   UNL     1     104.387 124.271  80.484  0.00  0.00    +0.000 A 
ATOM      7  C   UNL     1     103.884 124.378  81.780  0.00  0.00    +0.000 A 
ATOM      8  C   UNL     1     104.395 123.566  82.794  0.00  0.00    +0.000 A 
ATOM      9  C   UNL     1     105.412 122.652  82.511  0.00  0.00    +0.000 A 
ENDBRANCH   1   7
BRANCH   2  10
ATOM     10  C   UNL     1     101.033 127.122  82.704  0.00  0.00    +0.000 A 
ATOM     11  C   UNL     1      99.691 126.859  82.399  0.00  0.00    +0.000 A 
ATOM     12  C   UNL     1      98.692 127.771  82.745  0.00  0.00    +0.000 A 
ATOM     13  C   UNL     1      99.026 128.950  83.409  0.00  0.00    +0.000 A 
ATOM     14  C   UNL     1     100.359 129.221  83.718  0.00  0.00    +0.000 A 
ATOM     15  C   UNL     1     101.364 128.323  83.348  0.00  0.00    +0.000 A 
BRANCH  15  16
ATOM     16  O   UNL     1     102.639 128.666  83.722  0.00  0.00    +0.000 OA
ATOM     17  C   UNL     1     102.689 129.922  84.396  0.00  0.00    +0.000 C 
ENDBRANCH  15  16
ENDBRANCH   2  10
TORSDOF 3
ENDMDL
