MODEL 1
REMARK VINA RESULT:      -4.4      0.000      0.000
REMARK  Name = *****
REMARK  3 active torsions:
REMARK  status: ('A' for Active; 'I' for Inactive)
REMARK    1  A    between atoms: C_6  and  C_7
REMARK    2  A    between atoms: C_7  and  S_8
REMARK    3  A    between atoms: S_8  and  C_9
REMARK                            x       y       z     vdW  Elec       q    Type
REMARK                         _______ _______ _______ _____ _____    ______ ____
ROOT
ATOM      1  S   UNL     1     103.255 127.188  81.180  0.00  0.00    +0.000 S 
ENDROOT
BRANCH   1   2
ATOM      2  C   UNL     1     103.791 125.505  81.455  0.00  0.00    +0.000 A 
ATOM      3  C   UNL     1     103.757 124.841  82.683  0.00  0.00    +0.000 A 
ATOM      4  C   UNL     1     104.204 123.522  82.782  0.00  0.00    +0.000 A 
ATOM      5  C   UNL     1     104.692 122.845  81.668  0.00  0.00    +0.000 A 
ATOM      6  C   UNL     1     104.734 123.493  80.437  0.00  0.00    +0.000 A 
ATOM      7  C   UNL     1     104.286 124.815  80.335  0.00  0.00    +0.000 A 
ATOM      8 CL   UNL     1     105.241 121.220  81.794  0.00  0.00    +0.000 Cl
ATOM      9  F   UNL     1     104.154 122.920  83.979  0.00  0.00    +0.000 F 
ENDBRANCH   1   2
BRANCH   1  10
ATOM     10  C   UNL     1     102.665 127.730  82.818  0.00  0.00    +0.000 C 
BRANCH  10  16
ATOM     11  C   UNL     1     100.438 126.627  82.344  0.00  0.00    +0.000 A 
ATOM     12  C   UNL     1      99.044 126.596  82.424  0.00  0.00    +0.000 A 
ATOM     13  C   UNL     1      98.370 127.633  83.055  0.00  0.00    +0.000 A 
ATOM     14  C   UNL     1      99.062 128.702  83.613  0.00  0.00    +0.000 A 
ATOM     15  C   UNL     1     100.455 128.736  83.533  0.00  0.00    +0.000 A 
ATOM     16  C   UNL     1     101.157 127.702  82.891  0.00  0.00    +0.000 A 
ATOM     17  F   UNL     1      97.034 127.602  83.132  0.00  0.00    +0.000 F 
ENDBRANCH  10  16
ENDBRANCH   1  10
TORSDOF 3
ENDMDL
