MODEL 1
REMARK VINA RESULT:      -4.5      0.000      0.000
REMARK  Name = *****
REMARK  5 active torsions:
REMARK  status: ('A' for Active; 'I' for Inactive)
REMARK    1  A    between atoms: C_1  and  C_2
REMARK    2  A    between atoms: C_3  and  C_16
REMARK    3  A    between atoms: C_6  and  O_8
REMARK    4  A    between atoms: O_8  and  C_9
REMARK    5  A    between atoms: C_9  and  C_10
REMARK                            x       y       z     vdW  Elec       q    Type
REMARK                         _______ _______ _______ _____ _____    ______ ____
ROOT
ATOM      1  C   UNL     1     104.412 122.871  83.380  0.00  0.00    +0.000 C 
ATOM      2  C   UNL     1     104.322 123.925  82.309  0.00  0.00    +0.000 A 
ATOM      3  C   UNL     1     104.622 123.647  80.960  0.00  0.00    +0.000 A 
ATOM      4  C   UNL     1     104.509 124.681  80.015  0.00  0.00    +0.000 A 
ATOM      5  C   UNL     1     104.128 125.972  80.392  0.00  0.00    +0.000 A 
ATOM      6  C   UNL     1     103.843 126.253  81.724  0.00  0.00    +0.000 A 
ATOM      7  C   UNL     1     103.946 125.230  82.671  0.00  0.00    +0.000 A 
ENDROOT
BRANCH   3   8
ATOM      8  C   UNL     1     105.036 122.278  80.488  0.00  0.00    +0.000 C 
ATOM      9 CL   UNL     1     106.797 122.076  80.617  0.00  0.00    +0.000 Cl
ENDBRANCH   3   8
BRANCH   6  10
ATOM     10  O   UNL     1     103.478 127.467  82.237  0.00  0.00    +0.000 OA
BRANCH  10  11
ATOM     11  C   UNL     1     102.699 127.497  83.436  0.00  0.00    +0.000 C 
BRANCH  11  12
ATOM     12  C   UNL     1     101.220 127.710  83.190  0.00  0.00    +0.000 A 
ATOM     13  C   UNL     1     100.452 126.684  82.619  0.00  0.00    +0.000 A 
ATOM     14  C   UNL     1      99.082 126.856  82.411  0.00  0.00    +0.000 A 
ATOM     15  C   UNL     1      98.464 128.048  82.781  0.00  0.00    +0.000 A 
ATOM     16  C   UNL     1      99.213 129.068  83.364  0.00  0.00    +0.000 A 
ATOM     17  C   UNL     1     100.582 128.898  83.574  0.00  0.00    +0.000 A 
ENDBRANCH  11  12
ENDBRANCH  10  11
ENDBRANCH   6  10
TORSDOF 4
ENDMDL
