MODEL 1
REMARK VINA RESULT:      -4.3      0.000      0.000
REMARK  Name = *****
REMARK  5 active torsions:
REMARK  status: ('A' for Active; 'I' for Inactive)
REMARK    1  A    between atoms: N_2  and  C_3
REMARK    2  A    between atoms: C_3  and  C_4
REMARK    3  A    between atoms: C_9  and  O_10
REMARK    4  A    between atoms: O_10  and  C_11
REMARK    5  A    between atoms: C_11  and  C_12
REMARK                            x       y       z     vdW  Elec       q    Type
REMARK                         _______ _______ _______ _____ _____    ______ ____
ROOT
ATOM      1  C   UNL     1      99.542 127.815  83.056  0.00  0.00    +0.000 A 
ATOM      2  C   UNL     1      99.052 129.078  83.435  0.00  0.00    +0.000 A 
ATOM      3  C   UNL     1      99.897 130.030  84.004  0.00  0.00    +0.000 A 
ATOM      4  C   UNL     1     101.237 129.725  84.216  0.00  0.00    +0.000 A 
ATOM      5  C   UNL     1     101.737 128.475  83.849  0.00  0.00    +0.000 A 
ATOM      6  C   UNL     1     100.904 127.521  83.254  0.00  0.00    +0.000 A 
ENDROOT
BRANCH   1   7
ATOM      7  C   UNL     1      98.590 126.805  82.459  0.00  0.00    +0.000 C 
BRANCH   7   9
ATOM      8  C   UNL     1      96.428 126.598  83.899  0.00  0.00    +0.000 C 
ATOM      9  N   UNL     1      97.393 126.685  83.239  0.00  0.00    +0.000 NA
ENDBRANCH   7   9
ENDBRANCH   1   7
BRANCH   6  10
ATOM     10  O   UNL     1     101.319 126.278  82.852  0.00  0.00    +0.000 OA
BRANCH  10  11
ATOM     11  C   UNL     1     102.464 125.733  83.509  0.00  0.00    +0.000 C 
BRANCH  11  12
ATOM     12  C   UNL     1     103.313 125.018  82.487  0.00  0.00    +0.000 A 
ATOM     13  C   UNL     1     104.085 123.907  82.855  0.00  0.00    +0.000 A 
ATOM     14  C   UNL     1     104.863 123.238  81.909  0.00  0.00    +0.000 A 
ATOM     15  C   UNL     1     104.878 123.674  80.585  0.00  0.00    +0.000 A 
ATOM     16  C   UNL     1     104.121 124.782  80.209  0.00  0.00    +0.000 A 
ATOM     17  C   UNL     1     103.342 125.452  81.154  0.00  0.00    +0.000 A 
ENDBRANCH  11  12
ENDBRANCH  10  11
ENDBRANCH   6  10
TORSDOF 5
ENDMDL
