MODEL 1
REMARK VINA RESULT:      -4.8      0.000      0.000
REMARK  Name = *****
REMARK  6 active torsions:
REMARK  status: ('A' for Active; 'I' for Inactive)
REMARK    1  A    between atoms: C_1  and  C_2
REMARK    2  A    between atoms: C_5  and  C_8
REMARK    3  A    between atoms: C_8  and  C_9
REMARK    4  A    between atoms: C_9  and  C_10
REMARK    5  A    between atoms: C_15  and  O_16
REMARK    6  A    between atoms: O_16  and  C_17
REMARK                            x       y       z     vdW  Elec       q    Type
REMARK                         _______ _______ _______ _____ _____    ______ ____
ROOT
ATOM      1  C   UNL     1      89.598  68.920  86.568  0.00  0.00    +0.000 C 
ENDROOT
BRANCH   1   2
ATOM      2  C   UNL     1      89.004  67.548  86.815  0.00  0.00    +0.000 A 
ATOM      3  C   UNL     1      87.702  67.385  87.315  0.00  0.00    +0.000 A 
ATOM      4  C   UNL     1      87.166  66.112  87.526  0.00  0.00    +0.000 A 
ATOM      5  C   UNL     1      87.918  64.978  87.235  0.00  0.00    +0.000 A 
ATOM      6  C   UNL     1      89.203  65.115  86.717  0.00  0.00    +0.000 A 
ATOM      7  C   UNL     1      89.727  66.390  86.483  0.00  0.00    +0.000 A 
BRANCH   7   8
ATOM      8  O   UNL     1      91.001  66.512  85.985  0.00  0.00    +0.000 OA
ATOM      9  C   UNL     1      91.386  65.325  85.292  0.00  0.00    +0.000 C 
ENDBRANCH   7   8
ENDBRANCH   1   2
BRANCH   1  10
ATOM     10  C   UNL     1      89.249  70.033  87.571  0.00  0.00    +0.000 C 
BRANCH  10  15
ATOM     11  C   UNL     1      84.008  72.559  87.080  0.00  0.00    +0.000 C 
ATOM     12  C   UNL     1      85.368  71.939  87.197  0.00  0.00    +0.000 A 
ATOM     13  C   UNL     1      86.092  71.597  86.050  0.00  0.00    +0.000 A 
ATOM     14  C   UNL     1      87.348  70.991  86.155  0.00  0.00    +0.000 A 
ATOM     15  C   UNL     1      87.908  70.717  87.410  0.00  0.00    +0.000 A 
ATOM     16  C   UNL     1      87.162  71.033  88.555  0.00  0.00    +0.000 A 
ATOM     17  C   UNL     1      85.907  71.638  88.450  0.00  0.00    +0.000 A 
ENDBRANCH  10  15
ENDBRANCH   1  10
TORSDOF 4
ENDMDL
