MODEL 1
REMARK VINA RESULT:      -4.6      0.000      0.000
REMARK  Name = *****
REMARK  4 active torsions:
REMARK  status: ('A' for Active; 'I' for Inactive)
REMARK    1  A    between atoms: C_1  and  C_2
REMARK    2  A    between atoms: C_3  and  N_9
REMARK    3  A    between atoms: N_9  and  S_10
REMARK    4  A    between atoms: S_10  and  N_13
REMARK                            x       y       z     vdW  Elec       q    Type
REMARK                         _______ _______ _______ _____ _____    ______ ____
ROOT
ATOM      1  N   UNL     1     102.439 125.480  81.902  0.00  0.00    +0.000 N 
ATOM      2  H   UNL     1     101.540 125.362  81.518  0.00  0.00    +0.000 HD
ENDROOT
BRANCH   1   5
ATOM      3  C   UNL     1     103.619 127.418  80.027  0.00  0.00    +0.000 C 
ATOM      4  C   UNL     1     104.200 126.051  80.262  0.00  0.00    +0.000 A 
ATOM      5  C   UNL     1     103.627 125.138  81.169  0.00  0.00    +0.000 A 
ATOM      6  C   UNL     1     104.177 123.864  81.324  0.00  0.00    +0.000 A 
ATOM      7  C   UNL     1     105.313 123.503  80.605  0.00  0.00    +0.000 A 
ATOM      8  C   UNL     1     105.904 124.400  79.721  0.00  0.00    +0.000 A 
ATOM      9  C   UNL     1     105.348 125.668  79.549  0.00  0.00    +0.000 A 
ATOM     10 CL   UNL     1     105.991 121.935  80.811  0.00  0.00    +0.000 Cl
ENDBRANCH   1   5
BRANCH   1  11
ATOM     11  S   UNL     1     102.669 126.092  83.458  0.00  0.00    +0.000 S 
ATOM     12  O   UNL     1     102.404 125.006  84.374  0.00  0.00    +0.000 OA
ATOM     13  O   UNL     1     103.917 126.816  83.503  0.00  0.00    +0.000 OA
BRANCH  11  14
ATOM     14  N   UNL     1     101.373 127.195  83.563  0.00  0.00    +0.000 NA
ATOM     15  C   UNL     1     101.757 128.619  83.373  0.00  0.00    +0.000 C 
ATOM     16  C   UNL     1     101.067 129.493  84.417  0.00  0.00    +0.000 C 
ATOM     17  C   UNL     1      99.582 129.740  84.174  0.00  0.00    +0.000 C 
ATOM     18  C   UNL     1      98.739 128.481  83.989  0.00  0.00    +0.000 C 
ATOM     19  C   UNL     1      99.057 127.758  82.683  0.00  0.00    +0.000 C 
ATOM     20  C   UNL     1     100.196 126.747  82.774  0.00  0.00    +0.000 C 
ENDBRANCH  11  14
ENDBRANCH   1  11
TORSDOF 3
ENDMDL
