REMARK  Name = *****
REMARK  3 active torsions:
REMARK  status: ('A' for Active; 'I' for Inactive)
REMARK    1  A    between atoms: C_6  and  C_7
REMARK    2  A    between atoms: C_7  and  S_8
REMARK    3  A    between atoms: S_8  and  C_9
REMARK                            x       y       z     vdW  Elec       q    Type
REMARK                         _______ _______ _______ _____ _____    ______ ____
ROOT
ATOM      1  C   UNL     1      -3.506   0.208  -0.074  0.00  0.00    +0.000 C 
ENDROOT
BRANCH   1   7
ATOM      2  C   UNL     1      -1.233  -0.015  -1.163  0.00  0.00    +0.000 A 
ATOM      3  C   UNL     1       0.160  -0.076  -1.090  0.00  0.00    +0.000 A 
ATOM      4  C   UNL     1       0.785   0.010   0.148  0.00  0.00    +0.000 A 
ATOM      5  C   UNL     1       0.046   0.160   1.314  0.00  0.00    +0.000 A 
ATOM      6  C   UNL     1      -1.347   0.224   1.244  0.00  0.00    +0.000 A 
ATOM      7  C   UNL     1      -2.001   0.129   0.005  0.00  0.00    +0.000 A 
ATOM      8  F   UNL     1       2.122  -0.049   0.217  0.00  0.00    +0.000 F 
ENDBRANCH   1   7
BRANCH   1   9
ATOM      9  S   UNL     1      -4.062   1.907  -0.436  0.00  0.00    +0.000 S 
BRANCH   9  10
ATOM     10  C   UNL     1      -5.818   1.740  -0.174  0.00  0.00    +0.000 A 
ATOM     11  C   UNL     1      -6.464   2.670   0.649  0.00  0.00    +0.000 A 
ATOM     12  C   UNL     1      -7.842   2.585   0.871  0.00  0.00    +0.000 A 
ATOM     13  C   UNL     1      -8.578   1.572   0.261  0.00  0.00    +0.000 A 
ATOM     14  C   UNL     1      -7.950   0.650  -0.573  0.00  0.00    +0.000 A 
ATOM     15  C   UNL     1      -6.572   0.737  -0.794  0.00  0.00    +0.000 A 
ATOM     16 CL   UNL     1     -10.273   1.465   0.532  0.00  0.00    +0.000 Cl
ENDBRANCH   9  10
ENDBRANCH   1   9
TORSDOF 3
