MODEL 1
REMARK VINA RESULT:      -4.4      0.000      0.000
REMARK  Name = *****
REMARK  4 active torsions:
REMARK  status: ('A' for Active; 'I' for Inactive)
REMARK    1  A    between atoms: C_1  and  C_2
REMARK    2  A    between atoms: C_7  and  N_8
REMARK    3  A    between atoms: N_8  and  S_9
REMARK    4  A    between atoms: S_9  and  C_10
REMARK                            x       y       z     vdW  Elec       q    Type
REMARK                         _______ _______ _______ _____ _____    ______ ____
ROOT
ATOM      1  N   UNL     1      89.135  63.846  87.949  0.00  0.00    +0.000 N 
ATOM      2  H   UNL     1      89.943  63.895  88.510  0.00  0.00    +0.000 HD
ENDROOT
BRANCH   1   9
ATOM      3  C   UNL     1      88.732  64.016  90.826  0.00  0.00    +0.000 C 
ATOM      4  C   UNL     1      87.724  63.388  89.901  0.00  0.00    +0.000 A 
ATOM      5  C   UNL     1      86.533  62.886  90.458  0.00  0.00    +0.000 A 
ATOM      6  C   UNL     1      85.551  62.318  89.652  0.00  0.00    +0.000 A 
ATOM      7  C   UNL     1      85.742  62.255  88.278  0.00  0.00    +0.000 A 
ATOM      8  C   UNL     1      86.923  62.744  87.713  0.00  0.00    +0.000 A 
ATOM      9  C   UNL     1      87.952  63.284  88.506  0.00  0.00    +0.000 A 
ENDBRANCH   1   9
BRANCH   1  10
ATOM     10  S   UNL     1      89.215  64.429  86.387  0.00  0.00    +0.000 S 
BRANCH  10  11
ATOM     11  C   UNL     1      89.058  66.194  86.650  0.00  0.00    +0.000 A 
ATOM     12  C   UNL     1      89.991  67.121  86.169  0.00  0.00    +0.000 A 
ATOM     13  C   UNL     1      89.815  68.488  86.394  0.00  0.00    +0.000 A 
ATOM     14  C   UNL     1      88.701  68.943  87.097  0.00  0.00    +0.000 A 
ATOM     15  C   UNL     1      87.762  68.031  87.573  0.00  0.00    +0.000 A 
ATOM     16  C   UNL     1      87.939  66.663  87.349  0.00  0.00    +0.000 A 
ENDBRANCH  10  11
ENDBRANCH   1  10
TORSDOF 3
ENDMDL
