MODEL 1
REMARK VINA RESULT:      -4.5      0.000      0.000
REMARK  Name = *****
REMARK  3 active torsions:
REMARK  status: ('A' for Active; 'I' for Inactive)
REMARK    1  A    between atoms: C_4  and  S_7
REMARK    2  A    between atoms: S_7  and  N_8
REMARK    3  A    between atoms: N_8  and  C_9
REMARK                            x       y       z     vdW  Elec       q    Type
REMARK                         _______ _______ _______ _____ _____    ______ ____
ROOT
ATOM      1  S   UNL     1      89.018  70.001  86.396  0.00  0.00    +0.000 S 
ATOM      2  O   UNL     1      89.849  70.963  85.700  0.00  0.00    +0.000 OA
ATOM      3  F   UNL     1      89.723  69.815  87.808  0.00  0.00    +0.000 F 
ENDROOT
BRANCH   1   7
ATOM      4  C   UNL     1      85.054  72.081  87.212  0.00  0.00    +0.000 A 
ATOM      5  C   UNL     1      85.843  71.645  88.280  0.00  0.00    +0.000 A 
ATOM      6  C   UNL     1      87.063  71.017  88.035  0.00  0.00    +0.000 A 
ATOM      7  C   UNL     1      87.482  70.833  86.716  0.00  0.00    +0.000 A 
ATOM      8  C   UNL     1      86.701  71.268  85.641  0.00  0.00    +0.000 A 
ATOM      9  C   UNL     1      85.482  71.893  85.896  0.00  0.00    +0.000 A 
ENDBRANCH   1   7
BRANCH   1  10
ATOM     10  N   UNL     1      88.690  68.577  85.924  0.00  0.00    +0.000 NA
BRANCH  10  11
ATOM     11  C   UNL     1      88.397  67.445  86.736  0.00  0.00    +0.000 A 
ATOM     12  C   UNL     1      87.343  67.355  87.649  0.00  0.00    +0.000 A 
ATOM     13  C   UNL     1      87.144  66.181  88.389  0.00  0.00    +0.000 A 
ATOM     14  C   UNL     1      88.001  65.097  88.217  0.00  0.00    +0.000 A 
ATOM     15  C   UNL     1      89.058  65.174  87.315  0.00  0.00    +0.000 A 
ATOM     16  C   UNL     1      89.250  66.348  86.580  0.00  0.00    +0.000 A 
ATOM     17 BR   UNL     1      87.728  63.517  89.215  0.00  0.00    +0.000 Br
ENDBRANCH  10  11
ENDBRANCH   1  10
TORSDOF 3
ENDMDL
