MODEL 1
REMARK VINA RESULT:      -4.1      0.000      0.000
REMARK  Name = *****
REMARK  4 active torsions:
REMARK  status: ('A' for Active; 'I' for Inactive)
REMARK    1  A    between atoms: C_1  and  C_2
REMARK    2  A    between atoms: C_5  and  S_8
REMARK    3  A    between atoms: S_8  and  C_9
REMARK    4  A    between atoms: C_9  and  N_11
REMARK                            x       y       z     vdW  Elec       q    Type
REMARK                         _______ _______ _______ _____ _____    ______ ____
ROOT
ATOM      1  S   UNL     1      86.971  67.380  86.770  0.00  0.00    +0.000 S 
ENDROOT
BRANCH   1   6
ATOM      2  C   UNL     1      88.623  72.021  90.365  0.00  0.00    +0.000 C 
ATOM      3  C   UNL     1      88.206  70.902  89.458  0.00  0.00    +0.000 A 
ATOM      4  C   UNL     1      87.101  70.105  89.778  0.00  0.00    +0.000 A 
ATOM      5  C   UNL     1      86.729  69.043  88.950  0.00  0.00    +0.000 A 
ATOM      6  C   UNL     1      87.460  68.759  87.792  0.00  0.00    +0.000 A 
ATOM      7  C   UNL     1      88.578  69.538  87.483  0.00  0.00    +0.000 A 
ATOM      8  C   UNL     1      88.950  70.600  88.312  0.00  0.00    +0.000 A 
ENDBRANCH   1   6
BRANCH   1   9
ATOM      9  C   UNL     1      88.170  66.164  87.248  0.00  0.00    +0.000 C 
ATOM     10  S   UNL     1      89.567  66.028  86.308  0.00  0.00    +0.000 S 
BRANCH   9  11
ATOM     11  N   UNL     1      87.860  65.371  88.380  0.00  0.00    +0.000 N 
ATOM     12  C   UNL     1      86.520  65.374  89.000  0.00  0.00    +0.000 C 
ATOM     13  C   UNL     1      86.554  65.048  90.491  0.00  0.00    +0.000 C 
ATOM     14  C   UNL     1      87.302  63.752  90.761  0.00  0.00    +0.000 C 
ATOM     15  C   UNL     1      88.700  63.836  90.170  0.00  0.00    +0.000 C 
ATOM     16  C   UNL     1      88.658  64.168  88.681  0.00  0.00    +0.000 C 
ENDBRANCH   9  11
ENDBRANCH   1   9
TORSDOF 3
ENDMDL
