MODEL 1
REMARK VINA RESULT:      -4.2      0.000      0.000
REMARK  Name = *****
REMARK  5 active torsions:
REMARK  status: ('A' for Active; 'I' for Inactive)
REMARK    1  A    between atoms: C_1  and  C_2
REMARK    2  A    between atoms: C_2  and  C_3
REMARK    3  A    between atoms: C_2  and  N_9
REMARK    4  A    between atoms: N_9  and  C_10
REMARK    5  A    between atoms: C_10  and  C_11
REMARK                            x       y       z     vdW  Elec       q    Type
REMARK                         _______ _______ _______ _____ _____    ______ ____
ROOT
ATOM      1  C   UNL     1     103.525 127.847  81.741  0.00  0.00    +0.000 C 
ATOM      2  C   UNL     1     102.725 126.856  82.589  0.00  0.00    +0.000 C 
ENDROOT
BRANCH   2   3
ATOM      3  C   UNL     1     101.305 127.357  82.786  0.00  0.00    +0.000 A 
ATOM      4  C   UNL     1     101.050 128.576  83.434  0.00  0.00    +0.000 A 
ATOM      5  C   UNL     1      99.741 129.020  83.627  0.00  0.00    +0.000 A 
ATOM      6  C   UNL     1      98.671 128.249  83.181  0.00  0.00    +0.000 A 
ATOM      7  C   UNL     1      98.908 127.034  82.541  0.00  0.00    +0.000 A 
ATOM      8  C   UNL     1     100.217 126.589  82.345  0.00  0.00    +0.000 A 
ENDBRANCH   2   3
BRANCH   2   9
ATOM      9  N   UNL     1     102.782 125.548  81.912  0.00  0.00    +0.000 NA
BRANCH   9  10
ATOM     10  C   UNL     1     103.258 125.603  80.717  0.00  0.00    +0.000 C 
BRANCH  10  11
ATOM     11  C   UNL     1     104.361 124.729  80.364  0.00  0.00    +0.000 A 
ATOM     12  C   UNL     1     105.407 125.136  79.556  0.00  0.00    +0.000 A 
ATOM     13  S   UNL     1     106.568 123.905  79.304  0.00  0.00    +0.000 S 
ATOM     14  C   UNL     1     105.693 122.806  80.276  0.00  0.00    +0.000 A 
ATOM     15  C   UNL     1     104.540 123.368  80.776  0.00  0.00    +0.000 A 
ENDBRANCH  10  11
ENDBRANCH   9  10
ENDBRANCH   2   9
TORSDOF 4
ENDMDL
