MODEL 1
REMARK VINA RESULT:      -4.4      0.000      0.000
REMARK  Name = *****
REMARK  4 active torsions:
REMARK  status: ('A' for Active; 'I' for Inactive)
REMARK    1  A    between atoms: C_1  and  C_2
REMARK    2  A    between atoms: C_2  and  C_11
REMARK    3  A    between atoms: N_3  and  C_4
REMARK    4  A    between atoms: C_4  and  C_5
REMARK                            x       y       z     vdW  Elec       q    Type
REMARK                         _______ _______ _______ _____ _____    ______ ____
ROOT
ATOM      1  C   UNL     1     103.791 124.564  83.006  0.00  0.00    +0.000 C 
ATOM      2  C   UNL     1     103.639 125.394  81.748  0.00  0.00    +0.000 C 
ATOM      3  N   UNL     1     103.145 126.585  81.727  0.00  0.00    +0.000 NA
ENDROOT
BRANCH   2   4
ATOM      4  C   UNL     1     104.127 124.760  80.447  0.00  0.00    +0.000 C 
ATOM      5  C   UNL     1     104.654 123.335  80.683  0.00  0.00    +0.000 C 
ATOM      6  C   UNL     1     106.008 123.257  79.981  0.00  0.00    +0.000 C 
ATOM      7  C   UNL     1     105.990 124.398  78.980  0.00  0.00    +0.000 C 
ATOM      8  C   UNL     1     105.265 125.498  79.738  0.00  0.00    +0.000 C 
ENDBRANCH   2   4
BRANCH   3   9
ATOM      9  C   UNL     1     102.685 127.190  82.979  0.00  0.00    +0.000 C 
BRANCH   9  10
ATOM     10  C   UNL     1     101.210 127.527  82.954  0.00  0.00    +0.000 A 
ATOM     11  C   UNL     1     100.291 126.619  82.405  0.00  0.00    +0.000 A 
ATOM     12  C   UNL     1      98.923 126.898  82.414  0.00  0.00    +0.000 A 
ATOM     13  C   UNL     1      98.455 128.082  82.980  0.00  0.00    +0.000 A 
ATOM     14  C   UNL     1      99.355 128.987  83.540  0.00  0.00    +0.000 A 
ATOM     15  C   UNL     1     100.723 128.708  83.532  0.00  0.00    +0.000 A 
ENDBRANCH   9  10
ENDBRANCH   3   9
TORSDOF 3
ENDMDL
