MODEL 1
REMARK VINA RESULT:      -4.5      0.000      0.000
REMARK  Name = *****
REMARK  3 active torsions:
REMARK  status: ('A' for Active; 'I' for Inactive)
REMARK    1  A    between atoms: C_1  and  C_2
REMARK    2  A    between atoms: C_5  and  C_8
REMARK    3  A    between atoms: C_9  and  C_10
REMARK                            x       y       z     vdW  Elec       q    Type
REMARK                         _______ _______ _______ _____ _____    ______ ____
ROOT
ATOM      1  C   UNL     1     103.031 125.235  82.346  0.00  0.00    +0.000 C 
ATOM      2  C   UNL     1     102.254 126.112  82.611  0.00  0.00    +0.000 C 
ENDROOT
BRANCH   1   7
ATOM      3  C   UNL     1     106.762 121.063  81.089  0.00  0.00    +0.000 C 
ATOM      4  C   UNL     1     105.764 122.136  81.411  0.00  0.00    +0.000 A 
ATOM      5  C   UNL     1     105.289 122.988  80.408  0.00  0.00    +0.000 A 
ATOM      6  C   UNL     1     104.383 124.008  80.715  0.00  0.00    +0.000 A 
ATOM      7  C   UNL     1     103.956 124.191  82.032  0.00  0.00    +0.000 A 
ATOM      8  C   UNL     1     104.436 123.355  83.039  0.00  0.00    +0.000 A 
ATOM      9  C   UNL     1     105.342 122.335  82.732  0.00  0.00    +0.000 A 
ENDBRANCH   1   7
BRANCH   2  10
ATOM     10  C   UNL     1     101.329 127.158  82.925  0.00  0.00    +0.000 A 
ATOM     11  C   UNL     1     101.779 128.322  83.555  0.00  0.00    +0.000 A 
ATOM     12  C   UNL     1     100.877 129.342  83.862  0.00  0.00    +0.000 A 
ATOM     13  C   UNL     1      99.533 129.189  83.537  0.00  0.00    +0.000 A 
ATOM     14  C   UNL     1      99.074 128.035  82.911  0.00  0.00    +0.000 A 
ATOM     15  C   UNL     1      99.975 127.014  82.603  0.00  0.00    +0.000 A 
ATOM     16  F   UNL     1      98.668 130.167  83.833  0.00  0.00    +0.000 F 
ENDBRANCH   2  10
TORSDOF 2
ENDMDL
