MODEL 1
REMARK VINA RESULT:      -4.7      0.000      0.000
REMARK  Name = *****
REMARK  5 active torsions:
REMARK  status: ('A' for Active; 'I' for Inactive)
REMARK    1  A    between atoms: C_1  and  C_2
REMARK    2  A    between atoms: C_5  and  C_8
REMARK    3  A    between atoms: C_8  and  O_9
REMARK    4  A    between atoms: O_9  and  C_10
REMARK    5  A    between atoms: C_13  and  C_16
REMARK                            x       y       z     vdW  Elec       q    Type
REMARK                         _______ _______ _______ _____ _____    ______ ____
ROOT
ATOM      1  O   UNL     1      88.632  70.120  86.882  0.00  0.00    +0.000 OA
ENDROOT
BRANCH   1   2
ATOM      2  C   UNL     1      88.766  68.760  86.904  0.00  0.00    +0.000 A 
ATOM      3  C   UNL     1      89.807  68.025  86.340  0.00  0.00    +0.000 A 
ATOM      4  C   UNL     1      89.816  66.628  86.441  0.00  0.00    +0.000 A 
ATOM      5  C   UNL     1      88.784  65.948  87.106  0.00  0.00    +0.000 A 
ATOM      6  C   UNL     1      87.741  66.690  87.671  0.00  0.00    +0.000 A 
ATOM      7  C   UNL     1      87.737  68.086  87.566  0.00  0.00    +0.000 A 
BRANCH   5   8
ATOM      8  C   UNL     1      88.837  64.452  87.189  0.00  0.00    +0.000 C 
ATOM      9  O   UNL     1      89.121  63.840  86.160  0.00  0.00    +0.000 OA
ATOM     10 CL   UNL     1      88.503  63.648  88.710  0.00  0.00    +0.000 Cl
ENDBRANCH   5   8
ENDBRANCH   1   2
BRANCH   1  11
ATOM     11  C   UNL     1      88.095  70.705  85.694  0.00  0.00    +0.000 C 
BRANCH  11  16
ATOM     12  C   UNL     1      82.931  73.140  86.877  0.00  0.00    +0.000 C 
ATOM     13  C   UNL     1      84.242  72.481  86.571  0.00  0.00    +0.000 A 
ATOM     14  C   UNL     1      85.069  72.034  87.606  0.00  0.00    +0.000 A 
ATOM     15  C   UNL     1      86.306  71.450  87.323  0.00  0.00    +0.000 A 
ATOM     16  C   UNL     1      86.741  71.302  86.000  0.00  0.00    +0.000 A 
ATOM     17  C   UNL     1      85.921  71.774  84.965  0.00  0.00    +0.000 A 
ATOM     18  C   UNL     1      84.685  72.359  85.249  0.00  0.00    +0.000 A 
ENDBRANCH  11  16
ENDBRANCH   1  11
TORSDOF 4
ENDMDL
