MODEL 1
REMARK VINA RESULT:      -4.7      0.000      0.000
REMARK  Name = *****
REMARK  4 active torsions:
REMARK  status: ('A' for Active; 'I' for Inactive)
REMARK    1  A    between atoms: C_1  and  C_2
REMARK    2  A    between atoms: C_3  and  C_16
REMARK    3  A    between atoms: C_5  and  N_8
REMARK    4  A    between atoms: C_9  and  C_10
REMARK                            x       y       z     vdW  Elec       q    Type
REMARK                         _______ _______ _______ _____ _____    ______ ____
ROOT
ATOM      1  C   UNL     1     106.983 122.334  80.523  0.00  0.00    +0.000 C 
ATOM      2  C   UNL     1     105.848 123.309  80.668  0.00  0.00    +0.000 A 
ATOM      3  C   UNL     1     105.567 124.265  79.669  0.00  0.00    +0.000 A 
ATOM      4  C   UNL     1     104.490 125.150  79.851  0.00  0.00    +0.000 A 
ATOM      5  C   UNL     1     103.700 125.102  81.001  0.00  0.00    +0.000 A 
ATOM      6  C   UNL     1     103.970 124.140  81.972  0.00  0.00    +0.000 A 
ATOM      7  C   UNL     1     105.036 123.255  81.811  0.00  0.00    +0.000 A 
ATOM      8  C   UNL     1     106.391 124.357  78.416  0.00  0.00    +0.000 C 
ENDROOT
BRANCH   5   9
ATOM      9  N   UNL     1     102.625 125.987  81.156  0.00  0.00    +0.000 NA
ATOM     10  C   UNL     1     102.187 126.134  82.367  0.00  0.00    +0.000 C 
BRANCH  10  11
ATOM     11  C   UNL     1     101.061 127.031  82.689  0.00  0.00    +0.000 A 
ATOM     12  C   UNL     1      99.749 126.682  82.354  0.00  0.00    +0.000 A 
ATOM     13  C   UNL     1      98.700 127.546  82.668  0.00  0.00    +0.000 A 
ATOM     14  C   UNL     1      98.962 128.755  83.316  0.00  0.00    +0.000 A 
ATOM     15  C   UNL     1     100.272 129.101  83.651  0.00  0.00    +0.000 A 
ATOM     16  C   UNL     1     101.325 128.240  83.338  0.00  0.00    +0.000 A 
ENDBRANCH  10  11
ENDBRANCH   5   9
TORSDOF 2
ENDMDL
