MODEL 1
REMARK VINA RESULT:      -4.6      0.000      0.000
REMARK  Name = *****
REMARK  4 active torsions:
REMARK  status: ('A' for Active; 'I' for Inactive)
REMARK    1  A    between atoms: C_1  and  C_2
REMARK    2  A    between atoms: C_7  and  N_8
REMARK    3  A    between atoms: C_9  and  C_10
REMARK    4  A    between atoms: C_9  and  C_11
REMARK                            x       y       z     vdW  Elec       q    Type
REMARK                         _______ _______ _______ _____ _____    ______ ____
ROOT
ATOM      1  N   UNL     1     102.795 127.431  82.840  0.00  0.00    +0.000 NA
ATOM      2  C   UNL     1     101.511 127.614  82.960  0.00  0.00    +0.000 C 
ATOM      3  C   UNL     1     100.463 126.620  82.492  0.00  0.00    +0.000 C 
ENDROOT
BRANCH   1  10
ATOM      4  C   UNL     1     103.544 127.477  80.028  0.00  0.00    +0.000 C 
ATOM      5  C   UNL     1     103.674 126.249  80.883  0.00  0.00    +0.000 A 
ATOM      6  C   UNL     1     104.167 125.059  80.325  0.00  0.00    +0.000 A 
ATOM      7  C   UNL     1     104.309 123.912  81.108  0.00  0.00    +0.000 A 
ATOM      8  C   UNL     1     103.964 123.942  82.456  0.00  0.00    +0.000 A 
ATOM      9  C   UNL     1     103.464 125.117  83.017  0.00  0.00    +0.000 A 
ATOM     10  C   UNL     1     103.290 126.267  82.236  0.00  0.00    +0.000 A 
ENDBRANCH   1  10
BRANCH   2  11
ATOM     11  C   UNL     1     101.035 128.889  83.582  0.00  0.00    +0.000 A 
ATOM     12  C   UNL     1      99.707 129.314  83.457  0.00  0.00    +0.000 A 
ATOM     13  C   UNL     1      99.298 130.514  84.045  0.00  0.00    +0.000 A 
ATOM     14  C   UNL     1     100.211 131.295  84.752  0.00  0.00    +0.000 A 
ATOM     15  C   UNL     1     101.539 130.883  84.867  0.00  0.00    +0.000 A 
ATOM     16  C   UNL     1     101.952 129.686  84.280  0.00  0.00    +0.000 A 
ENDBRANCH   2  11
TORSDOF 2
ENDMDL
