MODEL 1
REMARK VINA RESULT:      -4.4      0.000      0.000
REMARK  Name = *****
REMARK  5 active torsions:
REMARK  status: ('A' for Active; 'I' for Inactive)
REMARK    1  A    between atoms: C_1  and  C_2
REMARK    2  A    between atoms: C_2  and  O_3
REMARK    3  A    between atoms: O_3  and  C_4
REMARK    4  A    between atoms: C_10  and  C_11
REMARK    5  A    between atoms: C_12  and  C_13
REMARK                            x       y       z     vdW  Elec       q    Type
REMARK                         _______ _______ _______ _____ _____    ______ ____
ROOT
ATOM      1  C   UNL     1      88.131  70.306  86.625  0.00  0.00    +0.000 C 
ATOM      2  C   UNL     1      87.474  69.981  85.304  0.00  0.00    +0.000 C 
ATOM      3  C   UNL     1      87.717  71.108  84.296  0.00  0.00    +0.000 C 
ATOM      4  C   UNL     1      89.186  71.552  84.190  0.00  0.00    +0.000 C 
ATOM      5  C   UNL     1      90.136  70.794  85.119  0.00  0.00    +0.000 C 
ATOM      6  C   UNL     1      89.571  70.753  86.508  0.00  0.00    +0.000 C 
ATOM      7  C   UNL     1      89.242  69.487  87.259  0.00  0.00    +0.000 C 
ENDROOT
BRANCH   7   8
ATOM      8  C   UNL     1      89.587  68.196  86.741  0.00  0.00    +0.000 C 
ATOM      9  C   UNL     1      89.874  67.112  86.312  0.00  0.00    +0.000 C 
BRANCH   9  10
ATOM     10  C   UNL     1      90.213  65.823  85.795  0.00  0.00    +0.000 A 
ATOM     11  C   UNL     1      89.261  64.800  85.789  0.00  0.00    +0.000 A 
ATOM     12  C   UNL     1      89.590  63.540  85.284  0.00  0.00    +0.000 A 
ATOM     13  C   UNL     1      90.872  63.303  84.785  0.00  0.00    +0.000 A 
ATOM     14  C   UNL     1      91.823  64.323  84.790  0.00  0.00    +0.000 A 
ATOM     15  C   UNL     1      91.494  65.583  85.294  0.00  0.00    +0.000 A 
ENDBRANCH   9  10
ENDBRANCH   7   8
BRANCH   1  16
ATOM     16  O   UNL     1      87.335  71.137  87.504  0.00  0.00    +0.000 OA
BRANCH  16  18
ATOM     17  C   UNL     1      85.142  72.045  87.270  0.00  0.00    +0.000 C 
ATOM     18  C   UNL     1      85.951  70.790  87.527  0.00  0.00    +0.000 C 
ENDBRANCH  16  18
ENDBRANCH   1  16
TORSDOF 4
ENDMDL
