REMARK  Name = *****
REMARK  3 active torsions:
REMARK  status: ('A' for Active; 'I' for Inactive)
REMARK    1  A    between atoms: C_4  and  C_7
REMARK    2  A    between atoms: C_7  and  C_16
REMARK    3  A    between atoms: C_8  and  C_9
REMARK                            x       y       z     vdW  Elec       q    Type
REMARK                         _______ _______ _______ _____ _____    ______ ____
ROOT
ATOM      1  C   UNL     1      -2.834   0.432  -0.059  0.00  0.00    +0.000 C 
ATOM      2  C   UNL     1      -3.229   1.720  -0.145  0.00  0.00    +0.000 C 
ENDROOT
BRANCH   2   3
ATOM      3  C   UNL     1      -2.369   2.911  -0.171  0.00  0.00    +0.000 A 
ATOM      4  C   UNL     1      -1.401   3.094  -1.168  0.00  0.00    +0.000 A 
ATOM      5  C   UNL     1      -0.607   4.243  -1.176  0.00  0.00    +0.000 A 
ATOM      6  C   UNL     1      -0.790   5.210  -0.194  0.00  0.00    +0.000 A 
ATOM      7  C   UNL     1      -1.756   5.052   0.793  0.00  0.00    +0.000 A 
ATOM      8  C   UNL     1      -2.550   3.904   0.802  0.00  0.00    +0.000 A 
ATOM      9  F   UNL     1      -0.029   6.311  -0.202  0.00  0.00    +0.000 F 
ENDBRANCH   2   3
BRANCH   1  13
ATOM     10  C   UNL     1       1.263  -0.776   0.262  0.00  0.00    +0.000 A 
ATOM     11  C   UNL     1       0.688   0.001   1.265  0.00  0.00    +0.000 A 
ATOM     12  C   UNL     1      -0.648   0.395   1.165  0.00  0.00    +0.000 A 
ATOM     13  C   UNL     1      -1.419   0.021   0.055  0.00  0.00    +0.000 A 
ATOM     14  C   UNL     1      -0.831  -0.768  -0.945  0.00  0.00    +0.000 A 
ATOM     15  C   UNL     1       0.505  -1.162  -0.842  0.00  0.00    +0.000 A 
ENDBRANCH   1  13
BRANCH   1  16
ATOM     16  C   UNL     1      -3.833  -0.594  -0.077  0.00  0.00    +0.000 C 
ATOM     17  N   UNL     1      -4.656  -1.412  -0.102  0.00  0.00    +0.000 NA
ENDBRANCH   1  16
TORSDOF 3
