MODEL 1
REMARK VINA RESULT:      -5.0      0.000      0.000
REMARK  Name = *****
REMARK  1 active torsions:
REMARK  status: ('A' for Active; 'I' for Inactive)
REMARK    1  A    between atoms: C_1  and  N_2
REMARK                            x       y       z     vdW  Elec       q    Type
REMARK                         _______ _______ _______ _____ _____    ______ ____
ROOT
ATOM      1  C   UNL     1      85.968  70.194  85.653  0.00  0.00    +0.000 C 
ATOM      2  N   UNL     1      87.371  69.828  85.784  0.00  0.00    +0.000 N 
ATOM      3  C   UNL     1      88.344  70.677  85.095  0.00  0.00    +0.000 A 
ATOM      4  C   UNL     1      89.681  70.232  84.883  0.00  0.00    +0.000 A 
ATOM      5  C   UNL     1      90.619  71.017  84.207  0.00  0.00    +0.000 A 
ATOM      6  C   UNL     1      90.241  72.261  83.710  0.00  0.00    +0.000 A 
ATOM      7  C   UNL     1      88.932  72.695  83.883  0.00  0.00    +0.000 A 
ATOM      8  C   UNL     1      87.985  71.920  84.555  0.00  0.00    +0.000 A 
ATOM      9  F   UNL     1      88.568  73.887  83.391  0.00  0.00    +0.000 F 
ATOM     10  C   UNL     1      90.036  68.922  85.315  0.00  0.00    +0.000 C 
ATOM     11  C   UNL     1      89.781  67.913  85.907  0.00  0.00    +0.000 C 
ATOM     12  C   UNL     1      88.884  67.209  86.753  0.00  0.00    +0.000 A 
ATOM     13  C   UNL     1      89.027  65.849  87.017  0.00  0.00    +0.000 A 
ATOM     14  C   UNL     1      88.126  65.221  87.882  0.00  0.00    +0.000 A 
ATOM     15  C   UNL     1      87.098  65.952  88.486  0.00  0.00    +0.000 A 
ATOM     16  C   UNL     1      86.954  67.315  88.222  0.00  0.00    +0.000 A 
ATOM     17  C   UNL     1      87.833  67.944  87.336  0.00  0.00    +0.000 A 
ATOM     18  C   UNL     1      87.686  69.417  87.102  0.00  0.00    +0.000 C 
ATOM     19  O   UNL     1      87.669  70.178  88.067  0.00  0.00    +0.000 OA
ENDROOT
TORSDOF 0
ENDMDL
