MODEL 1
REMARK VINA RESULT:      -4.1      0.000      0.000
REMARK  Name = *****
REMARK  3 active torsions:
REMARK  status: ('A' for Active; 'I' for Inactive)
REMARK    1  A    between atoms: C_4  and  S_7
REMARK    2  A    between atoms: S_7  and  C_8
REMARK    3  A    between atoms: C_8  and  C_9
REMARK                            x       y       z     vdW  Elec       q    Type
REMARK                         _______ _______ _______ _____ _____    ______ ____
ROOT
ATOM      1  S   UNL     1     101.717 126.288  83.634  0.00  0.00    +0.000 S 
ENDROOT
BRANCH   1   5
ATOM      2  C   UNL     1     104.691 126.003  80.084  0.00  0.00    +0.000 C 
ATOM      3  C   UNL     1     104.082 124.699  80.591  0.00  0.00    +0.000 C 
ATOM      4  C   UNL     1     103.436 124.872  81.966  0.00  0.00    +0.000 C 
ATOM      5  C   UNL     1     102.403 126.004  81.959  0.00  0.00    +0.000 C 
ATOM      6  C   UNL     1     103.027 127.314  81.459  0.00  0.00    +0.000 C 
ATOM      7  C   UNL     1     103.668 127.135  80.083  0.00  0.00    +0.000 C 
ENDBRANCH   1   5
BRANCH   1   8
ATOM      8  C   UNL     1     100.236 127.254  83.200  0.00  0.00    +0.000 C 
BRANCH   8   9
ATOM      9  C   UNL     1     100.365 128.690  83.640  0.00  0.00    +0.000 A 
ATOM     10  C   UNL     1     101.535 129.142  84.267  0.00  0.00    +0.000 A 
ATOM     11  C   UNL     1     101.651 130.471  84.680  0.00  0.00    +0.000 A 
ATOM     12  C   UNL     1     100.597 131.359  84.476  0.00  0.00    +0.000 A 
ATOM     13  C   UNL     1      99.424 130.919  83.866  0.00  0.00    +0.000 A 
ATOM     14  C   UNL     1      99.306 129.591  83.453  0.00  0.00    +0.000 A 
ENDBRANCH   8   9
ENDBRANCH   1   8
TORSDOF 3
ENDMDL
