MODEL 1
REMARK VINA RESULT:      -5.0      0.000      0.000
REMARK  Name = *****
REMARK  7 active torsions:
REMARK  status: ('A' for Active; 'I' for Inactive)
REMARK    1  A    between atoms: C_1  and  C_2
REMARK    2  A    between atoms: C_4  and  C_8
REMARK    3  A    between atoms: C_9  and  C_10
REMARK    4  A    between atoms: C_9  and  C_12
REMARK    5  A    between atoms: C_10  and  O_11
REMARK    6  A    between atoms: C_13  and  C_19
REMARK    7  A    between atoms: C_16  and  C_18
REMARK                            x       y       z     vdW  Elec       q    Type
REMARK                         _______ _______ _______ _____ _____    ______ ____
ROOT
ATOM      1  C   UNL     1     102.108 126.208  82.795  0.00  0.00    +0.000 C 
ATOM      2  C   UNL     1     103.161 126.407  81.977  0.00  0.00    +0.000 C 
ENDROOT
BRANCH   2   3
ATOM      3  C   UNL     1     104.267 125.425  82.006  0.00  0.00    +0.000 A 
ATOM      4  C   UNL     1     105.458 125.642  82.729  0.00  0.00    +0.000 A 
ATOM      5  C   UNL     1     106.470 124.668  82.683  0.00  0.00    +0.000 A 
ATOM      6  C   UNL     1     106.299 123.490  81.952  0.00  0.00    +0.000 A 
ATOM      7  C   UNL     1     105.121 123.266  81.237  0.00  0.00    +0.000 A 
ATOM      8  C   UNL     1     104.109 124.232  81.279  0.00  0.00    +0.000 A 
ATOM      9  C   UNL     1     104.916 121.985  80.486  0.00  0.00    +0.000 C 
ATOM     10  C   UNL     1     105.692 126.891  83.535  0.00  0.00    +0.000 C 
ENDBRANCH   2   3
BRANCH   1  14
ATOM     11  C   UNL     1     100.171 130.545  84.328  0.00  0.00    +0.000 C 
ATOM     12  C   UNL     1     100.019 129.230  83.624  0.00  0.00    +0.000 A 
ATOM     13  C   UNL     1     101.103 128.347  83.528  0.00  0.00    +0.000 A 
ATOM     14  C   UNL     1     100.956 127.105  82.899  0.00  0.00    +0.000 A 
ATOM     15  C   UNL     1      99.711 126.733  82.384  0.00  0.00    +0.000 A 
ATOM     16  C   UNL     1      98.624 127.600  82.490  0.00  0.00    +0.000 A 
ATOM     17  C   UNL     1      98.775 128.841  83.110  0.00  0.00    +0.000 A 
ENDBRANCH   1  14
BRANCH   2  18
ATOM     18  C   UNL     1     103.337 127.567  81.032  0.00  0.00    +0.000 C 
BRANCH  18  19
ATOM     19  O   UNL     1     103.211 127.116  79.688  0.00  0.00    +0.000 OA
ATOM     20  H   UNL     1     103.420 126.169  79.644  0.00  0.00    +0.000 HD
ENDBRANCH  18  19
ENDBRANCH   2  18
TORSDOF 4
ENDMDL
