REMARK  Name = *****
REMARK  6 active torsions:
REMARK  status: ('A' for Active; 'I' for Inactive)
REMARK    1  A    between atoms: C_1  and  C_2
REMARK    2  A    between atoms: C_4  and  O_9
REMARK    3  A    between atoms: C_5  and  C_8
REMARK    4  A    between atoms: O_9  and  C_10
REMARK    5  A    between atoms: C_10  and  C_12
REMARK    6  A    between atoms: C_12  and  C_13
REMARK                            x       y       z     vdW  Elec       q    Type
REMARK                         _______ _______ _______ _____ _____    ______ ____
ROOT
ATOM      1  O   UNL     1      -0.592   2.990  -0.163  0.00  0.00    +0.000 OA
ENDROOT
BRANCH   1   5
ATOM      2  C   UNL     1       2.587  -0.750  -0.531  0.00  0.00    +0.000 C 
ATOM      3  C   UNL     1       1.247  -0.205  -0.134  0.00  0.00    +0.000 A 
ATOM      4  C   UNL     1       0.954   1.151  -0.308  0.00  0.00    +0.000 A 
ATOM      5  C   UNL     1      -0.304   1.639   0.054  0.00  0.00    +0.000 A 
ATOM      6  C   UNL     1      -1.309   0.797   0.544  0.00  0.00    +0.000 A 
ATOM      7  C   UNL     1      -1.010  -0.560   0.705  0.00  0.00    +0.000 A 
ATOM      8  C   UNL     1       0.253  -1.056   0.365  0.00  0.00    +0.000 A 
ATOM      9  C   UNL     1      -2.662   1.331   0.913  0.00  0.00    +0.000 C 
ENDBRANCH   1   5
BRANCH   1  10
ATOM     10  C   UNL     1      -0.142   3.824   0.856  0.00  0.00    +0.000 C 
ATOM     11  O   UNL     1       0.527   3.503   1.831  0.00  0.00    +0.000 OA
BRANCH  10  12
ATOM     12  C   UNL     1      -0.619   5.232   0.587  0.00  0.00    +0.000 C 
BRANCH  12  13
ATOM     13  C   UNL     1      -2.085   5.408   0.889  0.00  0.00    +0.000 A 
ATOM     14  C   UNL     1      -2.523   5.528   2.215  0.00  0.00    +0.000 A 
ATOM     15  C   UNL     1      -3.882   5.661   2.501  0.00  0.00    +0.000 A 
ATOM     16  C   UNL     1      -4.816   5.671   1.467  0.00  0.00    +0.000 A 
ATOM     17  C   UNL     1      -4.391   5.547   0.145  0.00  0.00    +0.000 A 
ATOM     18  C   UNL     1      -3.032   5.414  -0.144  0.00  0.00    +0.000 A 
ENDBRANCH  12  13
ENDBRANCH  10  12
ENDBRANCH   1  10
TORSDOF 4
