MODEL 1
REMARK VINA RESULT:      -5.0      0.000      0.000
REMARK  Name = *****
REMARK  1 active torsions:
REMARK  status: ('A' for Active; 'I' for Inactive)
REMARK    1  A    between atoms: C_1  and  N_2
REMARK                            x       y       z     vdW  Elec       q    Type
REMARK                         _______ _______ _______ _____ _____    ______ ____
ROOT
ATOM      1  C   UNL     1      92.176  99.345  86.114  0.00  0.00    +0.000 C 
ATOM      2  N   UNL     1      93.415  98.736  85.656  0.00  0.00    +0.000 N 
ATOM      3  C   UNL     1      94.636  99.530  85.808  0.00  0.00    +0.000 A 
ATOM      4  C   UNL     1      94.594 100.893  86.138  0.00  0.00    +0.000 A 
ATOM      5  C   UNL     1      95.772 101.632  86.305  0.00  0.00    +0.000 A 
ATOM      6  C   UNL     1      97.017 101.022  86.165  0.00  0.00    +0.000 A 
ATOM      7  C   UNL     1      97.094  99.664  85.869  0.00  0.00    +0.000 A 
ATOM      8  C   UNL     1      95.920  98.925  85.701  0.00  0.00    +0.000 A 
ATOM      9  C   UNL     1      95.995  97.519  85.487  0.00  0.00    +0.000 C 
ATOM     10  C   UNL     1      95.472  96.472  85.245  0.00  0.00    +0.000 C 
ATOM     11  C   UNL     1      94.287  95.771  84.896  0.00  0.00    +0.000 A 
ATOM     12  C   UNL     1      93.170  96.543  84.511  0.00  0.00    +0.000 A 
ATOM     13  C   UNL     1      93.237  98.039  84.436  0.00  0.00    +0.000 C 
ATOM     14  O   UNL     1      92.944  98.592  83.378  0.00  0.00    +0.000 OA
ATOM     15  C   UNL     1      91.992  95.906  84.105  0.00  0.00    +0.000 A 
ATOM     16  C   UNL     1      91.920  94.512  84.128  0.00  0.00    +0.000 A 
ATOM     17  C   UNL     1      93.026  93.767  84.538  0.00  0.00    +0.000 A 
ATOM     18  C   UNL     1      94.215  94.381  84.919  0.00  0.00    +0.000 A 
ATOM     19  F   UNL     1      92.945  92.430  84.555  0.00  0.00    +0.000 F 
ENDROOT
TORSDOF 0
ENDMDL
