MODEL 1
REMARK VINA RESULT:      -5.3      0.000      0.000
REMARK  Name = *****
REMARK  5 active torsions:
REMARK  status: ('A' for Active; 'I' for Inactive)
REMARK    1  A    between atoms: C_1  and  C_2
REMARK    2  A    between atoms: C_5  and  C_8
REMARK    3  A    between atoms: C_8  and  C_17
REMARK    4  A    between atoms: C_9  and  C_10
REMARK    5  A    between atoms: C_17  and  O_18
REMARK                            x       y       z     vdW  Elec       q    Type
REMARK                         _______ _______ _______ _____ _____    ______ ____
ROOT
ATOM      1  C   UNL     1     100.239 127.647  83.189  0.00  0.00    +0.000 C 
ATOM      2  C   UNL     1     101.583 127.550  83.235  0.00  0.00    +0.000 C 
ENDROOT
BRANCH   1   7
ATOM      3  C   UNL     1      97.707 131.609  86.579  0.00  0.00    +0.000 C 
ATOM      4  C   UNL     1      98.340 130.581  85.688  0.00  0.00    +0.000 A 
ATOM      5  C   UNL     1      99.128 130.975  84.602  0.00  0.00    +0.000 A 
ATOM      6  C   UNL     1      99.747 130.019  83.791  0.00  0.00    +0.000 A 
ATOM      7  C   UNL     1      99.593 128.653  84.058  0.00  0.00    +0.000 A 
ATOM      8  C   UNL     1      98.819 128.260  85.157  0.00  0.00    +0.000 A 
ATOM      9  C   UNL     1      98.202 129.217  85.967  0.00  0.00    +0.000 A 
ENDBRANCH   1   7
BRANCH   2  10
ATOM     10  C   UNL     1     102.403 126.626  82.444  0.00  0.00    +0.000 A 
ATOM     11  C   UNL     1     102.812 126.947  81.143  0.00  0.00    +0.000 A 
ATOM     12  C   UNL     1     103.615 126.063  80.417  0.00  0.00    +0.000 A 
ATOM     13  C   UNL     1     104.018 124.861  80.995  0.00  0.00    +0.000 A 
ATOM     14  C   UNL     1     103.630 124.537  82.293  0.00  0.00    +0.000 A 
ATOM     15  C   UNL     1     102.826 125.421  83.018  0.00  0.00    +0.000 A 
ATOM     16 CL   UNL     1     105.006 123.772  80.102  0.00  0.00    +0.000 Cl
ENDBRANCH   2  10
BRANCH   1  17
ATOM     17  C   UNL     1      99.315 126.777  82.377  0.00  0.00    +0.000 C 
BRANCH  17  18
ATOM     18  O   UNL     1      98.203 127.547  81.930  0.00  0.00    +0.000 OA
ATOM     19  H   UNL     1      97.510 127.537  82.608  0.00  0.00    +0.000 HD
ENDBRANCH  17  18
ENDBRANCH   1  17
TORSDOF 4
ENDMDL
