REMARK  Name = *****
REMARK  2 active torsions:
REMARK  status: ('A' for Active; 'I' for Inactive)
REMARK    1  A    between atoms: C_1  and  C_2
REMARK    2  A    between atoms: C_3  and  C_7
REMARK                            x       y       z     vdW  Elec       q    Type
REMARK                         _______ _______ _______ _____ _____    ______ ____
ROOT
ATOM      1  C   UNL     1       0.428  -2.504   0.062  0.00  0.00    +0.000 C 
ATOM      2  C   UNL     1       1.273  -3.083   0.929  0.00  0.00    +0.000 C 
ATOM      3  C   UNL     1       2.107  -2.416   2.004  0.00  0.00    +0.000 C 
ATOM      4  C   UNL     1       3.150  -3.452   2.446  0.00  0.00    +0.000 C 
ATOM      5  C   UNL     1       2.617  -4.732   1.885  0.00  0.00    +0.000 A 
ATOM      6  C   UNL     1       3.098  -6.009   2.136  0.00  0.00    +0.000 A 
ATOM      7  C   UNL     1       2.497  -7.088   1.488  0.00  0.00    +0.000 A 
ATOM      8  C   UNL     1       1.435  -6.879   0.598  0.00  0.00    +0.000 A 
ATOM      9  C   UNL     1       0.963  -5.588   0.345  0.00  0.00    +0.000 A 
ATOM     10  C   UNL     1       1.563  -4.517   0.993  0.00  0.00    +0.000 A 
ENDROOT
BRANCH   1  13
ATOM     11  C   UNL     1       2.246  -0.284  -1.261  0.00  0.00    +0.000 C 
ATOM     12  C   UNL     1       0.967  -0.084  -0.513  0.00  0.00    +0.000 A 
ATOM     13  C   UNL     1       0.206  -1.099   0.055  0.00  0.00    +0.000 A 
ATOM     14  S   UNL     1      -1.217  -0.484   0.799  0.00  0.00    +0.000 S 
ATOM     15  C   UNL     1      -0.809   1.126   0.412  0.00  0.00    +0.000 A 
ATOM     16  C   UNL     1       0.373   1.202  -0.286  0.00  0.00    +0.000 A 
ENDBRANCH   1  13
TORSDOF 1
