REMARK  Name = *****
REMARK  4 active torsions:
REMARK  status: ('A' for Active; 'I' for Inactive)
REMARK    1  A    between atoms: C_1  and  C_2
REMARK    2  A    between atoms: C_5  and  N_8
REMARK    3  A    between atoms: C_9  and  O_10
REMARK    4  A    between atoms: O_10  and  C_11
REMARK                            x       y       z     vdW  Elec       q    Type
REMARK                         _______ _______ _______ _____ _____    ______ ____
ROOT
ATOM      1  O   UNL     1      -5.265   1.273   0.385  0.00  0.00    +0.000 OA
ENDROOT
BRANCH   1   2
ATOM      2  C   UNL     1      -5.859   2.349  -0.281  0.00  0.00    +0.000 A 
ATOM      3  C   UNL     1      -6.880   2.091  -1.183  0.00  0.00    +0.000 A 
ATOM      4  C   UNL     1      -7.502   3.171  -1.791  0.00  0.00    +0.000 A 
ATOM      5  N   UNL     1      -7.180   4.464  -1.551  0.00  0.00    +0.000 NA
ATOM      6  C   UNL     1      -6.195   4.675  -0.649  0.00  0.00    +0.000 A 
ATOM      7  C   UNL     1      -5.515   3.662   0.008  0.00  0.00    +0.000 A 
ATOM      8  F   UNL     1      -4.544   3.940   0.889  0.00  0.00    +0.000 F 
ATOM      9  F   UNL     1      -5.863   5.949  -0.392  0.00  0.00    +0.000 F 
ATOM     10  F   UNL     1      -8.481   2.939  -2.676  0.00  0.00    +0.000 F 
ATOM     11  F   UNL     1      -7.246   0.835  -1.468  0.00  0.00    +0.000 F 
ENDBRANCH   1   2
BRANCH   1  13
ATOM     12  N   UNL     1      -3.255   0.215   0.763  0.00  0.00    +0.000 NA
ATOM     13  C   UNL     1      -3.920   1.130   0.150  0.00  0.00    +0.000 C 
BRANCH  12  18
ATOM     14  C   UNL     1       2.313  -0.076  -0.488  0.00  0.00    +0.000 C 
ATOM     15  C   UNL     1       0.847   0.023  -0.182  0.00  0.00    +0.000 A 
ATOM     16  C   UNL     1       0.382   0.944   0.764  0.00  0.00    +0.000 A 
ATOM     17  C   UNL     1      -0.978   1.009   1.077  0.00  0.00    +0.000 A 
ATOM     18  C   UNL     1      -1.891   0.158   0.450  0.00  0.00    +0.000 A 
ATOM     19  C   UNL     1      -1.424  -0.783  -0.469  0.00  0.00    +0.000 A 
ATOM     20  C   UNL     1      -0.064  -0.852  -0.784  0.00  0.00    +0.000 A 
ENDBRANCH  12  18
ENDBRANCH   1  13
TORSDOF 3
