MODEL 1
REMARK VINA RESULT:      -4.8      0.000      0.000
REMARK  Name = *****
REMARK  2 active torsions:
REMARK  status: ('A' for Active; 'I' for Inactive)
REMARK    1  A    between atoms: C_4  and  C_7
REMARK    2  A    between atoms: N_9  and  C_10
REMARK                            x       y       z     vdW  Elec       q    Type
REMARK                         _______ _______ _______ _____ _____    ______ ____
ROOT
ATOM      1  C   UNL     1     103.068 125.201  81.995  0.00  0.00    +0.000 C 
ATOM      2  O   UNL     1     103.197 124.833  83.157  0.00  0.00    +0.000 OA
ATOM      3  N   UNL     1     102.208 126.190  81.552  0.00  0.00    +0.000 N 
ATOM      4  H   UNL     1     102.205 126.355  80.582  0.00  0.00    +0.000 HD
ENDROOT
BRANCH   3   5
ATOM      5  C   UNL     1     101.329 126.995  82.318  0.00  0.00    +0.000 A 
ATOM      6  C   UNL     1     101.864 128.121  82.978  0.00  0.00    +0.000 A 
ATOM      7  C   UNL     1     101.056 128.956  83.752  0.00  0.00    +0.000 A 
ATOM      8  C   UNL     1      99.696 128.677  83.880  0.00  0.00    +0.000 A 
ATOM      9  C   UNL     1      99.158 127.566  83.234  0.00  0.00    +0.000 A 
ATOM     10  C   UNL     1      99.963 126.728  82.458  0.00  0.00    +0.000 A 
ATOM     11 CL   UNL     1      97.478 127.225  83.400  0.00  0.00    +0.000 Cl
ATOM     12 CL   UNL     1     103.547 128.509  82.851  0.00  0.00    +0.000 Cl
ENDBRANCH   3   5
BRANCH   1  16
ATOM     13  C   UNL     1     106.446 123.748  79.624  0.00  0.00    +0.000 C 
ATOM     14  C   UNL     1     105.477 122.723  80.205  0.00  0.00    +0.000 C 
ATOM     15  C   UNL     1     104.629 123.326  81.320  0.00  0.00    +0.000 C 
ATOM     16  C   UNL     1     103.878 124.580  80.850  0.00  0.00    +0.000 C 
ATOM     17  C   UNL     1     104.856 125.607  80.261  0.00  0.00    +0.000 C 
ATOM     18  C   UNL     1     105.717 125.003  79.155  0.00  0.00    +0.000 C 
ENDBRANCH   1  16
TORSDOF 2
ENDMDL
