MODEL 1
REMARK VINA RESULT:      -4.4      0.000      0.000
REMARK  Name = *****
REMARK  4 active torsions:
REMARK  status: ('A' for Active; 'I' for Inactive)
REMARK    1  A    between atoms: C_1  and  C_2
REMARK    2  A    between atoms: C_6  and  O_7
REMARK    3  A    between atoms: O_7  and  C_8
REMARK    4  A    between atoms: C_8  and  C_10
REMARK                            x       y       z     vdW  Elec       q    Type
REMARK                         _______ _______ _______ _____ _____    ______ ____
ROOT
ATOM      1  C   UNL     1     101.917 125.873  82.864  0.00  0.00    +0.000 C 
ATOM      2  O   UNL     1     102.335 125.234  83.816  0.00  0.00    +0.000 OA
ENDROOT
BRANCH   1   3
ATOM      3  C   UNL     1     100.911 126.963  82.982  0.00  0.00    +0.000 A 
ATOM      4  C   UNL     1     101.308 128.166  83.583  0.00  0.00    +0.000 A 
ATOM      5  C   UNL     1     100.402 129.220  83.719  0.00  0.00    +0.000 A 
ATOM      6  C   UNL     1      99.095 129.078  83.254  0.00  0.00    +0.000 A 
ATOM      7  C   UNL     1      98.691 127.885  82.654  0.00  0.00    +0.000 A 
ATOM      8  C   UNL     1      99.596 126.829  82.517  0.00  0.00    +0.000 A 
ENDBRANCH   1   3
BRANCH   1   9
ATOM      9  O   UNL     1     102.286 125.706  81.569  0.00  0.00    +0.000 OA
BRANCH   9  15
ATOM     10  C   UNL     1     104.085 128.161  80.924  0.00  0.00    +0.000 C 
ATOM     11  C   UNL     1     104.069 126.765  80.322  0.00  0.00    +0.000 C 
ATOM     12  C   UNL     1     105.440 126.303  79.836  0.00  0.00    +0.000 C 
ATOM     13  C   UNL     1     105.314 124.784  79.739  0.00  0.00    +0.000 C 
ATOM     14  C   UNL     1     104.131 124.392  80.625  0.00  0.00    +0.000 C 
ATOM     15  C   UNL     1     103.695 125.677  81.330  0.00  0.00    +0.000 C 
ENDBRANCH   9  15
ENDBRANCH   1   9
TORSDOF 3
ENDMDL
