REMARK  Name = *****
REMARK  2 active torsions:
REMARK  status: ('A' for Active; 'I' for Inactive)
REMARK    1  A    between atoms: C_6  and  N_7
REMARK    2  A    between atoms: C_8  and  C_9
REMARK                            x       y       z     vdW  Elec       q    Type
REMARK                         _______ _______ _______ _____ _____    ______ ____
ROOT
ATOM      1  C   UNL     1      -1.962   0.473  -0.487  0.00  0.00    +0.000 A 
ATOM      2  C   UNL     1      -0.781   1.218  -0.499  0.00  0.00    +0.000 A 
ATOM      3  C   UNL     1       0.395   0.639  -0.035  0.00  0.00    +0.000 A 
ATOM      4  C   UNL     1       0.394  -0.666   0.442  0.00  0.00    +0.000 A 
ATOM      5  C   UNL     1      -0.779  -1.413   0.456  0.00  0.00    +0.000 A 
ATOM      6  C   UNL     1      -1.964  -0.849  -0.023  0.00  0.00    +0.000 A 
ATOM      7  F   UNL     1       1.529  -1.219   0.893  0.00  0.00    +0.000 F 
ATOM      8  F   UNL     1       1.529   1.353  -0.048  0.00  0.00    +0.000 F 
ENDROOT
BRANCH   6   9
ATOM      9  N   UNL     1      -3.159  -1.577   0.005  0.00  0.00    +0.000 NA
ATOM     10  C   UNL     1      -3.382  -2.339  -1.016  0.00  0.00    +0.000 C 
BRANCH  10  11
ATOM     11  C   UNL     1      -4.602  -3.123  -1.057  0.00  0.00    +0.000 A 
ATOM     12  C   UNL     1      -4.912  -3.966  -2.108  0.00  0.00    +0.000 A 
ATOM     13  S   UNL     1      -6.410  -4.767  -1.897  0.00  0.00    +0.000 S 
ATOM     14  C   UNL     1      -6.669  -4.000  -0.392  0.00  0.00    +0.000 A 
ATOM     15  C   UNL     1      -5.635  -3.153  -0.062  0.00  0.00    +0.000 A 
ENDBRANCH  10  11
ENDBRANCH   6   9
TORSDOF 2
