REMARK  Name = *****
REMARK  5 active torsions:
REMARK  status: ('A' for Active; 'I' for Inactive)
REMARK    1  A    between atoms: C_1  and  N_2
REMARK    2  A    between atoms: N_2  and  C_3
REMARK    3  A    between atoms: N_2  and  C_4
REMARK    4  A    between atoms: C_9  and  C_10
REMARK    5  A    between atoms: C_11  and  C_12
REMARK                            x       y       z     vdW  Elec       q    Type
REMARK                         _______ _______ _______ _____ _____    ______ ____
ROOT
ATOM      1  C   UNL     1       3.112  -1.214   0.297  0.00  0.00    +0.000 A 
ATOM      2  C   UNL     1       2.740  -2.356  -0.438  0.00  0.00    +0.000 A 
ATOM      3  C   UNL     1       3.469  -3.549  -0.368  0.00  0.00    +0.000 A 
ATOM      4  C   UNL     1       4.591  -3.635   0.446  0.00  0.00    +0.000 A 
ATOM      5  C   UNL     1       4.981  -2.529   1.196  0.00  0.00    +0.000 A 
ATOM      6  C   UNL     1       4.253  -1.330   1.131  0.00  0.00    +0.000 A 
ENDROOT
BRANCH   1   8
ATOM      7  C   UNL     1       0.962  -0.082  -0.126  0.00  0.00    +0.000 C 
ATOM      8  N   UNL     1       2.379  -0.018   0.214  0.00  0.00    +0.000 N 
ATOM      9  C   UNL     1       3.107   1.117  -0.357  0.00  0.00    +0.000 C 
ENDBRANCH   1   8
BRANCH   6  10
ATOM     10  C   UNL     1       4.688  -0.253   1.979  0.00  0.00    +0.000 C 
ATOM     11  C   UNL     1       5.055   0.646   2.686  0.00  0.00    +0.000 C 
BRANCH  11  12
ATOM     12  C   UNL     1       5.489   1.723   3.520  0.00  0.00    +0.000 A 
ATOM     13  C   UNL     1       4.908   2.988   3.385  0.00  0.00    +0.000 A 
ATOM     14  C   UNL     1       5.335   4.042   4.195  0.00  0.00    +0.000 A 
ATOM     15  C   UNL     1       6.337   3.821   5.134  0.00  0.00    +0.000 A 
ATOM     16  C   UNL     1       6.921   2.567   5.279  0.00  0.00    +0.000 A 
ATOM     17  C   UNL     1       6.496   1.512   4.469  0.00  0.00    +0.000 A 
ATOM     18  F   UNL     1       6.746   4.832   5.912  0.00  0.00    +0.000 F 
ENDBRANCH  11  12
ENDBRANCH   6  10
TORSDOF 3
