MODEL 1
REMARK VINA RESULT:      -4.7      0.000      0.000
REMARK  Name = *****
REMARK  3 active torsions:
REMARK  status: ('A' for Active; 'I' for Inactive)
REMARK    1  A    between atoms: C_2  and  C_3
REMARK    2  A    between atoms: C_3  and  C_11
REMARK    3  A    between atoms: C_4  and  C_5
REMARK                            x       y       z     vdW  Elec       q    Type
REMARK                         _______ _______ _______ _____ _____    ______ ____
ROOT
ATOM      1  C   UNL     1     103.005 125.926  81.520  0.00  0.00    +0.000 C 
ATOM      2  C   UNL     1     102.028 125.914  82.456  0.00  0.00    +0.000 C 
ENDROOT
BRANCH   2   3
ATOM      3  C   UNL     1     101.017 126.947  82.719  0.00  0.00    +0.000 A 
ATOM      4  C   UNL     1      99.679 126.768  82.352  0.00  0.00    +0.000 A 
ATOM      5  C   UNL     1      98.730 127.751  82.639  0.00  0.00    +0.000 A 
ATOM      6  C   UNL     1      99.112 128.917  83.302  0.00  0.00    +0.000 A 
ATOM      7  C   UNL     1     100.440 129.097  83.683  0.00  0.00    +0.000 A 
ATOM      8  C   UNL     1     101.390 128.114  83.397  0.00  0.00    +0.000 A 
ENDBRANCH   2   3
BRANCH   1   9
ATOM      9  C   UNL     1     103.872 124.775  81.357  0.00  0.00    +0.000 A 
ATOM     10  C   UNL     1     104.142 123.879  82.374  0.00  0.00    +0.000 A 
ATOM     11  S   UNL     1     105.198 122.626  81.881  0.00  0.00    +0.000 S 
ATOM     12  C   UNL     1     105.312 123.268  80.302  0.00  0.00    +0.000 A 
ATOM     13  C   UNL     1     104.559 124.413  80.154  0.00  0.00    +0.000 A 
ENDBRANCH   1   9
BRANCH   1  15
ATOM     14  C   UNL     1     104.087 128.053  80.817  0.00  0.00    +0.000 C 
ATOM     15  C   UNL     1     103.215 127.056  80.614  0.00  0.00    +0.000 C 
ENDBRANCH   1  15
TORSDOF 3
ENDMDL
