MODEL 1
REMARK VINA RESULT:      -3.5      0.000      0.000
REMARK  Name = *****
REMARK  3 active torsions:
REMARK  status: ('A' for Active; 'I' for Inactive)
REMARK    1  A    between atoms: C_3  and  C_5
REMARK    2  A    between atoms: C_5  and  C_6
REMARK    3  A    between atoms: C_6  and  C_7
REMARK                            x       y       z     vdW  Elec       q    Type
REMARK                         _______ _______ _______ _____ _____    ______ ____
ROOT
ATOM      1  C   UNL     1      95.899 117.189  79.623  0.00  0.00    +0.000 C 
ENDROOT
BRANCH   1   4
ATOM      2  C   UNL     1      96.951 115.171  77.575  0.00  0.00    +0.000 C 
ATOM      3  C   UNL     1      96.834 116.672  77.253  0.00  0.00    +0.000 C 
ATOM      4  C   UNL     1      97.132 116.965  78.747  0.00  0.00    +0.000 C 
ATOM      5  C   UNL     1      97.795 115.561  78.804  0.00  0.00    +0.000 C 
ENDBRANCH   1   4
BRANCH   1   6
ATOM      6  C   UNL     1      96.115 118.379  80.559  0.00  0.00    +0.000 C 
BRANCH   6   7
ATOM      7  C   UNL     1      97.572 118.453  80.995  0.00  0.00    +0.000 C 
ATOM      8  C   UNL     1      97.844 118.155  82.494  0.00  0.00    +0.000 C 
ATOM      9  C   UNL     1      98.947 119.231  82.433  0.00  0.00    +0.000 C 
ATOM     10  C   UNL     1      98.166 119.863  81.263  0.00  0.00    +0.000 C 
ENDBRANCH   6   7
ENDBRANCH   1   6
TORSDOF 3
ENDMDL
