MODEL 1
REMARK VINA RESULT:      -4.0      0.000      0.000
REMARK  Name = *****
REMARK  3 active torsions:
REMARK  status: ('A' for Active; 'I' for Inactive)
REMARK    1  A    between atoms: C_4  and  C_7
REMARK    2  A    between atoms: C_7  and  O_8
REMARK    3  A    between atoms: O_8  and  C_9
REMARK                            x       y       z     vdW  Elec       q    Type
REMARK                         _______ _______ _______ _____ _____    ______ ____
ROOT
ATOM      1  O   UNL     1      87.414  64.178  86.775  0.00  0.00    +0.000 OA
ENDROOT
BRANCH   1   2
ATOM      2  C   UNL     1      88.605  64.698  86.342  0.00  0.00    +0.000 A 
ATOM      3  C   UNL     1      89.546  64.000  85.576  0.00  0.00    +0.000 A 
ATOM      4  C   UNL     1      90.741  64.616  85.187  0.00  0.00    +0.000 A 
ATOM      5  C   UNL     1      91.010  65.931  85.558  0.00  0.00    +0.000 A 
ATOM      6  C   UNL     1      90.082  66.636  86.322  0.00  0.00    +0.000 A 
ATOM      7  C   UNL     1      88.888  66.024  86.714  0.00  0.00    +0.000 A 
ATOM      8 CL   UNL     1      87.775  66.952  87.657  0.00  0.00    +0.000 Cl
ENDBRANCH   1   2
BRANCH   1   9
ATOM      9  C   UNL     1      87.458  63.063  87.664  0.00  0.00    +0.000 C 
BRANCH   9  13
ATOM     10  C   UNL     1      88.065  64.309  91.758  0.00  0.00    +0.000 A 
ATOM     11  C   UNL     1      86.776  64.274  91.230  0.00  0.00    +0.000 A 
ATOM     12  C   UNL     1      86.574  63.883  89.905  0.00  0.00    +0.000 A 
ATOM     13  C   UNL     1      87.659  63.534  89.089  0.00  0.00    +0.000 A 
ATOM     14  C   UNL     1      88.950  63.560  89.638  0.00  0.00    +0.000 A 
ATOM     15  C   UNL     1      89.151  63.951  90.964  0.00  0.00    +0.000 A 
ENDBRANCH   9  13
ENDBRANCH   1   9
TORSDOF 3
ENDMDL
