REMARK  Name = *****
REMARK  5 active torsions:
REMARK  status: ('A' for Active; 'I' for Inactive)
REMARK    1  A    between atoms: C_1  and  C_2
REMARK    2  A    between atoms: C_2  and  C_3
REMARK    3  A    between atoms: C_2  and  O_11
REMARK    4  A    between atoms: O_11  and  C_12
REMARK    5  A    between atoms: C_12  and  C_14
REMARK                            x       y       z     vdW  Elec       q    Type
REMARK                         _______ _______ _______ _____ _____    ______ ____
ROOT
ATOM      1  C   UNL     1       1.170  -0.038  -0.050  0.00  0.00    +0.000 C 
ATOM      2  C   UNL     1       2.691  -0.178  -0.114  0.00  0.00    +0.000 C 
ENDROOT
BRANCH   2   3
ATOM      3  C   UNL     1       3.108  -1.626  -0.028  0.00  0.00    +0.000 A 
ATOM      4  C   UNL     1       2.863  -2.534  -1.062  0.00  0.00    +0.000 A 
ATOM      5  C   UNL     1       3.247  -3.872  -0.968  0.00  0.00    +0.000 A 
ATOM      6  C   UNL     1       3.890  -4.331   0.180  0.00  0.00    +0.000 A 
ATOM      7  C   UNL     1       4.140  -3.445   1.225  0.00  0.00    +0.000 A 
ATOM      8  C   UNL     1       3.748  -2.111   1.114  0.00  0.00    +0.000 A 
ATOM      9  F   UNL     1       3.995  -1.289   2.144  0.00  0.00    +0.000 F 
ATOM     10  F   UNL     1       2.239  -2.132  -2.179  0.00  0.00    +0.000 F 
ENDBRANCH   2   3
BRANCH   2  11
ATOM     11  O   UNL     1       3.185   0.350  -1.359  0.00  0.00    +0.000 OA
BRANCH  11  12
ATOM     12  C   UNL     1       3.340   1.693  -1.422  0.00  0.00    +0.000 C 
ATOM     13  O   UNL     1       3.108   2.485  -0.523  0.00  0.00    +0.000 OA
BRANCH  12  14
ATOM     14  C   UNL     1       3.847   2.093  -2.763  0.00  0.00    +0.000 A 
ATOM     15  C   UNL     1       4.120   3.449  -2.989  0.00  0.00    +0.000 A 
ATOM     16  C   UNL     1       4.598   3.874  -4.230  0.00  0.00    +0.000 A 
ATOM     17  C   UNL     1       4.804   2.948  -5.252  0.00  0.00    +0.000 A 
ATOM     18  C   UNL     1       4.533   1.597  -5.036  0.00  0.00    +0.000 A 
ATOM     19  C   UNL     1       4.056   1.168  -3.795  0.00  0.00    +0.000 A 
ENDBRANCH  12  14
ENDBRANCH  11  12
ENDBRANCH   2  11
TORSDOF 4
