MODEL 1
REMARK VINA RESULT:      -4.9      0.000      0.000
REMARK  Name = *****
REMARK  4 active torsions:
REMARK  status: ('A' for Active; 'I' for Inactive)
REMARK    1  A    between atoms: C_1  and  C_2
REMARK    2  A    between atoms: C_5  and  C_8
REMARK    3  A    between atoms: C_8  and  S_10
REMARK    4  A    between atoms: S_10  and  C_12
REMARK                            x       y       z     vdW  Elec       q    Type
REMARK                         _______ _______ _______ _____ _____    ______ ____
ROOT
ATOM      1  C   UNL     1     103.536 126.808  81.612  0.00  0.00    +0.000 C 
ATOM      2  C   UNL     1     103.512 127.503  80.464  0.00  0.00    +0.000 C 
ENDROOT
BRANCH   1   7
ATOM      3  C   UNL     1     105.080 121.234  81.638  0.00  0.00    +0.000 C 
ATOM      4  C   UNL     1     104.704 122.686  81.636  0.00  0.00    +0.000 A 
ATOM      5  C   UNL     1     104.688 123.412  80.439  0.00  0.00    +0.000 A 
ATOM      6  C   UNL     1     104.306 124.756  80.432  0.00  0.00    +0.000 A 
ATOM      7  C   UNL     1     103.927 125.392  81.620  0.00  0.00    +0.000 A 
ATOM      8  C   UNL     1     103.922 124.659  82.813  0.00  0.00    +0.000 A 
ATOM      9  C   UNL     1     104.305 123.316  82.821  0.00  0.00    +0.000 A 
ENDBRANCH   1   7
BRANCH   1  10
ATOM     10  S   UNL     1     103.149 127.619  83.167  0.00  0.00    +0.000 S 
ATOM     11  O   UNL     1     103.663 129.028  83.064  0.00  0.00    +0.000 OA
BRANCH  10  12
ATOM     12  C   UNL     1     101.349 127.733  83.035  0.00  0.00    +0.000 A 
ATOM     13  C   UNL     1     100.624 126.676  82.471  0.00  0.00    +0.000 A 
ATOM     14  C   UNL     1      99.234 126.757  82.362  0.00  0.00    +0.000 A 
ATOM     15  C   UNL     1      98.563 127.889  82.821  0.00  0.00    +0.000 A 
ATOM     16  C   UNL     1      99.278 128.941  83.391  0.00  0.00    +0.000 A 
ATOM     17  C   UNL     1     100.667 128.863  83.499  0.00  0.00    +0.000 A 
ENDBRANCH  10  12
ENDBRANCH   1  10
TORSDOF 3
ENDMDL
