MODEL 1
REMARK VINA RESULT:      -4.2      0.000      0.000
REMARK  Name = *****
REMARK  5 active torsions:
REMARK  status: ('A' for Active; 'I' for Inactive)
REMARK    1  A    between atoms: C_1  and  C_2
REMARK    2  A    between atoms: C_7  and  O_8
REMARK    3  A    between atoms: O_8  and  C_9
REMARK    4  A    between atoms: C_9  and  C_10
REMARK    5  A    between atoms: C_9  and  C_11
REMARK                            x       y       z     vdW  Elec       q    Type
REMARK                         _______ _______ _______ _____ _____    ______ ____
ROOT
ATOM      1  O   UNL     1      88.530  70.446  84.673  0.00  0.00    +0.000 OA
ENDROOT
BRANCH   1   8
ATOM      2  C   UNL     1      88.249  72.432  82.631  0.00  0.00    +0.000 C 
ATOM      3  C   UNL     1      89.233  72.586  83.800  0.00  0.00    +0.000 C 
ATOM      4  C   UNL     1      90.450  73.431  83.398  0.00  0.00    +0.000 C 
ATOM      5  C   UNL     1      91.406  72.688  82.467  0.00  0.00    +0.000 C 
ATOM      6  C   UNL     1      91.829  71.343  83.048  0.00  0.00    +0.000 C 
ATOM      7  C   UNL     1      90.632  70.486  83.446  0.00  0.00    +0.000 C 
ATOM      8  C   UNL     1      89.688  71.236  84.395  0.00  0.00    +0.000 C 
ENDBRANCH   1   8
BRANCH   1   9
ATOM      9  C   UNL     1      88.302  70.184  86.062  0.00  0.00    +0.000 C 
ATOM     10  C   UNL     1      89.512  70.659  86.864  0.00  0.00    +0.000 C 
BRANCH   9  11
ATOM     11  C   UNL     1      87.047  70.912  86.500  0.00  0.00    +0.000 A 
ATOM     12  C   UNL     1      86.779  71.095  87.866  0.00  0.00    +0.000 A 
ATOM     13  C   UNL     1      85.638  71.785  88.282  0.00  0.00    +0.000 A 
ATOM     14  C   UNL     1      84.753  72.304  87.339  0.00  0.00    +0.000 A 
ATOM     15  C   UNL     1      85.007  72.134  85.979  0.00  0.00    +0.000 A 
ATOM     16  C   UNL     1      86.148  71.445  85.563  0.00  0.00    +0.000 A 
ENDBRANCH   9  11
ENDBRANCH   1   9
TORSDOF 3
ENDMDL
