MODEL 1
REMARK VINA RESULT:      -4.9      0.000      0.000
REMARK  Name = *****
REMARK  7 active torsions:
REMARK  status: ('A' for Active; 'I' for Inactive)
REMARK    1  A    between atoms: C_1  and  C_2
REMARK    2  A    between atoms: C_2  and  C_3
REMARK    3  A    between atoms: C_3  and  C_4
REMARK    4  A    between atoms: C_3  and  C_10
REMARK    5  A    between atoms: C_10  and  C_12
REMARK    6  A    between atoms: C_13  and  C_19
REMARK    7  A    between atoms: C_16  and  C_18
REMARK                            x       y       z     vdW  Elec       q    Type
REMARK                         _______ _______ _______ _____ _____    ______ ____
ROOT
ATOM      1  C   UNL     1      89.025  69.985  86.512  0.00  0.00    +0.000 C 
ATOM      2  O   UNL     1      89.450  70.637  87.466  0.00  0.00    +0.000 OA
ENDROOT
BRANCH   1   3
ATOM      3  C   UNL     1      88.993  68.505  86.642  0.00  0.00    +0.000 A 
ATOM      4  C   UNL     1      87.986  67.806  87.329  0.00  0.00    +0.000 A 
ATOM      5  C   UNL     1      88.095  66.409  87.425  0.00  0.00    +0.000 A 
ATOM      6  C   UNL     1      89.152  65.724  86.819  0.00  0.00    +0.000 A 
ATOM      7  C   UNL     1      90.133  66.418  86.108  0.00  0.00    +0.000 A 
ATOM      8  C   UNL     1      90.038  67.810  86.011  0.00  0.00    +0.000 A 
ATOM      9  C   UNL     1      91.231  65.679  85.402  0.00  0.00    +0.000 C 
ATOM     10  C   UNL     1      86.801  68.478  87.957  0.00  0.00    +0.000 C 
ENDBRANCH   1   3
BRANCH   1  11
ATOM     11  C   UNL     1      88.395  70.615  85.263  0.00  0.00    +0.000 C 
BRANCH  11  12
ATOM     12  C   UNL     1      89.367  71.492  84.480  0.00  0.00    +0.000 A 
ATOM     13  C   UNL     1      88.996  72.750  83.981  0.00  0.00    +0.000 A 
ATOM     14  C   UNL     1      89.899  73.523  83.249  0.00  0.00    +0.000 A 
ATOM     15  C   UNL     1      91.184  73.047  82.998  0.00  0.00    +0.000 A 
ATOM     16  C   UNL     1      91.563  71.794  83.471  0.00  0.00    +0.000 A 
ATOM     17  C   UNL     1      90.660  71.019  84.202  0.00  0.00    +0.000 A 
ENDBRANCH  11  12
BRANCH  11  19
ATOM     18  C   UNL     1      85.849  70.814  85.167  0.00  0.00    +0.000 C 
ATOM     19  C   UNL     1      87.150  71.442  85.648  0.00  0.00    +0.000 C 
ENDBRANCH  11  19
ENDBRANCH   1  11
TORSDOF 4
ENDMDL
