MODEL 1
REMARK VINA RESULT:      -4.8      0.000      0.000
REMARK  Name = *****
REMARK  6 active torsions:
REMARK  status: ('A' for Active; 'I' for Inactive)
REMARK    1  A    between atoms: C_1  and  C_2
REMARK    2  A    between atoms: C_4  and  C_11
REMARK    3  A    between atoms: C_5  and  N_8
REMARK    4  A    between atoms: N_8  and  C_9
REMARK    5  A    between atoms: N_8  and  C_10
REMARK    6  A    between atoms: C_12  and  C_13
REMARK                            x       y       z     vdW  Elec       q    Type
REMARK                         _______ _______ _______ _____ _____    ______ ____
ROOT
ATOM      1  C   UNL     1     106.371 124.614  77.953  0.00  0.00    +0.000 C 
ATOM      2  C   UNL     1     105.800 124.253  79.291  0.00  0.00    +0.000 A 
ATOM      3  C   UNL     1     104.734 124.980  79.830  0.00  0.00    +0.000 A 
ATOM      4  C   UNL     1     104.216 124.667  81.097  0.00  0.00    +0.000 A 
ATOM      5  C   UNL     1     104.772 123.617  81.867  0.00  0.00    +0.000 A 
ATOM      6  C   UNL     1     105.852 122.909  81.314  0.00  0.00    +0.000 A 
ATOM      7  C   UNL     1     106.363 123.225  80.049  0.00  0.00    +0.000 A 
ENDROOT
BRANCH   5   8
ATOM      8  N   UNL     1     104.237 123.291  83.135  0.00  0.00    +0.000 N 
ATOM      9  C   UNL     1     104.670 124.122  84.256  0.00  0.00    +0.000 C 
ATOM     10  C   UNL     1     104.300 121.849  83.390  0.00  0.00    +0.000 C 
ENDBRANCH   5   8
BRANCH   4  11
ATOM     11  C   UNL     1     103.133 125.468  81.593  0.00  0.00    +0.000 C 
ATOM     12  C   UNL     1     102.232 126.144  82.012  0.00  0.00    +0.000 C 
BRANCH  12  13
ATOM     13  C   UNL     1     101.176 126.964  82.521  0.00  0.00    +0.000 A 
ATOM     14  C   UNL     1     101.470 128.155  83.186  0.00  0.00    +0.000 A 
ATOM     15  C   UNL     1     100.436 128.954  83.679  0.00  0.00    +0.000 A 
ATOM     16  C   UNL     1      99.109 128.560  83.508  0.00  0.00    +0.000 A 
ATOM     17  C   UNL     1      98.814 127.370  82.844  0.00  0.00    +0.000 A 
ATOM     18  C   UNL     1      99.847 126.571  82.351  0.00  0.00    +0.000 A 
ENDBRANCH  12  13
ENDBRANCH   4  11
TORSDOF 3
ENDMDL
