REMARK  Name = *****
REMARK  3 active torsions:
REMARK  status: ('A' for Active; 'I' for Inactive)
REMARK    1  A    between atoms: C_4  and  O_7
REMARK    2  A    between atoms: O_7  and  C_8
REMARK    3  A    between atoms: C_8  and  C_10
REMARK                            x       y       z     vdW  Elec       q    Type
REMARK                         _______ _______ _______ _____ _____    ______ ____
ROOT
ATOM      1  C   UNL     1      -3.629  -0.939  -0.073  0.00  0.00    +0.000 C 
ATOM      2  O   UNL     1      -3.254  -2.098  -0.152  0.00  0.00    +0.000 OA
ENDROOT
BRANCH   1   3
ATOM      3  C   UNL     1      -5.051  -0.555  -0.094  0.00  0.00    +0.000 A 
ATOM      4  C   UNL     1      -5.838  -1.084  -1.129  0.00  0.00    +0.000 A 
ATOM      5  C   UNL     1      -7.192  -0.759  -1.214  0.00  0.00    +0.000 A 
ATOM      6  C   UNL     1      -7.766   0.083  -0.263  0.00  0.00    +0.000 A 
ATOM      7  C   UNL     1      -6.989   0.593   0.780  0.00  0.00    +0.000 A 
ATOM      8  C   UNL     1      -5.631   0.272   0.873  0.00  0.00    +0.000 A 
ATOM      9 CL   UNL     1      -4.758   0.886   2.231  0.00  0.00    +0.000 Cl
ENDBRANCH   1   3
BRANCH   1  10
ATOM     10  O   UNL     1      -2.873   0.217  -0.079  0.00  0.00    +0.000 OA
BRANCH  10  14
ATOM     11  C   UNL     1       1.295  -0.051  -0.064  0.00  0.00    +0.000 A 
ATOM     12  C   UNL     1       0.576  -0.728  -1.052  0.00  0.00    +0.000 A 
ATOM     13  C   UNL     1      -0.817  -0.662  -1.071  0.00  0.00    +0.000 A 
ATOM     14  C   UNL     1      -1.479   0.066  -0.084  0.00  0.00    +0.000 A 
ATOM     15  C   UNL     1      -0.769   0.761   0.894  0.00  0.00    +0.000 A 
ATOM     16  C   UNL     1       0.624   0.695   0.906  0.00  0.00    +0.000 A 
ENDBRANCH  10  14
ENDBRANCH   1  10
TORSDOF 3
