MODEL 1
REMARK VINA RESULT:      -5.0      0.000      0.000
REMARK  Name = *****
REMARK  4 active torsions:
REMARK  status: ('A' for Active; 'I' for Inactive)
REMARK    1  A    between atoms: C_7  and  C_8
REMARK    2  A    between atoms: C_8  and  C_9
REMARK    3  A    between atoms: C_9  and  C_10
REMARK    4  A    between atoms: C_10  and  C_12
REMARK                            x       y       z     vdW  Elec       q    Type
REMARK                         _______ _______ _______ _____ _____    ______ ____
ROOT
ATOM      1  C   UNL     1     100.404 126.617  83.279  0.00  0.00    +0.000 C 
ENDROOT
BRANCH   1   2
ATOM      2  C   UNL     1      99.200 127.507  83.019  0.00  0.00    +0.000 C 
ATOM      3  O   UNL     1      98.386 127.267  82.129  0.00  0.00    +0.000 OA
BRANCH   2   4
ATOM      4  C   UNL     1      99.005 128.715  83.880  0.00  0.00    +0.000 A 
ATOM      5  C   UNL     1      98.324 128.663  85.103  0.00  0.00    +0.000 A 
ATOM      6  C   UNL     1      98.168 129.822  85.870  0.00  0.00    +0.000 A 
ATOM      7  C   UNL     1      98.689 131.035  85.422  0.00  0.00    +0.000 A 
ATOM      8  C   UNL     1      99.368 131.095  84.208  0.00  0.00    +0.000 A 
ATOM      9  C   UNL     1      99.526 129.941  83.439  0.00  0.00    +0.000 A 
ENDBRANCH   2   4
ENDBRANCH   1   2
BRANCH   1  10
ATOM     10  C   UNL     1     101.134 126.241  81.985  0.00  0.00    +0.000 C 
BRANCH  10  17
ATOM     11  C   UNL     1     103.976 124.903  80.374  0.00  0.00    +0.000 C 
ATOM     12  C   UNL     1     103.427 126.017  80.884  0.00  0.00    +0.000 C 
ATOM     13  C   UNL     1     103.594 127.364  80.225  0.00  0.00    +0.000 C 
ATOM     14  C   UNL     1     104.186 128.379  81.202  0.00  0.00    +0.000 C 
ATOM     15  C   UNL     1     103.398 128.445  82.509  0.00  0.00    +0.000 C 
ATOM     16  C   UNL     1     103.248 127.060  83.146  0.00  0.00    +0.000 C 
ATOM     17  C   UNL     1     102.647 126.012  82.189  0.00  0.00    +0.000 C 
ENDBRANCH  10  17
ENDBRANCH   1  10
TORSDOF 4
ENDMDL
