MODEL 1
REMARK VINA RESULT:      -4.4      0.000      0.000
REMARK  Name = *****
REMARK  3 active torsions:
REMARK  status: ('A' for Active; 'I' for Inactive)
REMARK    1  A    between atoms: C_1  and  C_2
REMARK    2  A    between atoms: C_2  and  C_10
REMARK    3  A    between atoms: N_3  and  C_4
REMARK                            x       y       z     vdW  Elec       q    Type
REMARK                         _______ _______ _______ _____ _____    ______ ____
ROOT
ATOM      1  C   UNL     1     103.494 124.909  83.528  0.00  0.00    +0.000 C 
ATOM      2  C   UNL     1     103.095 125.282  82.119  0.00  0.00    +0.000 C 
ATOM      3  N   UNL     1     102.127 126.078  81.820  0.00  0.00    +0.000 NA
ENDROOT
BRANCH   3   4
ATOM      4  C   UNL     1     101.332 126.737  82.856  0.00  0.00    +0.000 C 
ATOM      5  C   UNL     1      99.871 126.745  82.387  0.00  0.00    +0.000 C 
ATOM      6  C   UNL     1      98.979 127.537  83.339  0.00  0.00    +0.000 C 
ATOM      7  C   UNL     1      99.498 128.956  83.544  0.00  0.00    +0.000 C 
ATOM      8  C   UNL     1     100.955 128.964  83.996  0.00  0.00    +0.000 C 
ATOM      9  C   UNL     1     101.844 128.170  83.043  0.00  0.00    +0.000 C 
ENDBRANCH   3   4
BRANCH   2  10
ATOM     10  C   UNL     1     103.838 124.580  80.978  0.00  0.00    +0.000 C 
ATOM     11  C   UNL     1     104.560 123.313  81.452  0.00  0.00    +0.000 C 
ATOM     12  C   UNL     1     105.336 122.656  80.313  0.00  0.00    +0.000 C 
ATOM     13  C   UNL     1     106.310 123.635  79.663  0.00  0.00    +0.000 C 
ATOM     14  C   UNL     1     105.604 124.905  79.195  0.00  0.00    +0.000 C 
ATOM     15  C   UNL     1     104.816 125.564  80.324  0.00  0.00    +0.000 C 
ENDBRANCH   2  10
TORSDOF 2
ENDMDL
