MODEL 1
REMARK VINA RESULT:      -5.0      0.000      0.000
REMARK  Name = *****
REMARK  3 active torsions:
REMARK  status: ('A' for Active; 'I' for Inactive)
REMARK    1  A    between atoms: C_1  and  C_2
REMARK    2  A    between atoms: C_4  and  C_8
REMARK    3  A    between atoms: C_9  and  C_10
REMARK                            x       y       z     vdW  Elec       q    Type
REMARK                         _______ _______ _______ _____ _____    ______ ____
ROOT
ATOM      1  C   UNL     1     102.973 125.664  81.453  0.00  0.00    +0.000 C 
ATOM      2  C   UNL     1     102.102 126.328  81.947  0.00  0.00    +0.000 C 
ENDROOT
BRANCH   1   6
ATOM      3  C   UNL     1     105.565 121.430  81.226  0.00  0.00    +0.000 C 
ATOM      4  C   UNL     1     105.302 122.828  80.750  0.00  0.00    +0.000 A 
ATOM      5  C   UNL     1     104.279 123.595  81.324  0.00  0.00    +0.000 A 
ATOM      6  C   UNL     1     104.013 124.884  80.856  0.00  0.00    +0.000 A 
ATOM      7  C   UNL     1     104.761 125.411  79.802  0.00  0.00    +0.000 A 
ATOM      8  C   UNL     1     105.770 124.650  79.215  0.00  0.00    +0.000 A 
ATOM      9  C   UNL     1     106.037 123.361  79.683  0.00  0.00    +0.000 A 
ENDBRANCH   1   6
BRANCH   2  10
ATOM     10  C   UNL     1     101.064 127.124  82.533  0.00  0.00    +0.000 A 
ATOM     11  C   UNL     1      99.734 126.720  82.360  0.00  0.00    +0.000 A 
ATOM     12  C   UNL     1      98.690 127.465  82.914  0.00  0.00    +0.000 A 
ATOM     13  C   UNL     1      98.969 128.619  83.644  0.00  0.00    +0.000 A 
ATOM     14  C   UNL     1     100.290 129.029  83.821  0.00  0.00    +0.000 A 
ATOM     15  C   UNL     1     101.338 128.285  83.269  0.00  0.00    +0.000 A 
ATOM     16 CL   UNL     1     102.953 128.848  83.529  0.00  0.00    +0.000 Cl
ENDBRANCH   2  10
TORSDOF 2
ENDMDL
