MODEL 1
REMARK VINA RESULT:      -4.7      0.000      0.000
REMARK  Name = *****
REMARK  3 active torsions:
REMARK  status: ('A' for Active; 'I' for Inactive)
REMARK    1  A    between atoms: C_1  and  C_2
REMARK    2  A    between atoms: C_3  and  C_11
REMARK    3  A    between atoms: N_4  and  C_5
REMARK                            x       y       z     vdW  Elec       q    Type
REMARK                         _______ _______ _______ _____ _____    ______ ____
ROOT
ATOM      1  C   UNL     1     104.847 127.755  82.144  0.00  0.00    +0.000 C 
ATOM      2  C   UNL     1     103.428 127.549  81.744  0.00  0.00    +0.000 C 
ATOM      3  C   UNL     1     102.844 126.174  81.424  0.00  0.00    +0.000 C 
ATOM      4  N   UNL     1     102.535 126.878  82.674  0.00  0.00    +0.000 N 
ENDROOT
BRANCH   3   5
ATOM      5  C   UNL     1     103.684 124.925  81.500  0.00  0.00    +0.000 A 
ATOM      6  C   UNL     1     103.848 124.209  82.700  0.00  0.00    +0.000 A 
ATOM      7  C   UNL     1     104.620 123.045  82.758  0.00  0.00    +0.000 A 
ATOM      8  C   UNL     1     105.241 122.572  81.608  0.00  0.00    +0.000 A 
ATOM      9  C   UNL     1     105.093 123.252  80.403  0.00  0.00    +0.000 A 
ATOM     10  C   UNL     1     104.320 124.416  80.353  0.00  0.00    +0.000 A 
ATOM     11 CL   UNL     1     106.192 121.141  81.673  0.00  0.00    +0.000 Cl
ENDBRANCH   3   5
BRANCH   4  12
ATOM     12  C   UNL     1     101.236 127.402  82.881  0.00  0.00    +0.000 A 
ATOM     13  C   UNL     1     101.046 128.644  83.502  0.00  0.00    +0.000 A 
ATOM     14  C   UNL     1      99.762 129.170  83.669  0.00  0.00    +0.000 A 
ATOM     15  C   UNL     1      98.654 128.467  83.201  0.00  0.00    +0.000 A 
ATOM     16  C   UNL     1      98.829 127.245  82.555  0.00  0.00    +0.000 A 
ATOM     17  C   UNL     1     100.114 126.722  82.389  0.00  0.00    +0.000 A 
ENDBRANCH   4  12
TORSDOF 2
ENDMDL
