MODEL 1
REMARK VINA RESULT:      -4.6      0.000      0.000
REMARK  Name = *****
REMARK  3 active torsions:
REMARK  status: ('A' for Active; 'I' for Inactive)
REMARK    1  A    between atoms: C_5  and  C_7
REMARK    2  A    between atoms: C_7  and  C_8
REMARK    3  A    between atoms: C_8  and  C_10
REMARK                            x       y       z     vdW  Elec       q    Type
REMARK                         _______ _______ _______ _____ _____    ______ ____
ROOT
ATOM      1  C   UNL     1      87.680  69.466  87.449  0.00  0.00    +0.000 C 
ATOM      2 CL   UNL     1      87.109  68.107  88.461  0.00  0.00    +0.000 Cl
ENDROOT
BRANCH   1   7
ATOM      3  C   UNL     1      89.575  71.082  85.182  0.00  0.00    +0.000 C 
ATOM      4  C   UNL     1      90.205  69.966  84.360  0.00  0.00    +0.000 C 
ATOM      5  C   UNL     1      89.680  68.588  84.749  0.00  0.00    +0.000 C 
ATOM      6  C   UNL     1      89.804  68.345  86.254  0.00  0.00    +0.000 C 
ATOM      7  C   UNL     1      89.210  69.451  87.160  0.00  0.00    +0.000 C 
ATOM      8  C   UNL     1      89.716  70.834  86.682  0.00  0.00    +0.000 C 
ATOM      9 CL   UNL     1      89.234  66.710  86.667  0.00  0.00    +0.000 Cl
ENDBRANCH   1   7
BRANCH   1  10
ATOM     10  C   UNL     1      87.136  70.788  88.014  0.00  0.00    +0.000 C 
ATOM     11  O   UNL     1      87.556  71.325  89.038  0.00  0.00    +0.000 OA
BRANCH  10  12
ATOM     12  C   UNL     1      86.010  71.462  87.306  0.00  0.00    +0.000 A 
ATOM     13  C   UNL     1      84.925  72.023  87.991  0.00  0.00    +0.000 A 
ATOM     14  C   UNL     1      83.894  72.639  87.277  0.00  0.00    +0.000 A 
ATOM     15  C   UNL     1      83.947  72.705  85.885  0.00  0.00    +0.000 A 
ATOM     16  C   UNL     1      85.033  72.162  85.201  0.00  0.00    +0.000 A 
ATOM     17  C   UNL     1      86.065  71.546  85.909  0.00  0.00    +0.000 A 
ENDBRANCH  10  12
ENDBRANCH   1  10
TORSDOF 3
ENDMDL
