MODEL 1
REMARK VINA RESULT:      -4.8      0.000      0.000
REMARK  Name = *****
REMARK  6 active torsions:
REMARK  status: ('A' for Active; 'I' for Inactive)
REMARK    1  A    between atoms: C_1  and  C_2
REMARK    2  A    between atoms: C_5  and  C_8
REMARK    3  A    between atoms: C_8  and  C_9
REMARK    4  A    between atoms: C_9  and  C_10
REMARK    5  A    between atoms: C_9  and  C_13
REMARK    6  A    between atoms: C_10  and  C_11
REMARK                            x       y       z     vdW  Elec       q    Type
REMARK                         _______ _______ _______ _____ _____    ______ ____
ROOT
ATOM      1  C   UNL     1     102.661 127.717  83.059  0.00  0.00    +0.000 C 
ENDROOT
BRANCH   1   2
ATOM      2  C   UNL     1     101.137 127.799  83.021  0.00  0.00    +0.000 A 
ATOM      3  C   UNL     1     100.444 128.905  83.539  0.00  0.00    +0.000 A 
ATOM      4  C   UNL     1      99.049 128.950  83.501  0.00  0.00    +0.000 A 
ATOM      5  C   UNL     1      98.329 127.895  82.947  0.00  0.00    +0.000 A 
ATOM      6  C   UNL     1      99.004 126.793  82.426  0.00  0.00    +0.000 A 
ATOM      7  C   UNL     1     100.399 126.745  82.461  0.00  0.00    +0.000 A 
ENDBRANCH   1   2
BRANCH   1   8
ATOM      8  C   UNL     1     103.207 127.453  81.635  0.00  0.00    +0.000 C 
BRANCH   8  13
ATOM      9  C   UNL     1     105.181 122.030  80.822  0.00  0.00    +0.000 C 
ATOM     10  C   UNL     1     104.652 123.418  81.025  0.00  0.00    +0.000 A 
ATOM     11  C   UNL     1     104.666 124.343  79.976  0.00  0.00    +0.000 A 
ATOM     12  C   UNL     1     104.201 125.645  80.173  0.00  0.00    +0.000 A 
ATOM     13  C   UNL     1     103.719 126.047  81.424  0.00  0.00    +0.000 A 
ATOM     14  C   UNL     1     103.724 125.127  82.479  0.00  0.00    +0.000 A 
ATOM     15  C   UNL     1     104.190 123.825  82.282  0.00  0.00    +0.000 A 
ENDBRANCH   8  13
ENDBRANCH   1   8
BRANCH   1  16
ATOM     16  C   UNL     1     103.282 128.974  83.692  0.00  0.00    +0.000 C 
BRANCH  16  17
ATOM     17  C   UNL     1     104.569 129.350  83.001  0.00  0.00    +0.000 C 
ATOM     18  O   UNL     1     105.020 130.492  82.993  0.00  0.00    +0.000 OA
ENDBRANCH  16  17
ENDBRANCH   1  16
TORSDOF 5
ENDMDL
