MODEL 1
REMARK VINA RESULT:      -4.5      0.000      0.000
REMARK  Name = *****
REMARK  6 active torsions:
REMARK  status: ('A' for Active; 'I' for Inactive)
REMARK    1  A    between atoms: C_1  and  C_2
REMARK    2  A    between atoms: C_4  and  C_9
REMARK    3  A    between atoms: C_5  and  C_8
REMARK    4  A    between atoms: C_9  and  C_10
REMARK    5  A    between atoms: C_10  and  C_11
REMARK    6  A    between atoms: C_11  and  C_13
REMARK                            x       y       z     vdW  Elec       q    Type
REMARK                         _______ _______ _______ _____ _____    ______ ____
ROOT
ATOM      1  C   UNL     1      88.800  69.896  86.143  0.00  0.00    +0.000 C 
ENDROOT
BRANCH   1   5
ATOM      2  C   UNL     1      84.564  72.453  84.961  0.00  0.00    +0.000 C 
ATOM      3  C   UNL     1      85.501  71.885  85.984  0.00  0.00    +0.000 A 
ATOM      4  C   UNL     1      86.656  71.189  85.599  0.00  0.00    +0.000 A 
ATOM      5  C   UNL     1      87.547  70.654  86.549  0.00  0.00    +0.000 A 
ATOM      6  C   UNL     1      87.250  70.827  87.921  0.00  0.00    +0.000 A 
ATOM      7  C   UNL     1      86.097  71.530  88.301  0.00  0.00    +0.000 A 
ATOM      8  C   UNL     1      85.230  72.053  87.342  0.00  0.00    +0.000 A 
ATOM      9  C   UNL     1      88.156  70.293  89.001  0.00  0.00    +0.000 C 
ENDBRANCH   1   5
BRANCH   1  10
ATOM     10  C   UNL     1      89.931  70.707  85.506  0.00  0.00    +0.000 C 
BRANCH  10  11
ATOM     11  C   UNL     1      90.033  70.461  84.008  0.00  0.00    +0.000 C 
ATOM     12  O   UNL     1      90.555  69.447  83.546  0.00  0.00    +0.000 OA
BRANCH  11  13
ATOM     13  C   UNL     1      89.482  71.565  83.106  0.00  0.00    +0.000 C 
ATOM     14  C   UNL     1      89.354  72.890  83.868  0.00  0.00    +0.000 C 
ATOM     15  C   UNL     1      88.750  73.983  82.991  0.00  0.00    +0.000 C 
ATOM     16  C   UNL     1      87.408  73.553  82.407  0.00  0.00    +0.000 C 
ATOM     17  C   UNL     1      87.521  72.231  81.652  0.00  0.00    +0.000 C 
ATOM     18  C   UNL     1      88.134  71.134  82.520  0.00  0.00    +0.000 C 
ENDBRANCH  11  13
ENDBRANCH  10  11
ENDBRANCH   1  10
TORSDOF 4
ENDMDL
