REMARK  Name = *****
REMARK  4 active torsions:
REMARK  status: ('A' for Active; 'I' for Inactive)
REMARK    1  A    between atoms: C_1  and  C_2
REMARK    2  A    between atoms: C_5  and  N_8
REMARK    3  A    between atoms: C_9  and  C_10
REMARK    4  A    between atoms: C_9  and  C_11
REMARK                            x       y       z     vdW  Elec       q    Type
REMARK                         _______ _______ _______ _____ _____    ______ ____
ROOT
ATOM      1  N   UNL     1      -3.207   0.164   0.452  0.00  0.00    +0.000 NA
ATOM      2  C   UNL     1      -3.898   1.159  -0.032  0.00  0.00    +0.000 C 
ATOM      3  C   UNL     1      -3.288   2.346  -0.756  0.00  0.00    +0.000 C 
ENDROOT
BRANCH   1   8
ATOM      4  C   UNL     1       2.478  -0.017  -0.076  0.00  0.00    +0.000 C 
ATOM      5  C   UNL     1       0.985   0.059   0.044  0.00  0.00    +0.000 A 
ATOM      6  C   UNL     1       0.394   0.756   1.105  0.00  0.00    +0.000 A 
ATOM      7  C   UNL     1      -0.997   0.795   1.236  0.00  0.00    +0.000 A 
ATOM      8  C   UNL     1      -1.815   0.145   0.311  0.00  0.00    +0.000 A 
ATOM      9  C   UNL     1      -1.226  -0.581  -0.725  0.00  0.00    +0.000 A 
ATOM     10  C   UNL     1       0.164  -0.624  -0.861  0.00  0.00    +0.000 A 
ENDBRANCH   1   8
BRANCH   2  11
ATOM     11  C   UNL     1      -5.415   1.129   0.204  0.00  0.00    +0.000 C 
ATOM     12  C   UNL     1      -6.195   1.167  -1.083  0.00  0.00    +0.000 C 
ATOM     13  C   UNL     1      -6.989   2.250  -1.100  0.00  0.00    +0.000 C 
ATOM     14  C   UNL     1      -6.809   2.995   0.122  0.00  0.00    +0.000 C 
ATOM     15  C   UNL     1      -5.906   2.373   0.896  0.00  0.00    +0.000 C 
ENDBRANCH   2  11
TORSDOF 2
