MODEL 1
REMARK VINA RESULT:      -4.8      0.000      0.000
REMARK  Name = *****
REMARK  2 active torsions:
REMARK  status: ('A' for Active; 'I' for Inactive)
REMARK    1  A    between atoms: C_2  and  C_11
REMARK    2  A    between atoms: C_3  and  C_4
REMARK                            x       y       z     vdW  Elec       q    Type
REMARK                         _______ _______ _______ _____ _____    ______ ____
ROOT
ATOM      1  C   UNL     1     103.741 126.632  83.527  0.00  0.00    +0.000 C 
ATOM      2  C   UNL     1     102.357 126.088  83.285  0.00  0.00    +0.000 C 
ATOM      3  C   UNL     1     103.430 125.972  82.204  0.00  0.00    +0.000 C 
ATOM      4 BR   UNL     1     103.414 127.161  80.678  0.00  0.00    +0.000 Br
ENDROOT
BRANCH   3   5
ATOM      5  C   UNL     1     104.008 124.607  81.887  0.00  0.00    +0.000 A 
ATOM      6  C   UNL     1     104.386 124.260  80.577  0.00  0.00    +0.000 A 
ATOM      7  C   UNL     1     104.921 123.004  80.279  0.00  0.00    +0.000 A 
ATOM      8  C   UNL     1     105.097 122.065  81.291  0.00  0.00    +0.000 A 
ATOM      9  C   UNL     1     104.742 122.384  82.599  0.00  0.00    +0.000 A 
ATOM     10  C   UNL     1     104.206 123.641  82.890  0.00  0.00    +0.000 A 
ENDBRANCH   3   5
BRANCH   2  11
ATOM     11  C   UNL     1     101.167 127.013  83.164  0.00  0.00    +0.000 A 
ATOM     12  C   UNL     1      99.981 126.589  82.540  0.00  0.00    +0.000 A 
ATOM     13  C   UNL     1      98.866 127.426  82.443  0.00  0.00    +0.000 A 
ATOM     14  C   UNL     1      98.910 128.707  82.984  0.00  0.00    +0.000 A 
ATOM     15  C   UNL     1     100.065 129.147  83.622  0.00  0.00    +0.000 A 
ATOM     16  C   UNL     1     101.178 128.306  83.714  0.00  0.00    +0.000 A 
ENDBRANCH   2  11
TORSDOF 2
ENDMDL
