MODEL 1
REMARK VINA RESULT:      -4.7      0.000      0.000
REMARK  Name = *****
REMARK  5 active torsions:
REMARK  status: ('A' for Active; 'I' for Inactive)
REMARK    1  A    between atoms: C_1  and  C_2
REMARK    2  A    between atoms: C_2  and  C_3
REMARK    3  A    between atoms: C_2  and  O_9
REMARK    4  A    between atoms: O_9  and  N_10
REMARK    5  A    between atoms: C_11  and  C_12
REMARK                            x       y       z     vdW  Elec       q    Type
REMARK                         _______ _______ _______ _____ _____    ______ ____
ROOT
ATOM      1  O   UNL     1     100.857 126.695  83.047  0.00  0.00    +0.000 OA
ENDROOT
BRANCH   1   3
ATOM      2  C   UNL     1     102.721 128.236  82.970  0.00  0.00    +0.000 C 
ATOM      3  C   UNL     1     101.965 127.127  82.243  0.00  0.00    +0.000 C 
BRANCH   3   4
ATOM      4  C   UNL     1     102.869 125.936  81.978  0.00  0.00    +0.000 A 
ATOM      5  C   UNL     1     103.330 125.641  80.686  0.00  0.00    +0.000 A 
ATOM      6  C   UNL     1     104.145 124.532  80.455  0.00  0.00    +0.000 A 
ATOM      7  C   UNL     1     104.509 123.702  81.513  0.00  0.00    +0.000 A 
ATOM      8  C   UNL     1     104.058 123.980  82.802  0.00  0.00    +0.000 A 
ATOM      9  C   UNL     1     103.241 125.089  83.033  0.00  0.00    +0.000 A 
ENDBRANCH   3   4
ENDBRANCH   1   3
BRANCH   1  10
ATOM     10  N   UNL     1      99.710 126.581  82.248  0.00  0.00    +0.000 NA
ATOM     11  C   UNL     1      98.789 127.440  82.574  0.00  0.00    +0.000 C 
BRANCH  11  12
ATOM     12  C   UNL     1      98.834 128.531  83.569  0.00  0.00    +0.000 A 
ATOM     13  C   UNL     1      99.351 129.794  83.268  0.00  0.00    +0.000 A 
ATOM     14  C   UNL     1      99.328 130.803  84.233  0.00  0.00    +0.000 A 
ATOM     15  C   UNL     1      98.779 130.555  85.492  0.00  0.00    +0.000 A 
ATOM     16  C   UNL     1      98.244 129.300  85.786  0.00  0.00    +0.000 A 
ATOM     17  C   UNL     1      98.263 128.289  84.824  0.00  0.00    +0.000 A 
ENDBRANCH  11  12
ENDBRANCH   1  10
TORSDOF 4
ENDMDL
