MODEL 1
REMARK VINA RESULT:      -4.3      0.000      0.000
REMARK  Name = *****
REMARK  3 active torsions:
REMARK  status: ('A' for Active; 'I' for Inactive)
REMARK    1  A    between atoms: C_4  and  O_7
REMARK    2  A    between atoms: O_7  and  C_8
REMARK    3  A    between atoms: C_8  and  C_9
REMARK                            x       y       z     vdW  Elec       q    Type
REMARK                         _______ _______ _______ _____ _____    ______ ____
ROOT
ATOM      1  C   UNL     1     103.361 127.671  82.273  0.00  0.00    +0.000 C 
ENDROOT
BRANCH   1   2
ATOM      2  C   UNL     1     103.777 126.299  81.794  0.00  0.00    +0.000 A 
ATOM      3  C   UNL     1     103.877 125.233  82.701  0.00  0.00    +0.000 A 
ATOM      4  C   UNL     1     104.246 123.959  82.264  0.00  0.00    +0.000 A 
ATOM      5  C   UNL     1     104.516 123.744  80.914  0.00  0.00    +0.000 A 
ATOM      6  C   UNL     1     104.420 124.790  80.001  0.00  0.00    +0.000 A 
ATOM      7  C   UNL     1     104.050 126.064  80.438  0.00  0.00    +0.000 A 
ATOM      8 CL   UNL     1     104.970 122.174  80.373  0.00  0.00    +0.000 Cl
ENDBRANCH   1   2
BRANCH   1   9
ATOM      9  O   UNL     1     102.520 127.518  83.413  0.00  0.00    +0.000 OA
BRANCH   9  13
ATOM     10  C   UNL     1      98.437 128.041  82.776  0.00  0.00    +0.000 A 
ATOM     11  C   UNL     1      99.151 129.081  83.368  0.00  0.00    +0.000 A 
ATOM     12  C   UNL     1     100.524 128.951  83.602  0.00  0.00    +0.000 A 
ATOM     13  C   UNL     1     101.187 127.777  83.243  0.00  0.00    +0.000 A 
ATOM     14  C   UNL     1     100.465 126.738  82.649  0.00  0.00    +0.000 A 
ATOM     15  C   UNL     1      99.094 126.867  82.416  0.00  0.00    +0.000 A 
ENDBRANCH   9  13
ENDBRANCH   1   9
TORSDOF 3
ENDMDL
