REMARK  Name = *****
REMARK  2 active torsions:
REMARK  status: ('A' for Active; 'I' for Inactive)
REMARK    1  A    between atoms: C_4  and  C_7
REMARK    2  A    between atoms: C_8  and  C_10
REMARK                            x       y       z     vdW  Elec       q    Type
REMARK                         _______ _______ _______ _____ _____    ______ ____
ROOT
ATOM      1  C   UNL     1       3.068  -0.457  -0.628  0.00  0.00    +0.000 C 
ATOM      2  C   UNL     1       2.650  -1.913  -0.651  0.00  0.00    +0.000 C 
ATOM      3  O   UNL     1       1.691  -0.837  -0.690  0.00  0.00    +0.000 OA
ENDROOT
BRANCH   1   7
ATOM      4  C   UNL     1       5.109   2.192   2.131  0.00  0.00    +0.000 C 
ATOM      5  C   UNL     1       3.621   2.419   1.882  0.00  0.00    +0.000 C 
ATOM      6  C   UNL     1       3.145   1.703   0.621  0.00  0.00    +0.000 C 
ATOM      7  C   UNL     1       3.479   0.205   0.657  0.00  0.00    +0.000 C 
ATOM      8  C   UNL     1       4.978  -0.013   0.908  0.00  0.00    +0.000 C 
ATOM      9  C   UNL     1       5.451   0.705   2.169  0.00  0.00    +0.000 C 
ENDBRANCH   1   7
BRANCH   2  10
ATOM     10  C   UNL     1       2.856  -2.721  -1.905  0.00  0.00    +0.000 A 
ATOM     11  C   UNL     1       4.144  -3.116  -2.308  0.00  0.00    +0.000 A 
ATOM     12  C   UNL     1       4.344  -3.875  -3.464  0.00  0.00    +0.000 A 
ATOM     13  C   UNL     1       3.255  -4.259  -4.241  0.00  0.00    +0.000 A 
ATOM     14  C   UNL     1       1.969  -3.885  -3.862  0.00  0.00    +0.000 A 
ATOM     15  C   UNL     1       1.775  -3.126  -2.705  0.00  0.00    +0.000 A 
ENDBRANCH   2  10
TORSDOF 2
