MODEL 1
REMARK VINA RESULT:      -4.5      0.000      0.000
REMARK  Name = *****
REMARK  4 active torsions:
REMARK  status: ('A' for Active; 'I' for Inactive)
REMARK    1  A    between atoms: C_1  and  C_2
REMARK    2  A    between atoms: C_3  and  C_9
REMARK    3  A    between atoms: C_9  and  C_10
REMARK    4  A    between atoms: C_10  and  C_11
REMARK                            x       y       z     vdW  Elec       q    Type
REMARK                         _______ _______ _______ _____ _____    ______ ____
ROOT
ATOM      1  C   UNL     1      86.671  67.396  88.277  0.00  0.00    +0.000 C 
ATOM      2  C   UNL     1      87.352  66.081  88.313  0.00  0.00    +0.000 C 
ATOM      3  C   UNL     1      88.210  65.485  87.471  0.00  0.00    +0.000 C 
ATOM      4  C   UNL     1      88.653  64.116  87.917  0.00  0.00    +0.000 C 
ATOM      5  C   UNL     1      87.995  63.903  89.279  0.00  0.00    +0.000 C 
ATOM      6  C   UNL     1      87.155  65.141  89.440  0.00  0.00    +0.000 C 
ATOM      7  O   UNL     1      86.393  65.375  90.367  0.00  0.00    +0.000 OA
ATOM      8 CL   UNL     1      89.188  63.824  90.590  0.00  0.00    +0.000 Cl
ENDROOT
BRANCH   3   9
ATOM      9  C   UNL     1      88.711  66.028  86.163  0.00  0.00    +0.000 C 
BRANCH   9  10
ATOM     10  C   UNL     1      90.031  66.791  86.319  0.00  0.00    +0.000 C 
BRANCH  10  11
ATOM     11  C   UNL     1      89.866  68.255  85.995  0.00  0.00    +0.000 A 
ATOM     12  C   UNL     1      89.959  68.703  84.670  0.00  0.00    +0.000 A 
ATOM     13  C   UNL     1      89.826  70.060  84.372  0.00  0.00    +0.000 A 
ATOM     14  C   UNL     1      89.603  70.981  85.394  0.00  0.00    +0.000 A 
ATOM     15  C   UNL     1      89.513  70.546  86.714  0.00  0.00    +0.000 A 
ATOM     16  C   UNL     1      89.646  69.189  87.015  0.00  0.00    +0.000 A 
ENDBRANCH  10  11
ENDBRANCH   9  10
ENDBRANCH   3   9
TORSDOF 3
ENDMDL
