MODEL 1
REMARK VINA RESULT:      -4.2      0.000      0.000
REMARK  Name = *****
REMARK  3 active torsions:
REMARK  status: ('A' for Active; 'I' for Inactive)
REMARK    1  A    between atoms: C_4  and  C_6
REMARK    2  A    between atoms: C_6  and  O_8
REMARK    3  A    between atoms: O_8  and  C_9
REMARK                            x       y       z     vdW  Elec       q    Type
REMARK                         _______ _______ _______ _____ _____    ______ ____
ROOT
ATOM      1  O   UNL     1      90.231  68.233  86.648  0.00  0.00    +0.000 OA
ENDROOT
BRANCH   1   2
ATOM      2  C   UNL     1      90.016  66.891  86.327  0.00  0.00    +0.000 A 
ATOM      3  C   UNL     1      88.867  66.228  86.770  0.00  0.00    +0.000 A 
ATOM      4  C   UNL     1      88.693  64.877  86.463  0.00  0.00    +0.000 A 
ATOM      5  C   UNL     1      89.670  64.198  85.728  0.00  0.00    +0.000 A 
ATOM      6  C   UNL     1      90.820  64.870  85.308  0.00  0.00    +0.000 A 
ATOM      7  C   UNL     1      91.006  66.217  85.610  0.00  0.00    +0.000 A 
ATOM      8 CL   UNL     1      92.023  64.022  84.417  0.00  0.00    +0.000 Cl
ATOM      9 CL   UNL     1      87.663  67.037  87.702  0.00  0.00    +0.000 Cl
ENDBRANCH   1   2
BRANCH   1  10
ATOM     10  C   UNL     1      89.733  69.098  85.674  0.00  0.00    +0.000 C 
ATOM     11  O   UNL     1      89.663  68.863  84.475  0.00  0.00    +0.000 OA
BRANCH  10  15
ATOM     12  C   UNL     1      86.959  70.549  87.012  0.00  0.00    +0.000 C 
ATOM     13  C   UNL     1      87.808  70.850  88.232  0.00  0.00    +0.000 C 
ATOM     14  C   UNL     1      89.162  70.249  87.881  0.00  0.00    +0.000 C 
ATOM     15  C   UNL     1      89.291  70.384  86.355  0.00  0.00    +0.000 C 
ATOM     16  C   UNL     1      87.908  70.824  85.854  0.00  0.00    +0.000 C 
ENDBRANCH  10  15
ENDBRANCH   1  10
TORSDOF 3
ENDMDL
