MODEL 1
REMARK VINA RESULT:      -4.6      0.000      0.000
REMARK  Name = *****
REMARK  3 active torsions:
REMARK  status: ('A' for Active; 'I' for Inactive)
REMARK    1  A    between atoms: C_1  and  C_2
REMARK    2  A    between atoms: C_3  and  N_9
REMARK    3  A    between atoms: C_10  and  C_11
REMARK                            x       y       z     vdW  Elec       q    Type
REMARK                         _______ _______ _______ _____ _____    ______ ____
ROOT
ATOM      1  C   UNL     1     103.912 125.599  79.915  0.00  0.00    +0.000 C 
ATOM      2  C   UNL     1     104.168 124.598  81.005  0.00  0.00    +0.000 A 
ATOM      3  C   UNL     1     103.714 124.832  82.316  0.00  0.00    +0.000 A 
ATOM      4  C   UNL     1     103.939 123.870  83.309  0.00  0.00    +0.000 A 
ATOM      5  C   UNL     1     104.638 122.697  83.020  0.00  0.00    +0.000 A 
ATOM      6  C   UNL     1     105.105 122.478  81.728  0.00  0.00    +0.000 A 
ATOM      7  C   UNL     1     104.875 123.418  80.723  0.00  0.00    +0.000 A 
ATOM      8 CL   UNL     1     105.972 121.035  81.366  0.00  0.00    +0.000 Cl
ENDROOT
BRANCH   3   9
ATOM      9  N   UNL     1     103.000 125.996  82.638  0.00  0.00    +0.000 NA
ATOM     10  C   UNL     1     101.710 125.919  82.529  0.00  0.00    +0.000 C 
BRANCH  10  11
ATOM     11  C   UNL     1     100.830 127.061  82.839  0.00  0.00    +0.000 A 
ATOM     12  C   UNL     1      99.470 127.024  82.519  0.00  0.00    +0.000 A 
ATOM     13  C   UNL     1      98.656 128.117  82.821  0.00  0.00    +0.000 A 
ATOM     14  C   UNL     1      99.202 129.242  83.441  0.00  0.00    +0.000 A 
ATOM     15  C   UNL     1     100.560 129.277  83.760  0.00  0.00    +0.000 A 
ATOM     16  C   UNL     1     101.378 128.187  83.459  0.00  0.00    +0.000 A 
ENDBRANCH  10  11
ENDBRANCH   3   9
TORSDOF 2
ENDMDL
