MODEL 1
REMARK VINA RESULT:      -4.5      0.000      0.000
REMARK  Name = *****
REMARK  4 active torsions:
REMARK  status: ('A' for Active; 'I' for Inactive)
REMARK    1  A    between atoms: C_1  and  C_2
REMARK    2  A    between atoms: C_7  and  C_8
REMARK    3  A    between atoms: C_9  and  S_10
REMARK    4  A    between atoms: S_10  and  C_11
REMARK                            x       y       z     vdW  Elec       q    Type
REMARK                         _______ _______ _______ _____ _____    ______ ____
ROOT
ATOM      1  C   UNL     1      87.294  70.995  88.402  0.00  0.00    +0.000 C 
ATOM      2  C   UNL     1      87.452  69.736  88.840  0.00  0.00    +0.000 C 
ENDROOT
BRANCH   1   9
ATOM      3  C   UNL     1      84.619  72.152  88.959  0.00  0.00    +0.000 C 
ATOM      4  C   UNL     1      85.153  72.004  87.560  0.00  0.00    +0.000 A 
ATOM      5  C   UNL     1      84.365  72.422  86.475  0.00  0.00    +0.000 A 
ATOM      6  C   UNL     1      84.826  72.287  85.165  0.00  0.00    +0.000 A 
ATOM      7  C   UNL     1      86.078  71.732  84.920  0.00  0.00    +0.000 A 
ATOM      8  C   UNL     1      86.871  71.311  85.987  0.00  0.00    +0.000 A 
ATOM      9  C   UNL     1      86.419  71.441  87.309  0.00  0.00    +0.000 A 
ENDBRANCH   1   9
BRANCH   2  10
ATOM     10  S   UNL     1      86.619  68.359  88.196  0.00  0.00    +0.000 S 
BRANCH  10  11
ATOM     11  C   UNL     1      87.985  67.557  87.377  0.00  0.00    +0.000 A 
ATOM     12  C   UNL     1      88.969  68.321  86.742  0.00  0.00    +0.000 A 
ATOM     13  C   UNL     1      90.041  67.694  86.102  0.00  0.00    +0.000 A 
ATOM     14  C   UNL     1      90.134  66.303  86.099  0.00  0.00    +0.000 A 
ATOM     15  C   UNL     1      89.159  65.537  86.736  0.00  0.00    +0.000 A 
ATOM     16  C   UNL     1      88.088  66.163  87.377  0.00  0.00    +0.000 A 
ENDBRANCH  10  11
ENDBRANCH   2  10
TORSDOF 3
ENDMDL
