MODEL 1
REMARK VINA RESULT:      -4.7      0.000      0.000
REMARK  Name = *****
REMARK  5 active torsions:
REMARK  status: ('A' for Active; 'I' for Inactive)
REMARK    1  A    between atoms: C_1  and  C_2
REMARK    2  A    between atoms: C_2  and  C_3
REMARK    3  A    between atoms: C_2  and  O_9
REMARK    4  A    between atoms: O_9  and  C_10
REMARK    5  A    between atoms: C_10  and  C_12
REMARK                            x       y       z     vdW  Elec       q    Type
REMARK                         _______ _______ _______ _____ _____    ______ ____
ROOT
ATOM      1  O   UNL     1     103.422 125.385  80.459  0.00  0.00    +0.000 OA
ENDROOT
BRANCH   1   3
ATOM      2  C   UNL     1     103.790 127.715  79.867  0.00  0.00    +0.000 C 
ATOM      3  C   UNL     1     103.726 126.685  80.995  0.00  0.00    +0.000 C 
BRANCH   3   4
ATOM      4  C   UNL     1     102.635 127.029  81.993  0.00  0.00    +0.000 A 
ATOM      5  C   UNL     1     101.541 126.174  82.201  0.00  0.00    +0.000 A 
ATOM      6  C   UNL     1     100.541 126.506  83.118  0.00  0.00    +0.000 A 
ATOM      7  C   UNL     1     100.623 127.695  83.839  0.00  0.00    +0.000 A 
ATOM      8  C   UNL     1     101.702 128.553  83.643  0.00  0.00    +0.000 A 
ATOM      9  C   UNL     1     102.703 128.224  82.726  0.00  0.00    +0.000 A 
ENDBRANCH   3   4
ENDBRANCH   1   3
BRANCH   1  10
ATOM     10  C   UNL     1     104.486 124.589  80.201  0.00  0.00    +0.000 C 
ATOM     11  O   UNL     1     105.313 124.756  79.320  0.00  0.00    +0.000 OA
BRANCH  10  12
ATOM     12  C   UNL     1     104.515 123.441  81.148  0.00  0.00    +0.000 A 
ATOM     13  C   UNL     1     104.679 122.151  80.620  0.00  0.00    +0.000 A 
ATOM     14  C   UNL     1     104.716 121.041  81.469  0.00  0.00    +0.000 A 
ATOM     15  C   UNL     1     104.593 121.218  82.846  0.00  0.00    +0.000 A 
ATOM     16  C   UNL     1     104.432 122.495  83.383  0.00  0.00    +0.000 A 
ATOM     17  C   UNL     1     104.394 123.607  82.536  0.00  0.00    +0.000 A 
ATOM     18 CL   UNL     1     104.641 119.853  83.891  0.00  0.00    +0.000 Cl
ENDBRANCH  10  12
ENDBRANCH   1  10
TORSDOF 4
ENDMDL
