MODEL 1
REMARK VINA RESULT:      -4.4      0.000      0.000
REMARK  Name = *****
REMARK  6 active torsions:
REMARK  status: ('A' for Active; 'I' for Inactive)
REMARK    1  A    between atoms: C_1  and  C_2
REMARK    2  A    between atoms: C_7  and  O_8
REMARK    3  A    between atoms: O_8  and  C_9
REMARK    4  A    between atoms: C_9  and  O_11
REMARK    5  A    between atoms: O_11  and  C_12
REMARK    6  A    between atoms: C_17  and  C_18
REMARK                            x       y       z     vdW  Elec       q    Type
REMARK                         _______ _______ _______ _____ _____    ______ ____
ROOT
ATOM      1  C   UNL     1      89.723  69.076  85.568  0.00  0.00    +0.000 C 
ATOM      2  O   UNL     1      89.451  68.817  84.403  0.00  0.00    +0.000 OA
ENDROOT
BRANCH   1   3
ATOM      3  O   UNL     1      90.185  68.183  86.525  0.00  0.00    +0.000 OA
BRANCH   3  10
ATOM      4  C   UNL     1      91.256  65.729  85.429  0.00  0.00    +0.000 C 
ATOM      5  C   UNL     1      89.895  65.821  86.052  0.00  0.00    +0.000 A 
ATOM      6  C   UNL     1      89.078  64.685  86.135  0.00  0.00    +0.000 A 
ATOM      7  C   UNL     1      87.812  64.760  86.724  0.00  0.00    +0.000 A 
ATOM      8  C   UNL     1      87.346  65.969  87.241  0.00  0.00    +0.000 A 
ATOM      9  C   UNL     1      88.148  67.105  87.179  0.00  0.00    +0.000 A 
ATOM     10  C   UNL     1      89.419  67.017  86.608  0.00  0.00    +0.000 A 
ENDBRANCH   3  10
ENDBRANCH   1   3
BRANCH   1  11
ATOM     11  O   UNL     1      89.619  70.315  86.183  0.00  0.00    +0.000 OA
BRANCH  11  12
ATOM     12  C   UNL     1      88.299  70.733  86.373  0.00  0.00    +0.000 A 
ATOM     13  C   UNL     1      87.561  71.153  85.264  0.00  0.00    +0.000 A 
ATOM     14  C   UNL     1      86.259  71.612  85.444  0.00  0.00    +0.000 A 
ATOM     15  C   UNL     1      85.711  71.664  86.726  0.00  0.00    +0.000 A 
ATOM     16  C   UNL     1      86.465  71.261  87.834  0.00  0.00    +0.000 A 
ATOM     17  C   UNL     1      87.777  70.801  87.672  0.00  0.00    +0.000 A 
ATOM     18  C   UNL     1      88.585  70.370  88.860  0.00  0.00    +0.000 C 
ENDBRANCH  11  12
ENDBRANCH   1  11
TORSDOF 4
ENDMDL
