MODEL 1
REMARK VINA RESULT:      -4.6      0.000      0.000
REMARK  Name = *****
REMARK  5 active torsions:
REMARK  status: ('A' for Active; 'I' for Inactive)
REMARK    1  A    between atoms: C_1  and  C_2
REMARK    2  A    between atoms: C_2  and  O_3
REMARK    3  A    between atoms: O_3  and  C_4
REMARK    4  A    between atoms: C_7  and  C_10
REMARK    5  A    between atoms: C_11  and  C_12
REMARK                            x       y       z     vdW  Elec       q    Type
REMARK                         _______ _______ _______ _____ _____    ______ ____
ROOT
ATOM      1  C   UNL     1      86.974  62.520  88.597  0.00  0.00    +0.000 A 
ATOM      2  C   UNL     1      87.854  63.320  89.324  0.00  0.00    +0.000 A 
ATOM      3  C   UNL     1      88.198  64.596  88.854  0.00  0.00    +0.000 A 
ATOM      4  C   UNL     1      87.678  65.082  87.649  0.00  0.00    +0.000 A 
ATOM      5  C   UNL     1      86.783  64.279  86.934  0.00  0.00    +0.000 A 
ATOM      6  C   UNL     1      86.440  63.007  87.404  0.00  0.00    +0.000 A 
ENDROOT
BRANCH   4   7
ATOM      7  C   UNL     1      87.989  66.427  87.142  0.00  0.00    +0.000 C 
ATOM      8  C   UNL     1      89.169  66.766  86.598  0.00  0.00    +0.000 C 
BRANCH   8   9
ATOM      9  C   UNL     1      89.472  68.107  86.075  0.00  0.00    +0.000 A 
ATOM     10  C   UNL     1      89.762  68.332  84.720  0.00  0.00    +0.000 A 
ATOM     11  C   UNL     1      90.015  69.625  84.255  0.00  0.00    +0.000 A 
ATOM     12  C   UNL     1      89.966  70.694  85.141  0.00  0.00    +0.000 A 
ATOM     13  C   UNL     1      89.665  70.495  86.483  0.00  0.00    +0.000 A 
ATOM     14  C   UNL     1      89.413  69.203  86.949  0.00  0.00    +0.000 A 
ATOM     15  F   UNL     1      90.206  71.934  84.694  0.00  0.00    +0.000 F 
ENDBRANCH   8   9
ENDBRANCH   4   7
BRANCH   1  16
ATOM     16  O   UNL     1      86.556  61.264  88.940  0.00  0.00    +0.000 OA
BRANCH  16  18
ATOM     17  C   UNL     1      85.563  59.831  90.562  0.00  0.00    +0.000 C 
ATOM     18  C   UNL     1      85.464  61.169  89.853  0.00  0.00    +0.000 C 
ENDBRANCH  16  18
ENDBRANCH   1  16
TORSDOF 4
ENDMDL
