MODEL 1
REMARK VINA RESULT:      -4.7      0.000      0.000
REMARK  Name = *****
REMARK  4 active torsions:
REMARK  status: ('A' for Active; 'I' for Inactive)
REMARK    1  A    between atoms: C_8  and  C_9
REMARK    2  A    between atoms: C_9  and  O_11
REMARK    3  A    between atoms: O_11  and  C_12
REMARK    4  A    between atoms: C_12  and  C_13
REMARK                            x       y       z     vdW  Elec       q    Type
REMARK                         _______ _______ _______ _____ _____    ______ ____
ROOT
ATOM      1  C   UNL     1     103.309 126.475  80.687  0.00  0.00    +0.000 C 
ATOM      2  O   UNL     1     103.403 127.389  79.881  0.00  0.00    +0.000 OA
ENDROOT
BRANCH   1  10
ATOM      3  C   UNL     1     102.065 127.428  84.782  0.00  0.00    +0.000 C 
ATOM      4  C   UNL     1     102.167 125.946  84.350  0.00  0.00    +0.000 C 
ATOM      5  C   UNL     1     102.067 125.837  82.810  0.00  0.00    +0.000 C 
ATOM      6  C   UNL     1     100.778 126.527  82.402  0.00  0.00    +0.000 C 
ATOM      7  C   UNL     1     100.700 127.817  82.768  0.00  0.00    +0.000 C 
ATOM      8  C   UNL     1     101.902 128.327  83.536  0.00  0.00    +0.000 C 
ATOM      9  C   UNL     1     103.147 128.127  82.642  0.00  0.00    +0.000 C 
ATOM     10  C   UNL     1     103.252 126.636  82.202  0.00  0.00    +0.000 C 
ENDBRANCH   1  10
BRANCH   1  11
ATOM     11  O   UNL     1     103.307 125.152  80.365  0.00  0.00    +0.000 OA
BRANCH  11  12
ATOM     12  C   UNL     1     104.588 124.517  80.284  0.00  0.00    +0.000 C 
BRANCH  12  13
ATOM     13  C   UNL     1     104.572 123.284  81.149  0.00  0.00    +0.000 A 
ATOM     14  C   UNL     1     104.536 123.394  82.546  0.00  0.00    +0.000 A 
ATOM     15  C   UNL     1     104.521 122.249  83.344  0.00  0.00    +0.000 A 
ATOM     16  C   UNL     1     104.552 120.986  82.756  0.00  0.00    +0.000 A 
ATOM     17  C   UNL     1     104.608 120.866  81.368  0.00  0.00    +0.000 A 
ATOM     18  C   UNL     1     104.623 122.010  80.567  0.00  0.00    +0.000 A 
ENDBRANCH  12  13
ENDBRANCH  11  12
ENDBRANCH   1  11
TORSDOF 4
ENDMDL
