REMARK  Name = *****
REMARK  2 active torsions:
REMARK  status: ('A' for Active; 'I' for Inactive)
REMARK    1  A    between atoms: C_4  and  C_7
REMARK    2  A    between atoms: C_8  and  C_10
REMARK                            x       y       z     vdW  Elec       q    Type
REMARK                         _______ _______ _______ _____ _____    ______ ____
ROOT
ATOM      1  C   UNL     1      -2.543   0.480   0.098  0.00  0.00    +0.000 C 
ATOM      2  C   UNL     1      -3.802   0.314   0.933  0.00  0.00    +0.000 C 
ATOM      3  S   UNL     1      -3.750  -0.578  -0.550  0.00  0.00    +0.000 S 
ENDROOT
BRANCH   1   7
ATOM      4  C   UNL     1      -1.744   4.213  -1.978  0.00  0.00    +0.000 A 
ATOM      5  C   UNL     1      -2.112   4.221  -0.636  0.00  0.00    +0.000 A 
ATOM      6  C   UNL     1      -2.375   3.017   0.024  0.00  0.00    +0.000 A 
ATOM      7  C   UNL     1      -2.288   1.778  -0.637  0.00  0.00    +0.000 A 
ATOM      8  C   UNL     1      -1.897   1.802  -1.989  0.00  0.00    +0.000 A 
ATOM      9  C   UNL     1      -1.634   3.002  -2.655  0.00  0.00    +0.000 A 
ENDBRANCH   1   7
BRANCH   2  10
ATOM     10  C   UNL     1      -3.755  -0.474   2.223  0.00  0.00    +0.000 A 
ATOM     11  C   UNL     1      -2.780  -0.206   3.203  0.00  0.00    +0.000 A 
ATOM     12  C   UNL     1      -2.744  -0.906   4.412  0.00  0.00    +0.000 A 
ATOM     13  C   UNL     1      -3.693  -1.889   4.676  0.00  0.00    +0.000 A 
ATOM     14  C   UNL     1      -4.679  -2.166   3.734  0.00  0.00    +0.000 A 
ATOM     15  C   UNL     1      -4.710  -1.462   2.527  0.00  0.00    +0.000 A 
ENDBRANCH   2  10
TORSDOF 2
