REMARK  Name = *****
REMARK  2 active torsions:
REMARK  status: ('A' for Active; 'I' for Inactive)
REMARK    1  A    between atoms: C_2  and  C_11
REMARK    2  A    between atoms: N_3  and  C_4
REMARK                            x       y       z     vdW  Elec       q    Type
REMARK                         _______ _______ _______ _____ _____    ______ ____
ROOT
ATOM      1  C   UNL     1       0.087   0.542  -0.837  0.00  0.00    +0.000 C 
ATOM      2  C   UNL     1       0.988  -0.520  -0.272  0.00  0.00    +0.000 C 
ATOM      3  N   UNL     1      -0.225  -0.868  -1.050  0.00  0.00    +0.000 N 
ENDROOT
BRANCH   3   4
ATOM      4  C   UNL     1      -1.392  -1.425  -0.468  0.00  0.00    +0.000 A 
ATOM      5  C   UNL     1      -2.045  -0.957   0.682  0.00  0.00    +0.000 A 
ATOM      6  C   UNL     1      -3.197  -1.591   1.166  0.00  0.00    +0.000 A 
ATOM      7  C   UNL     1      -3.713  -2.697   0.499  0.00  0.00    +0.000 A 
ATOM      8  C   UNL     1      -3.091  -3.176  -0.648  0.00  0.00    +0.000 A 
ATOM      9  C   UNL     1      -1.941  -2.540  -1.125  0.00  0.00    +0.000 A 
ATOM     10 CL   UNL     1      -5.126  -3.476   1.097  0.00  0.00    +0.000 Cl
ENDBRANCH   3   4
BRANCH   2  11
ATOM     11  C   UNL     1       1.126  -0.806   1.206  0.00  0.00    +0.000 A 
ATOM     12  C   UNL     1       0.995  -2.129   1.679  0.00  0.00    +0.000 A 
ATOM     13  C   UNL     1       1.131  -2.451   3.032  0.00  0.00    +0.000 A 
ATOM     14  C   UNL     1       1.424  -1.456   3.956  0.00  0.00    +0.000 A 
ATOM     15  C   UNL     1       1.593  -0.144   3.522  0.00  0.00    +0.000 A 
ATOM     16  C   UNL     1       1.455   0.174   2.164  0.00  0.00    +0.000 A 
ATOM     17 CL   UNL     1       1.736   1.819   1.707  0.00  0.00    +0.000 Cl
ENDBRANCH   2  11
TORSDOF 2
