REMARK  Name = *****
REMARK  4 active torsions:
REMARK  status: ('A' for Active; 'I' for Inactive)
REMARK    1  A    between atoms: C_4  and  C_7
REMARK    2  A    between atoms: C_7  and  O_8
REMARK    3  A    between atoms: O_8  and  C_9
REMARK    4  A    between atoms: C_13  and  C_15
REMARK                            x       y       z     vdW  Elec       q    Type
REMARK                         _______ _______ _______ _____ _____    ______ ____
ROOT
ATOM      1  C   UNL     1      -4.905  -0.723  -0.502  0.00  0.00    +0.000 A 
ATOM      2  C   UNL     1      -5.632   0.411  -0.862  0.00  0.00    +0.000 A 
ATOM      3  C   UNL     1      -6.966   0.293  -1.259  0.00  0.00    +0.000 A 
ATOM      4  C   UNL     1      -7.582  -0.958  -1.298  0.00  0.00    +0.000 A 
ATOM      5  C   UNL     1      -6.867  -2.108  -0.938  0.00  0.00    +0.000 A 
ATOM      6  C   UNL     1      -5.528  -1.974  -0.537  0.00  0.00    +0.000 A 
ENDROOT
BRANCH   5   7
ATOM      7  C   UNL     1      -7.507  -3.473  -0.969  0.00  0.00    +0.000 C 
ATOM      8  F   UNL     1      -8.793  -3.461  -1.422  0.00  0.00    +0.000 F 
ATOM      9  F   UNL     1      -6.839  -4.345  -1.775  0.00  0.00    +0.000 F 
ATOM     10  F   UNL     1      -7.551  -4.058   0.259  0.00  0.00    +0.000 F 
ENDBRANCH   5   7
BRANCH   1  11
ATOM     11  O   UNL     1      -3.601  -0.750  -0.095  0.00  0.00    +0.000 OA
BRANCH  11  12
ATOM     12  C   UNL     1      -2.874   0.479  -0.153  0.00  0.00    +0.000 C 
BRANCH  12  16
ATOM     13  C   UNL     1       1.283  -0.081   0.888  0.00  0.00    +0.000 A 
ATOM     14  C   UNL     1       0.581  -1.112   0.267  0.00  0.00    +0.000 A 
ATOM     15  C   UNL     1      -0.765  -0.942  -0.063  0.00  0.00    +0.000 A 
ATOM     16  C   UNL     1      -1.429   0.257   0.237  0.00  0.00    +0.000 A 
ATOM     17  C   UNL     1      -0.705   1.292   0.848  0.00  0.00    +0.000 A 
ATOM     18  C   UNL     1       0.642   1.121   1.176  0.00  0.00    +0.000 A 
ENDBRANCH  12  16
ENDBRANCH  11  12
ENDBRANCH   1  11
TORSDOF 4
