REMARK  Name = *****
REMARK  5 active torsions:
REMARK  status: ('A' for Active; 'I' for Inactive)
REMARK    1  A    between atoms: C_1  and  C_2
REMARK    2  A    between atoms: C_4  and  C_16
REMARK    3  A    between atoms: C_6  and  C_8
REMARK    4  A    between atoms: C_8  and  C_9
REMARK    5  A    between atoms: C_9  and  C_10
REMARK                            x       y       z     vdW  Elec       q    Type
REMARK                         _______ _______ _______ _____ _____    ______ ____
ROOT
ATOM      1  C   UNL     1       2.515   1.110   0.034  0.00  0.00    +0.000 C 
ATOM      2  C   UNL     1       1.233   0.332  -0.016  0.00  0.00    +0.000 A 
ATOM      3  C   UNL     1       1.253  -1.069  -0.003  0.00  0.00    +0.000 A 
ATOM      4  C   UNL     1       0.061  -1.804  -0.022  0.00  0.00    +0.000 A 
ATOM      5  C   UNL     1      -1.162  -1.122  -0.018  0.00  0.00    +0.000 A 
ATOM      6  C   UNL     1      -1.202   0.279  -0.021  0.00  0.00    +0.000 A 
ATOM      7  C   UNL     1       0.001   0.997  -0.012  0.00  0.00    +0.000 A 
ATOM      8  C   UNL     1       0.092  -3.303   0.021  0.00  0.00    +0.000 C 
ENDROOT
BRANCH   6   9
ATOM      9  C   UNL     1      -2.525   1.005   0.008  0.00  0.00    +0.000 C 
BRANCH   9  10
ATOM     10  C   UNL     1      -2.996   1.261   1.442  0.00  0.00    +0.000 C 
BRANCH  10  11
ATOM     11  C   UNL     1      -4.319   1.986   1.471  0.00  0.00    +0.000 A 
ATOM     12  C   UNL     1      -5.523   1.269   1.469  0.00  0.00    +0.000 A 
ATOM     13  C   UNL     1      -6.746   1.941   1.477  0.00  0.00    +0.000 A 
ATOM     14  C   UNL     1      -6.777   3.334   1.482  0.00  0.00    +0.000 A 
ATOM     15  C   UNL     1      -5.585   4.057   1.478  0.00  0.00    +0.000 A 
ATOM     16  C   UNL     1      -4.361   3.387   1.471  0.00  0.00    +0.000 A 
ENDBRANCH  10  11
ENDBRANCH   9  10
ENDBRANCH   6   9
TORSDOF 3
