MODEL 1
REMARK VINA RESULT:      -4.7      0.000      0.000
REMARK  Name = *****
REMARK  3 active torsions:
REMARK  status: ('A' for Active; 'I' for Inactive)
REMARK    1  A    between atoms: C_1  and  C_2
REMARK    2  A    between atoms: C_5  and  C_10
REMARK    3  A    between atoms: C_11  and  C_12
REMARK                            x       y       z     vdW  Elec       q    Type
REMARK                         _______ _______ _______ _____ _____    ______ ____
ROOT
ATOM      1  C   UNL     1     107.038 121.914  80.799  0.00  0.00    +0.000 C 
ATOM      2  C   UNL     1     105.906 122.838  81.123  0.00  0.00    +0.000 A 
ATOM      3  C   UNL     1     105.394 123.733  80.181  0.00  0.00    +0.000 A 
ATOM      4  C   UNL     1     104.339 124.589  80.498  0.00  0.00    +0.000 A 
ATOM      5  C   UNL     1     103.768 124.570  81.770  0.00  0.00    +0.000 A 
ATOM      6  C   UNL     1     104.273 123.680  82.717  0.00  0.00    +0.000 A 
ATOM      7  C   UNL     1     105.328 122.827  82.394  0.00  0.00    +0.000 A 
ATOM      8  F   UNL     1     105.796 121.980  83.323  0.00  0.00    +0.000 F 
ATOM      9  F   UNL     1     103.749 123.635  83.951  0.00  0.00    +0.000 F 
ATOM     10  F   UNL     1     103.879 125.432  79.561  0.00  0.00    +0.000 F 
ATOM     11  F   UNL     1     105.923 123.775  78.949  0.00  0.00    +0.000 F 
ENDROOT
BRANCH   5  12
ATOM     12  C   UNL     1     102.688 125.446  82.097  0.00  0.00    +0.000 C 
ATOM     13  C   UNL     1     101.780 126.183  82.372  0.00  0.00    +0.000 C 
BRANCH  13  14
ATOM     14  C   UNL     1     100.701 127.056  82.699  0.00  0.00    +0.000 A 
ATOM     15  C   UNL     1      99.380 126.836  82.373  0.00  0.00    +0.000 A 
ATOM     16  C   UNL     1      98.529 127.884  82.835  0.00  0.00    +0.000 A 
ATOM     17  C   UNL     1      99.233 128.864  83.496  0.00  0.00    +0.000 A 
ATOM     18  S   UNL     1     100.908 128.520  83.559  0.00  0.00    +0.000 S 
ENDBRANCH  13  14
ENDBRANCH   5  12
TORSDOF 2
ENDMDL
