MODEL 1
REMARK VINA RESULT:      -4.5      0.000      0.000
REMARK  Name = *****
REMARK  1 active torsions:
REMARK  status: ('A' for Active; 'I' for Inactive)
REMARK    1  A    between atoms: C_4  and  N_7
REMARK                            x       y       z     vdW  Elec       q    Type
REMARK                         _______ _______ _______ _____ _____    ______ ____
ROOT
ATOM      1  N   UNL     1     102.754 126.355  81.726  0.00  0.00    +0.000 N 
ATOM      2  C   UNL     1     103.089 125.037  82.005  0.00  0.00    +0.000 C 
ATOM      3  C   UNL     1     104.114 124.475  81.174  0.00  0.00    +0.000 C 
ATOM      4  C   UNL     1     104.722 123.202  81.136  0.00  0.00    +0.000 C 
ATOM      5  C   UNL     1     105.718 122.939  80.190  0.00  0.00    +0.000 C 
ATOM      6  C   UNL     1     106.116 123.919  79.288  0.00  0.00    +0.000 C 
ATOM      7  C   UNL     1     105.532 125.188  79.303  0.00  0.00    +0.000 C 
ATOM      8  C   UNL     1     104.530 125.454  80.253  0.00  0.00    +0.000 C 
ATOM      9  S   UNL     1     103.642 126.948  80.479  0.00  0.00    +0.000 S 
ENDROOT
BRANCH   1  13
ATOM     10  C   UNL     1      99.802 128.646  83.798  0.00  0.00    +0.000 A 
ATOM     11  C   UNL     1      99.431 127.503  83.093  0.00  0.00    +0.000 A 
ATOM     12  C   UNL     1     100.395 126.750  82.415  0.00  0.00    +0.000 A 
ATOM     13  C   UNL     1     101.737 127.146  82.444  0.00  0.00    +0.000 A 
ATOM     14  C   UNL     1     102.107 128.295  83.156  0.00  0.00    +0.000 A 
ATOM     15  C   UNL     1     101.136 129.041  83.831  0.00  0.00    +0.000 A 
ENDBRANCH   1  13
TORSDOF 1
ENDMDL
