MODEL 1
REMARK VINA RESULT:      -4.6      0.000      0.000
REMARK  Name = *****
REMARK  4 active torsions:
REMARK  status: ('A' for Active; 'I' for Inactive)
REMARK    1  A    between atoms: C_1  and  C_2
REMARK    2  A    between atoms: C_3  and  C_9
REMARK    3  A    between atoms: C_10  and  C_11
REMARK    4  A    between atoms: C_12  and  C_16
REMARK                            x       y       z     vdW  Elec       q    Type
REMARK                         _______ _______ _______ _____ _____    ______ ____
ROOT
ATOM      1  C   UNL     1      85.852  61.388  89.447  0.00  0.00    +0.000 C 
ATOM      2  C   UNL     1      86.492  62.157  88.783  0.00  0.00    +0.000 C 
ENDROOT
BRANCH   1   5
ATOM      3  C   UNL     1      82.960  61.847  89.866  0.00  0.00    +0.000 C 
ATOM      4  C   UNL     1      83.702  60.684  90.468  0.00  0.00    +0.000 A 
ATOM      5  C   UNL     1      85.077  60.479  90.240  0.00  0.00    +0.000 A 
ATOM      6  C   UNL     1      85.723  59.369  90.794  0.00  0.00    +0.000 A 
ATOM      7  C   UNL     1      85.000  58.464  91.561  0.00  0.00    +0.000 A 
ATOM      8  C   UNL     1      83.642  58.640  91.786  0.00  0.00    +0.000 A 
ATOM      9  C   UNL     1      82.992  59.746  91.237  0.00  0.00    +0.000 A 
ATOM     10  F   UNL     1      85.623  57.402  92.089  0.00  0.00    +0.000 F 
ENDBRANCH   1   5
BRANCH   2  11
ATOM     11  C   UNL     1      87.245  63.076  87.989  0.00  0.00    +0.000 A 
ATOM     12  C   UNL     1      88.295  63.860  88.425  0.00  0.00    +0.000 A 
ATOM     13  C   UNL     1      88.834  64.665  87.377  0.00  0.00    +0.000 A 
ATOM     14  C   UNL     1      88.179  64.470  86.182  0.00  0.00    +0.000 A 
ATOM     15  S   UNL     1      86.922  63.320  86.325  0.00  0.00    +0.000 S 
BRANCH  12  16
ATOM     16  C   UNL     1      88.792  63.870  89.770  0.00  0.00    +0.000 C 
ATOM     17  C   UNL     1      89.204  63.876  90.897  0.00  0.00    +0.000 C 
ENDBRANCH  12  16
ENDBRANCH   2  11
TORSDOF 3
ENDMDL
