MODEL 1
REMARK VINA RESULT:      -4.8      0.000      0.000
REMARK  Name = *****
REMARK  4 active torsions:
REMARK  status: ('A' for Active; 'I' for Inactive)
REMARK    1  A    between atoms: C_1  and  O_2
REMARK    2  A    between atoms: O_2  and  C_3
REMARK    3  A    between atoms: C_3  and  C_11
REMARK    4  A    between atoms: C_12  and  C_13
REMARK                            x       y       z     vdW  Elec       q    Type
REMARK                         _______ _______ _______ _____ _____    ______ ____
ROOT
ATOM      1  C   UNL     1      89.340  70.181  86.046  0.00  0.00    +0.000 C 
ATOM      2  C   UNL     1      88.027  70.867  86.410  0.00  0.00    +0.000 C 
ATOM      3  C   UNL     1      89.128  70.784  87.426  0.00  0.00    +0.000 C 
ATOM      4  C   UNL     1      88.436  70.189  88.652  0.00  0.00    +0.000 C 
ATOM      5  C   UNL     1      87.520  71.302  89.228  0.00  0.00    +0.000 C 
ATOM      6  C   UNL     1      86.384  71.381  88.174  0.00  0.00    +0.000 C 
ATOM      7  C   UNL     1      86.811  70.306  87.142  0.00  0.00    +0.000 C 
ATOM      8  C   UNL     1      87.366  69.245  88.097  0.00  0.00    +0.000 C 
ENDROOT
BRANCH   1  10
ATOM      9  C   UNL     1      90.469  70.416  83.919  0.00  0.00    +0.000 C 
ATOM     10  O   UNL     1      90.128  71.028  85.156  0.00  0.00    +0.000 OA
ENDBRANCH   1  10
BRANCH   1  11
ATOM     11  C   UNL     1      89.334  68.728  85.810  0.00  0.00    +0.000 C 
ATOM     12  C   UNL     1      90.129  67.823  86.408  0.00  0.00    +0.000 C 
BRANCH  12  13
ATOM     13  C   UNL     1      90.156  66.379  86.125  0.00  0.00    +0.000 A 
ATOM     14  C   UNL     1      91.239  65.858  85.401  0.00  0.00    +0.000 A 
ATOM     15  C   UNL     1      91.315  64.494  85.105  0.00  0.00    +0.000 A 
ATOM     16  C   UNL     1      90.311  63.630  85.535  0.00  0.00    +0.000 A 
ATOM     17  C   UNL     1      89.238  64.128  86.268  0.00  0.00    +0.000 A 
ATOM     18  C   UNL     1      89.165  65.492  86.568  0.00  0.00    +0.000 A 
ENDBRANCH  12  13
ENDBRANCH   1  11
TORSDOF 3
ENDMDL
