MODEL 1
REMARK VINA RESULT:      -4.2      0.000      0.000
REMARK  Name = *****
REMARK  4 active torsions:
REMARK  status: ('A' for Active; 'I' for Inactive)
REMARK    1  A    between atoms: C_6  and  C_7
REMARK    2  A    between atoms: C_7  and  S_17
REMARK    3  A    between atoms: C_8  and  C_9
REMARK    4  A    between atoms: C_8  and  S_16
REMARK                            x       y       z     vdW  Elec       q    Type
REMARK                         _______ _______ _______ _____ _____    ______ ____
ROOT
ATOM      1  C   UNL     1     102.072 127.774  82.999  0.00  0.00    +0.000 C 
ATOM      2  C   UNL     1     100.730 127.827  83.171  0.00  0.00    +0.000 C 
ENDROOT
BRANCH   1   8
ATOM      3  C   UNL     1     103.116 127.122  80.826  0.00  0.00    +0.000 A 
ATOM      4  C   UNL     1     103.765 126.187  80.018  0.00  0.00    +0.000 A 
ATOM      5  C   UNL     1     104.045 124.921  80.520  0.00  0.00    +0.000 A 
ATOM      6  C   UNL     1     103.688 124.570  81.818  0.00  0.00    +0.000 A 
ATOM      7  C   UNL     1     103.039 125.501  82.630  0.00  0.00    +0.000 A 
ATOM      8  C   UNL     1     102.747 126.784  82.138  0.00  0.00    +0.000 A 
ATOM      9  F   UNL     1     104.668 124.027  79.744  0.00  0.00    +0.000 F 
ENDBRANCH   1   8
BRANCH   2  10
ATOM     10  C   UNL     1     100.068 128.829  84.035  0.00  0.00    +0.000 A 
ATOM     11  C   UNL     1      99.773 128.523  85.375  0.00  0.00    +0.000 A 
ATOM     12  C   UNL     1      99.138 129.465  86.186  0.00  0.00    +0.000 A 
ATOM     13  C   UNL     1      98.800 130.706  85.660  0.00  0.00    +0.000 A 
ATOM     14  C   UNL     1      99.081 131.027  84.337  0.00  0.00    +0.000 A 
ATOM     15  C   UNL     1      99.716 130.087  83.522  0.00  0.00    +0.000 A 
ATOM     16  F   UNL     1      98.190 131.609  86.440  0.00  0.00    +0.000 F 
ENDBRANCH   2  10
BRANCH   2  17
ATOM     17  S   UNL     1      99.580 126.746  82.419  0.00  0.00    +0.000 S 
ATOM     18  H   UNL     1      99.072 127.331  81.301  0.00  0.00    +0.000 HD
ENDBRANCH   2  17
BRANCH   1  19
ATOM     19  S   UNL     1     103.186 128.878  83.778  0.00  0.00    +0.000 S 
ATOM     20  H   UNL     1     103.356 128.508  85.075  0.00  0.00    +0.000 HD
ENDBRANCH   1  19
TORSDOF 4
ENDMDL
