MODEL 1
REMARK VINA RESULT:      -4.9      0.000      0.000
REMARK  Name = *****
REMARK  3 active torsions:
REMARK  status: ('A' for Active; 'I' for Inactive)
REMARK    1  A    between atoms: C_1  and  C_2
REMARK    2  A    between atoms: C_5  and  C_8
REMARK    3  A    between atoms: C_9  and  C_10
REMARK                            x       y       z     vdW  Elec       q    Type
REMARK                         _______ _______ _______ _____ _____    ______ ____
ROOT
ATOM      1  C   UNL     1     102.595 125.911  82.157  0.00  0.00    +0.000 C 
ATOM      2  C   UNL     1     103.385 126.002  81.073  0.00  0.00    +0.000 C 
ATOM      3 CL   UNL     1     103.444 127.397  80.050  0.00  0.00    +0.000 Cl
ENDROOT
BRANCH   1   8
ATOM      4  C   UNL     1      98.978 129.948  84.163  0.00  0.00    +0.000 C 
ATOM      5  C   UNL     1      99.913 128.911  83.613  0.00  0.00    +0.000 A 
ATOM      6  C   UNL     1      99.413 127.784  82.951  0.00  0.00    +0.000 A 
ATOM      7  C   UNL     1     100.284 126.805  82.465  0.00  0.00    +0.000 A 
ATOM      8  C   UNL     1     101.666 126.939  82.637  0.00  0.00    +0.000 A 
ATOM      9  C   UNL     1     102.165 128.053  83.319  0.00  0.00    +0.000 A 
ATOM     10  C   UNL     1     101.294 129.032  83.805  0.00  0.00    +0.000 A 
ENDBRANCH   1   8
BRANCH   2  11
ATOM     11  C   UNL     1     104.280 124.894  80.701  0.00  0.00    +0.000 A 
ATOM     12  C   UNL     1     104.243 123.684  81.409  0.00  0.00    +0.000 A 
ATOM     13  C   UNL     1     105.096 122.634  81.062  0.00  0.00    +0.000 A 
ATOM     14  C   UNL     1     105.992 122.783  80.004  0.00  0.00    +0.000 A 
ATOM     15  C   UNL     1     106.036 123.981  79.292  0.00  0.00    +0.000 A 
ATOM     16  C   UNL     1     105.184 125.031  79.639  0.00  0.00    +0.000 A 
ENDBRANCH   2  11
TORSDOF 2
ENDMDL
