MODEL 1
REMARK VINA RESULT:      -4.2      0.000      0.000
REMARK  Name = *****
REMARK  3 active torsions:
REMARK  status: ('A' for Active; 'I' for Inactive)
REMARK    1  A    between atoms: C_5  and  C_8
REMARK    2  A    between atoms: C_8  and  C_9
REMARK    3  A    between atoms: C_9  and  C_11
REMARK                            x       y       z     vdW  Elec       q    Type
REMARK                         _______ _______ _______ _____ _____    ______ ____
ROOT
ATOM      1  C   UNL     1      89.643  67.779  84.423  0.00  0.00    +0.000 C 
ENDROOT
BRANCH   1   6
ATOM      2  C   UNL     1      89.469  72.441  83.940  0.00  0.00    +0.000 C 
ATOM      3  C   UNL     1      88.021  72.088  84.262  0.00  0.00    +0.000 C 
ATOM      4  C   UNL     1      87.482  70.905  83.465  0.00  0.00    +0.000 C 
ATOM      5  C   UNL     1      87.984  69.567  83.922  0.00  0.00    +0.000 C 
ATOM      6  C   UNL     1      89.271  69.175  83.965  0.00  0.00    +0.000 C 
ATOM      7  C   UNL     1      90.422  70.081  83.586  0.00  0.00    +0.000 C 
ATOM      8  C   UNL     1      90.488  71.391  84.375  0.00  0.00    +0.000 C 
ENDBRANCH   1   6
BRANCH   1   9
ATOM      9  C   UNL     1      89.906  67.718  85.924  0.00  0.00    +0.000 C 
ATOM     10  O   UNL     1      90.781  66.979  86.381  0.00  0.00    +0.000 OA
BRANCH   9  11
ATOM     11  C   UNL     1      89.104  68.558  86.868  0.00  0.00    +0.000 A 
ATOM     12  C   UNL     1      89.541  69.798  87.348  0.00  0.00    +0.000 A 
ATOM     13  C   UNL     1      88.742  70.533  88.229  0.00  0.00    +0.000 A 
ATOM     14  C   UNL     1      87.505  70.039  88.636  0.00  0.00    +0.000 A 
ATOM     15  C   UNL     1      87.059  68.808  88.162  0.00  0.00    +0.000 A 
ATOM     16  C   UNL     1      87.854  68.071  87.281  0.00  0.00    +0.000 A 
ENDBRANCH   9  11
ENDBRANCH   1   9
TORSDOF 3
ENDMDL
