MODEL 1
REMARK VINA RESULT:      -4.5      0.000      0.000
REMARK  Name = *****
REMARK  5 active torsions:
REMARK  status: ('A' for Active; 'I' for Inactive)
REMARK    1  A    between atoms: C_1  and  C_2
REMARK    2  A    between atoms: C_5  and  C_8
REMARK    3  A    between atoms: C_8  and  C_9
REMARK    4  A    between atoms: C_8  and  O_10
REMARK    5  A    between atoms: O_10  and  C_11
REMARK                            x       y       z     vdW  Elec       q    Type
REMARK                         _______ _______ _______ _____ _____    ______ ____
ROOT
ATOM      1  C   UNL     1      87.961  70.394  87.897  0.00  0.00    +0.000 C 
ATOM      2  C   UNL     1      88.412  70.955  89.244  0.00  0.00    +0.000 C 
ENDROOT
BRANCH   1   7
ATOM      3  C   UNL     1      83.164  73.180  86.075  0.00  0.00    +0.000 C 
ATOM      4  C   UNL     1      84.383  72.438  86.538  0.00  0.00    +0.000 A 
ATOM      5  C   UNL     1      84.624  72.252  87.904  0.00  0.00    +0.000 A 
ATOM      6  C   UNL     1      85.776  71.591  88.338  0.00  0.00    +0.000 A 
ATOM      7  C   UNL     1      86.718  71.117  87.414  0.00  0.00    +0.000 A 
ATOM      8  C   UNL     1      86.476  71.314  86.046  0.00  0.00    +0.000 A 
ATOM      9  C   UNL     1      85.325  71.975  85.613  0.00  0.00    +0.000 A 
ENDBRANCH   1   7
BRANCH   1  10
ATOM     10  O   UNL     1      87.712  68.995  88.081  0.00  0.00    +0.000 OA
BRANCH  10  11
ATOM     11  C   UNL     1      88.179  68.168  87.010  0.00  0.00    +0.000 C 
ATOM     12  C   UNL     1      88.117  66.718  87.499  0.00  0.00    +0.000 C 
ATOM     13  C   UNL     1      88.699  65.748  86.476  0.00  0.00    +0.000 C 
ATOM     14  C   UNL     1      90.124  66.134  86.089  0.00  0.00    +0.000 C 
ATOM     15  C   UNL     1      90.205  67.579  85.610  0.00  0.00    +0.000 C 
ATOM     16  C   UNL     1      89.615  68.546  86.633  0.00  0.00    +0.000 C 
ENDBRANCH  10  11
ENDBRANCH   1  10
TORSDOF 3
ENDMDL
