REMARK  Name = *****
REMARK  2 active torsions:
REMARK  status: ('A' for Active; 'I' for Inactive)
REMARK    1  A    between atoms: C_1  and  C_2
REMARK    2  A    between atoms: C_5  and  C_8
REMARK                            x       y       z     vdW  Elec       q    Type
REMARK                         _______ _______ _______ _____ _____    ______ ____
ROOT
ATOM      1  C   UNL     1      -3.501   0.892   0.494  0.00  0.00    +0.000 C 
ATOM      2  C   UNL     1      -4.552   1.293   1.238  0.00  0.00    +0.000 C 
ATOM      3  C   UNL     1      -5.771   1.006   0.501  0.00  0.00    +0.000 A 
ATOM      4  C   UNL     1      -7.091   1.228   0.853  0.00  0.00    +0.000 A 
ATOM      5  C   UNL     1      -8.087   0.849  -0.051  0.00  0.00    +0.000 A 
ATOM      6  C   UNL     1      -7.752   0.258  -1.282  0.00  0.00    +0.000 A 
ATOM      7  C   UNL     1      -6.416   0.040  -1.628  0.00  0.00    +0.000 A 
ATOM      8  C   UNL     1      -5.440   0.420  -0.724  0.00  0.00    +0.000 A 
ATOM      9  C   UNL     1      -3.949   0.312  -0.838  0.00  0.00    +0.000 C 
ENDROOT
BRANCH   1  14
ATOM     10  C   UNL     1       2.110   1.259   1.955  0.00  0.00    +0.000 C 
ATOM     11  C   UNL     1       0.663   1.139   1.583  0.00  0.00    +0.000 A 
ATOM     12  C   UNL     1      -0.332   1.217   2.560  0.00  0.00    +0.000 A 
ATOM     13  C   UNL     1      -1.684   1.138   2.205  0.00  0.00    +0.000 A 
ATOM     14  C   UNL     1      -2.079   0.992   0.866  0.00  0.00    +0.000 A 
ATOM     15  C   UNL     1      -1.070   0.921  -0.105  0.00  0.00    +0.000 A 
ATOM     16  C   UNL     1       0.283   1.002   0.246  0.00  0.00    +0.000 A 
ENDBRANCH   1  14
TORSDOF 1
