REMARK  Name = *****
REMARK  6 active torsions:
REMARK  status: ('A' for Active; 'I' for Inactive)
REMARK    1  A    between atoms: C_1  and  C_2
REMARK    2  A    between atoms: C_2  and  C_3
REMARK    3  A    between atoms: C_2  and  O_8
REMARK    4  A    between atoms: O_8  and  C_9
REMARK    5  A    between atoms: C_9  and  C_11
REMARK    6  A    between atoms: C_14  and  N_17
REMARK                            x       y       z     vdW  Elec       q    Type
REMARK                         _______ _______ _______ _____ _____    ______ ____
ROOT
ATOM      1  C   UNL     1       3.569   0.452   1.919  0.00  0.00    +0.000 C 
ATOM      2  O   UNL     1       4.246  -0.562   1.871  0.00  0.00    +0.000 OA
ENDROOT
BRANCH   1   3
ATOM      3  C   UNL     1       3.726   1.491   2.974  0.00  0.00    +0.000 A 
ATOM      4  C   UNL     1       4.587   1.216   4.050  0.00  0.00    +0.000 A 
ATOM      5  C   UNL     1       4.773   2.158   5.064  0.00  0.00    +0.000 A 
ATOM      6  C   UNL     1       4.096   3.374   4.992  0.00  0.00    +0.000 A 
ATOM      7  C   UNL     1       3.241   3.670   3.932  0.00  0.00    +0.000 A 
ATOM      8  C   UNL     1       3.057   2.725   2.919  0.00  0.00    +0.000 A 
BRANCH   6   9
ATOM      9  N   UNL     1       4.278   4.312   5.998  0.00  0.00    +0.000 NA
ATOM     10  C   UNL     1       4.430   5.105   6.848  0.00  0.00    +0.000 C 
ENDBRANCH   6   9
ENDBRANCH   1   3
BRANCH   1  11
ATOM     11  O   UNL     1       2.577   0.799   1.065  0.00  0.00    +0.000 OA
BRANCH  11  13
ATOM     12  C   UNL     1       0.857  -0.170  -0.272  0.00  0.00    +0.000 C 
ATOM     13  C   UNL     1       2.368  -0.064  -0.074  0.00  0.00    +0.000 C 
BRANCH  13  14
ATOM     14  C   UNL     1       3.076   0.493  -1.334  0.00  0.00    +0.000 C 
ATOM     15  C   UNL     1       4.580   0.570  -1.198  0.00  0.00    +0.000 C 
ATOM     16  C   UNL     1       4.999   1.827  -1.412  0.00  0.00    +0.000 C 
ATOM     17  C   UNL     1       3.866   2.666  -1.706  0.00  0.00    +0.000 C 
ATOM     18  C   UNL     1       2.745   1.931  -1.671  0.00  0.00    +0.000 C 
ENDBRANCH  13  14
ENDBRANCH  11  13
ENDBRANCH   1  11
TORSDOF 5
