REMARK  Name = *****
REMARK  3 active torsions:
REMARK  status: ('A' for Active; 'I' for Inactive)
REMARK    1  A    between atoms: C_4  and  O_7
REMARK    2  A    between atoms: O_7  and  C_8
REMARK    3  A    between atoms: C_8  and  C_10
REMARK                            x       y       z     vdW  Elec       q    Type
REMARK                         _______ _______ _______ _____ _____    ______ ____
ROOT
ATOM      1  C   UNL     1      -3.649  -0.667  -0.238  0.00  0.00    +0.000 C 
ATOM      2  O   UNL     1      -3.405  -1.848  -0.054  0.00  0.00    +0.000 OA
ENDROOT
BRANCH   1   3
ATOM      3  C   UNL     1      -4.990  -0.148  -0.501  0.00  0.00    +0.000 A 
ATOM      4  C   UNL     1      -5.521   0.882   0.269  0.00  0.00    +0.000 A 
ATOM      5  C   UNL     1      -6.809   1.358   0.026  0.00  0.00    +0.000 A 
ATOM      6  C   UNL     1      -7.576   0.795  -0.996  0.00  0.00    +0.000 A 
ATOM      7  C   UNL     1      -7.048  -0.242  -1.767  0.00  0.00    +0.000 A 
ATOM      8  C   UNL     1      -5.759  -0.711  -1.513  0.00  0.00    +0.000 A 
ATOM      9  F   UNL     1      -5.271  -1.693  -2.284  0.00  0.00    +0.000 F 
ATOM     10  F   UNL     1      -4.815   1.427   1.270  0.00  0.00    +0.000 F 
ENDBRANCH   1   3
BRANCH   1  11
ATOM     11  O   UNL     1      -2.773   0.401  -0.286  0.00  0.00    +0.000 OA
BRANCH  11  15
ATOM     12  C   UNL     1       1.310  -0.232   0.339  0.00  0.00    +0.000 A 
ATOM     13  C   UNL     1       0.641  -1.009  -0.609  0.00  0.00    +0.000 A 
ATOM     14  C   UNL     1      -0.725  -0.825  -0.828  0.00  0.00    +0.000 A 
ATOM     15  C   UNL     1      -1.413   0.127  -0.076  0.00  0.00    +0.000 A 
ATOM     16  C   UNL     1      -0.750   0.921   0.858  0.00  0.00    +0.000 A 
ATOM     17  C   UNL     1       0.616   0.735   1.070  0.00  0.00    +0.000 A 
ENDBRANCH  11  15
ENDBRANCH   1  11
TORSDOF 3
