MODEL 1
REMARK VINA RESULT:      -4.3      0.000      0.000
REMARK  Name = *****
REMARK  4 active torsions:
REMARK  status: ('A' for Active; 'I' for Inactive)
REMARK    1  A    between atoms: C_4  and  C_7
REMARK    2  A    between atoms: C_7  and  S_8
REMARK    3  A    between atoms: C_7  and  S_10
REMARK    4  A    between atoms: S_10  and  C_11
REMARK                            x       y       z     vdW  Elec       q    Type
REMARK                         _______ _______ _______ _____ _____    ______ ____
ROOT
ATOM      1  C   UNL     1     103.628 126.511  81.688  0.00  0.00    +0.000 C 
ENDROOT
BRANCH   1   5
ATOM      2  C   UNL     1     104.790 122.388  81.778  0.00  0.00    +0.000 A 
ATOM      3  C   UNL     1     104.781 123.086  80.572  0.00  0.00    +0.000 A 
ATOM      4  C   UNL     1     104.399 124.428  80.545  0.00  0.00    +0.000 A 
ATOM      5  C   UNL     1     104.017 125.083  81.726  0.00  0.00    +0.000 A 
ATOM      6  C   UNL     1     104.032 124.373  82.934  0.00  0.00    +0.000 A 
ATOM      7  C   UNL     1     104.418 123.030  82.957  0.00  0.00    +0.000 A 
ENDBRANCH   1   5
BRANCH   1   8
ATOM      8  S   UNL     1     103.668 127.391  80.299  0.00  0.00    +0.000 S 
ATOM      9  O   UNL     1     104.279 128.746  80.418  0.00  0.00    +0.000 OA
ENDBRANCH   1   8
BRANCH   1  10
ATOM     10  S   UNL     1     103.229 127.318  83.193  0.00  0.00    +0.000 S 
BRANCH  10  11
ATOM     11  C   UNL     1     101.473 127.609  83.070  0.00  0.00    +0.000 A 
ATOM     12  C   UNL     1     100.684 126.621  82.467  0.00  0.00    +0.000 A 
ATOM     13  C   UNL     1      99.303 126.790  82.342  0.00  0.00    +0.000 A 
ATOM     14  C   UNL     1      98.698 127.948  82.824  0.00  0.00    +0.000 A 
ATOM     15  C   UNL     1      99.471 128.930  83.438  0.00  0.00    +0.000 A 
ATOM     16  C   UNL     1     100.853 128.759  83.566  0.00  0.00    +0.000 A 
ENDBRANCH  10  11
ENDBRANCH   1  10
TORSDOF 4
ENDMDL
