MODEL 1
REMARK VINA RESULT:      -4.7      0.000      0.000
REMARK  Name = *****
REMARK  1 active torsions:
REMARK  status: ('A' for Active; 'I' for Inactive)
REMARK    1  A    between atoms: C_3  and  C_5
REMARK                            x       y       z     vdW  Elec       q    Type
REMARK                         _______ _______ _______ _____ _____    ______ ____
ROOT
ATOM      1  C   UNL     1      88.292  70.529  87.166  0.00  0.00    +0.000 A 
ATOM      2  C   UNL     1      87.305  71.027  86.287  0.00  0.00    +0.000 A 
ATOM      3  C   UNL     1      86.087  71.575  86.730  0.00  0.00    +0.000 A 
ATOM      4  C   UNL     1      85.124  72.061  85.828  0.00  0.00    +0.000 A 
ATOM      5  C   UNL     1      83.922  72.600  86.288  0.00  0.00    +0.000 A 
ATOM      6  C   UNL     1      83.666  72.662  87.655  0.00  0.00    +0.000 A 
ATOM      7  C   UNL     1      84.612  72.185  88.563  0.00  0.00    +0.000 A 
ATOM      8  C   UNL     1      85.826  71.639  88.114  0.00  0.00    +0.000 A 
ATOM      9  C   UNL     1      86.789  71.154  89.006  0.00  0.00    +0.000 A 
ATOM     10  C   UNL     1      87.992  70.613  88.537  0.00  0.00    +0.000 A 
ENDROOT
BRANCH   1  13
ATOM     11  C   UNL     1      89.470  68.530  84.961  0.00  0.00    +0.000 C 
ATOM     12  C   UNL     1      89.965  69.983  85.071  0.00  0.00    +0.000 C 
ATOM     13  C   UNL     1      89.655  69.924  86.592  0.00  0.00    +0.000 C 
ATOM     14  C   UNL     1      89.753  68.378  86.466  0.00  0.00    +0.000 C 
ENDBRANCH   1  13
TORSDOF 1
ENDMDL
