MODEL 1
REMARK VINA RESULT:      -5.0      0.000      0.000
REMARK  Name = *****
REMARK  2 active torsions:
REMARK  status: ('A' for Active; 'I' for Inactive)
REMARK    1  A    between atoms: C_3  and  C_8
REMARK    2  A    between atoms: C_15  and  C_17
REMARK                            x       y       z     vdW  Elec       q    Type
REMARK                         _______ _______ _______ _____ _____    ______ ____
ROOT
ATOM      1  C   UNL     1     102.186 126.043  82.464  0.00  0.00    +0.000 A 
ATOM      2  N   UNL     1     102.702 125.111  83.245  0.00  0.00    +0.000 NA
ATOM      3  C   UNL     1     103.611 124.474  82.442  0.00  0.00    +0.000 A 
ATOM      4  C   UNL     1     103.614 125.053  81.186  0.00  0.00    +0.000 A 
ATOM      5  O   UNL     1     102.699 126.064  81.189  0.00  0.00    +0.000 OA
ATOM      6  C   UNL     1     104.419 124.651  80.131  0.00  0.00    +0.000 A 
ATOM      7  C   UNL     1     105.280 123.574  80.397  0.00  0.00    +0.000 A 
ATOM      8  C   UNL     1     105.315 122.949  81.659  0.00  0.00    +0.000 A 
ATOM      9  C   UNL     1     104.473 123.399  82.698  0.00  0.00    +0.000 A 
ENDROOT
BRANCH   1  12
ATOM     10  C   UNL     1      98.816 127.706  82.716  0.00  0.00    +0.000 A 
ATOM     11  C   UNL     1      99.822 126.779  82.433  0.00  0.00    +0.000 A 
ATOM     12  C   UNL     1     101.160 127.036  82.775  0.00  0.00    +0.000 A 
ATOM     13  C   UNL     1     101.469 128.250  83.408  0.00  0.00    +0.000 A 
ATOM     14  C   UNL     1     100.461 129.173  83.688  0.00  0.00    +0.000 A 
ATOM     15  C   UNL     1      99.136 128.906  83.345  0.00  0.00    +0.000 A 
ATOM     16 CL   UNL     1     100.857 130.657  84.465  0.00  0.00    +0.000 Cl
ENDBRANCH   1  12
BRANCH   8  17
ATOM     17  C   UNL     1     106.235 121.796  81.945  0.00  0.00    +0.000 C 
ATOM     18  O   UNL     1     106.030 121.155  82.975  0.00  0.00    +0.000 OA
ATOM     19 CL   UNL     1     107.531 121.414  80.832  0.00  0.00    +0.000 Cl
ENDBRANCH   8  17
TORSDOF 2
ENDMDL
