REMARK  Name = *****
REMARK  5 active torsions:
REMARK  status: ('A' for Active; 'I' for Inactive)
REMARK    1  A    between atoms: C_1  and  C_2
REMARK    2  A    between atoms: C_2  and  C_4
REMARK    3  A    between atoms: C_9  and  C_10
REMARK    4  A    between atoms: C_10  and  C_11
REMARK    5  A    between atoms: C_11  and  C_12
REMARK                            x       y       z     vdW  Elec       q    Type
REMARK                         _______ _______ _______ _____ _____    ______ ____
ROOT
ATOM      1  C   UNL     1       3.446   2.627  -0.121  0.00  0.00    +0.000 A 
ATOM      2  C   UNL     1       3.252   3.138   1.173  0.00  0.00    +0.000 A 
ATOM      3  C   UNL     1       4.100   2.761   2.214  0.00  0.00    +0.000 A 
ATOM      4  C   UNL     1       5.141   1.870   1.974  0.00  0.00    +0.000 A 
ATOM      5  C   UNL     1       5.337   1.355   0.692  0.00  0.00    +0.000 A 
ATOM      6  C   UNL     1       4.498   1.725  -0.375  0.00  0.00    +0.000 A 
ENDROOT
BRANCH   1   8
ATOM      7  C   UNL     1       2.115   4.508  -1.256  0.00  0.00    +0.000 C 
ATOM      8  C   UNL     1       2.501   3.053  -1.192  0.00  0.00    +0.000 C 
ATOM      9  O   UNL     1       2.036   2.231  -1.977  0.00  0.00    +0.000 OA
ENDBRANCH   1   8
BRANCH   6  10
ATOM     10  C   UNL     1       4.768   1.131  -1.740  0.00  0.00    +0.000 C 
BRANCH  10  11
ATOM     11  C   UNL     1       4.096  -0.235  -1.913  0.00  0.00    +0.000 C 
BRANCH  11  12
ATOM     12  C   UNL     1       4.275  -0.766  -3.315  0.00  0.00    +0.000 A 
ATOM     13  C   UNL     1       5.345  -1.616  -3.629  0.00  0.00    +0.000 A 
ATOM     14  C   UNL     1       5.511  -2.085  -4.933  0.00  0.00    +0.000 A 
ATOM     15  C   UNL     1       4.611  -1.700  -5.920  0.00  0.00    +0.000 A 
ATOM     16  C   UNL     1       3.549  -0.853  -5.630  0.00  0.00    +0.000 A 
ATOM     17  C   UNL     1       3.381  -0.383  -4.327  0.00  0.00    +0.000 A 
ATOM     18  F   UNL     1       4.774  -2.150  -7.171  0.00  0.00    +0.000 F 
ENDBRANCH  11  12
ENDBRANCH  10  11
ENDBRANCH   6  10
TORSDOF 4
