MODEL 1
REMARK VINA RESULT:      -4.3      0.000      0.000
REMARK  Name = *****
REMARK  4 active torsions:
REMARK  status: ('A' for Active; 'I' for Inactive)
REMARK    1  A    between atoms: C_1  and  N_2
REMARK    2  A    between atoms: N_2  and  C_3
REMARK    3  A    between atoms: C_7  and  C_9
REMARK    4  A    between atoms: C_10  and  C_11
REMARK                            x       y       z     vdW  Elec       q    Type
REMARK                         _______ _______ _______ _____ _____    ______ ____
ROOT
ATOM      1  C   UNL     1     107.299 121.826  80.959  0.00  0.00    +0.000 C 
ATOM      2  N   UNL     1     106.460 122.471  81.964  0.00  0.00    +0.000 N 
ATOM      3  C   UNL     1     106.155 121.674  83.142  0.00  0.00    +0.000 C 
ATOM      4  C   UNL     1     105.545 123.378  81.495  0.00  0.00    +0.000 A 
ATOM      5  N   UNL     1     105.530 123.809  80.251  0.00  0.00    +0.000 NA
ATOM      6  C   UNL     1     104.520 124.728  80.053  0.00  0.00    +0.000 A 
ATOM      7  C   UNL     1     103.732 125.025  81.149  0.00  0.00    +0.000 A 
ATOM      8  S   UNL     1     104.313 124.098  82.480  0.00  0.00    +0.000 S 
ENDROOT
BRANCH   7   9
ATOM      9  C   UNL     1     102.622 125.900  81.329  0.00  0.00    +0.000 C 
ATOM     10  C   UNL     1     102.125 126.193  82.542  0.00  0.00    +0.000 C 
BRANCH  10  11
ATOM     11  C   UNL     1     100.986 127.098  82.751  0.00  0.00    +0.000 A 
ATOM     12  C   UNL     1      99.677 126.747  82.392  0.00  0.00    +0.000 A 
ATOM     13  C   UNL     1      98.615 127.621  82.635  0.00  0.00    +0.000 A 
ATOM     14  C   UNL     1      98.849 128.851  83.247  0.00  0.00    +0.000 A 
ATOM     15  C   UNL     1     100.143 129.205  83.623  0.00  0.00    +0.000 A 
ATOM     16  C   UNL     1     101.205 128.330  83.381  0.00  0.00    +0.000 A 
ENDBRANCH  10  11
ENDBRANCH   7   9
TORSDOF 2
ENDMDL
