MODEL 1
REMARK VINA RESULT:      -4.4      0.000      0.000
REMARK  Name = *****
REMARK  5 active torsions:
REMARK  status: ('A' for Active; 'I' for Inactive)
REMARK    1  A    between atoms: C_1  and  C_2
REMARK    2  A    between atoms: C_5  and  S_8
REMARK    3  A    between atoms: S_8  and  O_10
REMARK    4  A    between atoms: O_10  and  C_11
REMARK    5  A    between atoms: C_16  and  C_18
REMARK                            x       y       z     vdW  Elec       q    Type
REMARK                         _______ _______ _______ _____ _____    ______ ____
ROOT
ATOM      1  S   UNL     1     106.239 124.744  79.269  0.00  0.00    +0.000 S 
ATOM      2  O   UNL     1     106.111 124.445  77.805  0.00  0.00    +0.000 OA
ENDROOT
BRANCH   1   7
ATOM      3  C   UNL     1     105.811 119.370  82.182  0.00  0.00    +0.000 C 
ATOM      4  C   UNL     1     105.913 120.698  81.493  0.00  0.00    +0.000 A 
ATOM      5  C   UNL     1     104.759 121.408  81.139  0.00  0.00    +0.000 A 
ATOM      6  C   UNL     1     104.857 122.629  80.465  0.00  0.00    +0.000 A 
ATOM      7  C   UNL     1     106.111 123.148  80.118  0.00  0.00    +0.000 A 
ATOM      8  C   UNL     1     107.263 122.434  80.464  0.00  0.00    +0.000 A 
ATOM      9  C   UNL     1     107.165 121.216  81.140  0.00  0.00    +0.000 A 
ENDBRANCH   1   7
BRANCH   1  10
ATOM     10  O   UNL     1     104.807 125.252  79.804  0.00  0.00    +0.000 OA
BRANCH  10  11
ATOM     11  C   UNL     1     104.810 126.408  80.630  0.00  0.00    +0.000 C 
ATOM     12  C   UNL     1     103.594 127.286  80.262  0.00  0.00    +0.000 C 
ATOM     13  C   UNL     1     102.827 127.401  81.590  0.00  0.00    +0.000 C 
ATOM     14  C   UNL     1     102.157 126.049  81.891  0.00  0.00    +0.000 C 
ATOM     15  C   UNL     1     103.340 125.154  82.287  0.00  0.00    +0.000 C 
ATOM     16  C   UNL     1     104.553 126.099  82.132  0.00  0.00    +0.000 C 
ATOM     17  C   UNL     1     103.962 127.431  82.612  0.00  0.00    +0.000 C 
ATOM     18  C   UNL     1     105.774 125.639  82.903  0.00  0.00    +0.000 C 
ENDBRANCH  10  11
ENDBRANCH   1  10
TORSDOF 3
ENDMDL
