MODEL 1
REMARK VINA RESULT:      -4.6      0.000      0.000
REMARK  Name = *****
REMARK  2 active torsions:
REMARK  status: ('A' for Active; 'I' for Inactive)
REMARK    1  A    between atoms: C_2  and  C_10
REMARK    2  A    between atoms: C_10  and  C_11
REMARK                            x       y       z     vdW  Elec       q    Type
REMARK                         _______ _______ _______ _____ _____    ______ ____
ROOT
ATOM      1  C   UNL     1     103.236 127.977  84.456  0.00  0.00    +0.000 C 
ATOM      2  C   UNL     1     102.684 127.063  83.340  0.00  0.00    +0.000 C 
ATOM      3  C   UNL     1     101.223 127.434  83.178  0.00  0.00    +0.000 A 
ATOM      4  C   UNL     1     100.245 126.678  82.533  0.00  0.00    +0.000 A 
ATOM      5  C   UNL     1      98.950 127.189  82.417  0.00  0.00    +0.000 A 
ATOM      6  C   UNL     1      98.636 128.454  82.926  0.00  0.00    +0.000 A 
ATOM      7  C   UNL     1      99.617 129.223  83.552  0.00  0.00    +0.000 A 
ATOM      8  C   UNL     1     100.898 128.704  83.668  0.00  0.00    +0.000 A 
ATOM      9  S   UNL     1     102.279 129.520  84.411  0.00  0.00    +0.000 S 
ENDROOT
BRANCH   2  10
ATOM     10  C   UNL     1     102.915 125.576  83.662  0.00  0.00    +0.000 C 
BRANCH  10  11
ATOM     11  C   UNL     1     103.597 124.816  82.548  0.00  0.00    +0.000 A 
ATOM     12  C   UNL     1     104.232 123.594  82.807  0.00  0.00    +0.000 A 
ATOM     13  C   UNL     1     104.867 122.895  81.778  0.00  0.00    +0.000 A 
ATOM     14  C   UNL     1     104.872 123.411  80.484  0.00  0.00    +0.000 A 
ATOM     15  C   UNL     1     104.242 124.625  80.216  0.00  0.00    +0.000 A 
ATOM     16  C   UNL     1     103.607 125.325  81.242  0.00  0.00    +0.000 A 
ENDBRANCH  10  11
ENDBRANCH   2  10
TORSDOF 2
ENDMDL
