MODEL 1
REMARK VINA RESULT:      -4.7      0.000      0.000
REMARK  Name = *****
REMARK  4 active torsions:
REMARK  status: ('A' for Active; 'I' for Inactive)
REMARK    1  A    between atoms: C_1  and  O_2
REMARK    2  A    between atoms: O_2  and  C_3
REMARK    3  A    between atoms: C_6  and  C_9
REMARK    4  A    between atoms: C_10  and  C_11
REMARK                            x       y       z     vdW  Elec       q    Type
REMARK                         _______ _______ _______ _____ _____    ______ ____
ROOT
ATOM      1  C   UNL     1     102.922 125.393  82.043  0.00  0.00    +0.000 C 
ATOM      2  C   UNL     1     102.086 126.193  82.364  0.00  0.00    +0.000 C 
ENDROOT
BRANCH   2   3
ATOM      3  C   UNL     1     101.088 127.145  82.741  0.00  0.00    +0.000 A 
ATOM      4  C   UNL     1      99.742 126.884  82.487  0.00  0.00    +0.000 A 
ATOM      5  C   UNL     1      98.784 127.821  82.860  0.00  0.00    +0.000 A 
ATOM      6  C   UNL     1      99.145 129.011  83.482  0.00  0.00    +0.000 A 
ATOM      7  C   UNL     1     100.490 129.273  83.738  0.00  0.00    +0.000 A 
ATOM      8  C   UNL     1     101.462 128.339  83.367  0.00  0.00    +0.000 A 
ATOM      9  F   UNL     1      97.491 127.572  82.616  0.00  0.00    +0.000 F 
ENDBRANCH   2   3
BRANCH   1  13
ATOM     10  C   UNL     1     105.873 122.576  80.902  0.00  0.00    +0.000 A 
ATOM     11  C   UNL     1     105.396 123.508  79.978  0.00  0.00    +0.000 A 
ATOM     12  C   UNL     1     104.420 124.438  80.357  0.00  0.00    +0.000 A 
ATOM     13  C   UNL     1     103.917 124.439  81.659  0.00  0.00    +0.000 A 
ATOM     14  C   UNL     1     104.389 123.509  82.584  0.00  0.00    +0.000 A 
ATOM     15  C   UNL     1     105.363 122.582  82.203  0.00  0.00    +0.000 A 
BRANCH  10  17
ATOM     16  C   UNL     1     106.779 120.455  81.478  0.00  0.00    +0.000 C 
ATOM     17  O   UNL     1     106.821 121.620  80.664  0.00  0.00    +0.000 OA
ENDBRANCH  10  17
ENDBRANCH   1  13
TORSDOF 3
ENDMDL
