MODEL 1
REMARK VINA RESULT:      -4.3      0.000      0.000
REMARK  Name = *****
REMARK  4 active torsions:
REMARK  status: ('A' for Active; 'I' for Inactive)
REMARK    1  A    between atoms: C_1  and  C_2
REMARK    2  A    between atoms: C_2  and  C_7
REMARK    3  A    between atoms: C_7  and  C_8
REMARK    4  A    between atoms: C_8  and  C_9
REMARK                            x       y       z     vdW  Elec       q    Type
REMARK                         _______ _______ _______ _____ _____    ______ ____
ROOT
ATOM      1  C   UNL     1     102.387 127.433  82.944  0.00  0.00    +0.000 C 
ENDROOT
BRANCH   1   3
ATOM      2  C   UNL     1     100.825 126.709  84.814  0.00  0.00    +0.000 C 
ATOM      3  C   UNL     1     100.930 127.447  83.460  0.00  0.00    +0.000 C 
ATOM      4  C   UNL     1     100.363 128.883  83.593  0.00  0.00    +0.000 C 
ATOM      5  C   UNL     1      98.933 128.722  83.188  0.00  0.00    +0.000 C 
ATOM      6  C   UNL     1      98.726 127.565  82.552  0.00  0.00    +0.000 C 
ATOM      7  C   UNL     1      99.987 126.767  82.433  0.00  0.00    +0.000 C 
ENDBRANCH   1   3
BRANCH   1   8
ATOM      8  C   UNL     1     102.566 126.839  81.541  0.00  0.00    +0.000 C 
BRANCH   8   9
ATOM      9  C   UNL     1     103.344 125.546  81.587  0.00  0.00    +0.000 A 
ATOM     10  C   UNL     1     103.897 125.008  80.416  0.00  0.00    +0.000 A 
ATOM     11  C   UNL     1     104.601 123.803  80.456  0.00  0.00    +0.000 A 
ATOM     12  C   UNL     1     104.755 123.125  81.663  0.00  0.00    +0.000 A 
ATOM     13  C   UNL     1     104.204 123.647  82.831  0.00  0.00    +0.000 A 
ATOM     14  C   UNL     1     103.500 124.852  82.794  0.00  0.00    +0.000 A 
ENDBRANCH   8   9
ENDBRANCH   1   8
TORSDOF 3
ENDMDL
