MODEL 1
REMARK VINA RESULT:      -4.4      0.000      0.000
REMARK  Name = *****
REMARK  4 active torsions:
REMARK  status: ('A' for Active; 'I' for Inactive)
REMARK    1  A    between atoms: C_3  and  C_9
REMARK    2  A    between atoms: C_5  and  C_7
REMARK    3  A    between atoms: C_9  and  S_10
REMARK    4  A    between atoms: S_10  and  C_11
REMARK                            x       y       z     vdW  Elec       q    Type
REMARK                         _______ _______ _______ _____ _____    ______ ____
ROOT
ATOM      1  C   UNL     1      84.914  59.870  92.298  0.00  0.00    +0.000 C 
ENDROOT
BRANCH   1   4
ATOM      2  C   UNL     1      86.668  56.637  93.310  0.00  0.00    +0.000 A 
ATOM      3  C   UNL     1      85.968  57.843  93.382  0.00  0.00    +0.000 A 
ATOM      4  C   UNL     1      85.657  58.558  92.217  0.00  0.00    +0.000 A 
ATOM      5  C   UNL     1      86.074  58.050  90.976  0.00  0.00    +0.000 A 
ATOM      6  C   UNL     1      86.778  56.842  90.902  0.00  0.00    +0.000 A 
ATOM      7  C   UNL     1      87.071  56.135  92.072  0.00  0.00    +0.000 A 
BRANCH   6   8
ATOM      8  C   UNL     1      87.197  56.330  89.630  0.00  0.00    +0.000 C 
ATOM      9  N   UNL     1      87.533  55.920  88.598  0.00  0.00    +0.000 NA
ENDBRANCH   6   8
ENDBRANCH   1   4
BRANCH   1  10
ATOM     10  S   UNL     1      84.241  60.348  90.673  0.00  0.00    +0.000 S 
BRANCH  10  11
ATOM     11  C   UNL     1      85.434  61.582  90.195  0.00  0.00    +0.000 A 
ATOM     12  C   UNL     1      86.117  61.432  88.983  0.00  0.00    +0.000 A 
ATOM     13  C   UNL     1      87.052  62.387  88.574  0.00  0.00    +0.000 A 
ATOM     14  C   UNL     1      87.296  63.501  89.374  0.00  0.00    +0.000 A 
ATOM     15  C   UNL     1      86.610  63.669  90.575  0.00  0.00    +0.000 A 
ATOM     16  C   UNL     1      85.676  62.713  90.982  0.00  0.00    +0.000 A 
ATOM     17 CL   UNL     1      88.447  64.678  88.873  0.00  0.00    +0.000 Cl
ENDBRANCH  10  11
ENDBRANCH   1  10
TORSDOF 4
ENDMDL
