REMARK  Name = *****
REMARK  3 active torsions:
REMARK  status: ('A' for Active; 'I' for Inactive)
REMARK    1  A    between atoms: C_5  and  C_7
REMARK    2  A    between atoms: C_7  and  C_8
REMARK    3  A    between atoms: C_8  and  C_10
REMARK                            x       y       z     vdW  Elec       q    Type
REMARK                         _______ _______ _______ _____ _____    ______ ____
ROOT
ATOM      1  C   UNL     1      -2.014  -2.329   0.125  0.00  0.00    +0.000 C 
ATOM      2  O   UNL     1      -2.713  -2.571  -0.861  0.00  0.00    +0.000 OA
ENDROOT
BRANCH   1   3
ATOM      3  C   UNL     1      -2.681  -1.970   1.417  0.00  0.00    +0.000 A 
ATOM      4  C   UNL     1      -1.980  -1.813   2.618  0.00  0.00    +0.000 A 
ATOM      5  C   UNL     1      -2.661  -1.475   3.794  0.00  0.00    +0.000 A 
ATOM      6  C   UNL     1      -4.042  -1.294   3.773  0.00  0.00    +0.000 A 
ATOM      7  C   UNL     1      -4.753  -1.450   2.586  0.00  0.00    +0.000 A 
ATOM      8  C   UNL     1      -4.073  -1.789   1.412  0.00  0.00    +0.000 A 
ATOM      9 CL   UNL     1      -4.873  -0.877   5.220  0.00  0.00    +0.000 Cl
ENDBRANCH   1   3
BRANCH   1  10
ATOM     10  C   UNL     1      -0.499  -2.363   0.030  0.00  0.00    +0.000 C 
BRANCH  10  15
ATOM     11  C   UNL     1       0.186   1.210  -1.110  0.00  0.00    +0.000 A 
ATOM     12  C   UNL     1       1.268   1.579  -0.317  0.00  0.00    +0.000 A 
ATOM     13  C   UNL     1       1.798   0.669   0.595  0.00  0.00    +0.000 A 
ATOM     14  C   UNL     1       1.242  -0.610   0.724  0.00  0.00    +0.000 A 
ATOM     15  C   UNL     1       0.134  -0.991  -0.050  0.00  0.00    +0.000 A 
ATOM     16  C   UNL     1      -0.371  -0.064  -0.983  0.00  0.00    +0.000 A 
ATOM     17 CL   UNL     1       1.987  -1.678   1.861  0.00  0.00    +0.000 Cl
ENDBRANCH  10  15
ENDBRANCH   1  10
TORSDOF 3
