MODEL 1
REMARK VINA RESULT:      -4.3      0.000      0.000
REMARK  Name = *****
REMARK  3 active torsions:
REMARK  status: ('A' for Active; 'I' for Inactive)
REMARK    1  A    between atoms: C_4  and  C_7
REMARK    2  A    between atoms: C_8  and  S_9
REMARK    3  A    between atoms: S_9  and  C_10
REMARK                            x       y       z     vdW  Elec       q    Type
REMARK                         _______ _______ _______ _____ _____    ______ ____
ROOT
ATOM      1  C   UNL     1      87.057  71.085  88.636  0.00  0.00    +0.000 C 
ATOM      2  C   UNL     1      87.265  69.815  89.018  0.00  0.00    +0.000 C 
ENDROOT
BRANCH   1   6
ATOM      3  C   UNL     1      84.383  72.427  85.592  0.00  0.00    +0.000 A 
ATOM      4  C   UNL     1      85.621  71.895  85.237  0.00  0.00    +0.000 A 
ATOM      5  C   UNL     1      86.505  71.458  86.227  0.00  0.00    +0.000 A 
ATOM      6  C   UNL     1      86.157  71.560  87.580  0.00  0.00    +0.000 A 
ATOM      7  C   UNL     1      84.908  72.089  87.927  0.00  0.00    +0.000 A 
ATOM      8  C   UNL     1      84.026  72.524  86.936  0.00  0.00    +0.000 A 
ENDBRANCH   1   6
BRANCH   2   9
ATOM      9  S   UNL     1      86.502  68.429  88.310  0.00  0.00    +0.000 S 
BRANCH   9  10
ATOM     10  C   UNL     1      87.909  67.725  87.472  0.00  0.00    +0.000 A 
ATOM     11  C   UNL     1      88.854  68.555  86.860  0.00  0.00    +0.000 A 
ATOM     12  C   UNL     1      89.957  68.002  86.206  0.00  0.00    +0.000 A 
ATOM     13  C   UNL     1      90.122  66.618  86.166  0.00  0.00    +0.000 A 
ATOM     14  C   UNL     1      89.187  65.786  86.782  0.00  0.00    +0.000 A 
ATOM     15  C   UNL     1      88.084  66.338  87.435  0.00  0.00    +0.000 A 
ENDBRANCH   9  10
ENDBRANCH   2   9
TORSDOF 3
ENDMDL
