MODEL 1
REMARK VINA RESULT:      -4.7      0.000      0.000
REMARK  Name = *****
REMARK  4 active torsions:
REMARK  status: ('A' for Active; 'I' for Inactive)
REMARK    1  A    between atoms: C_4  and  C_7
REMARK    2  A    between atoms: C_7  and  C_9
REMARK    3  A    between atoms: C_9  and  C_10
REMARK    4  A    between atoms: C_10  and  C_11
REMARK                            x       y       z     vdW  Elec       q    Type
REMARK                         _______ _______ _______ _____ _____    ______ ____
ROOT
ATOM      1  C   UNL     1     100.348 126.351  82.290  0.00  0.00    +0.000 C 
ENDROOT
BRANCH   1   2
ATOM      2  C   UNL     1      99.335 127.424  82.651  0.00  0.00    +0.000 C 
ATOM      3  O   UNL     1      98.227 127.437  82.111  0.00  0.00    +0.000 OA
BRANCH   2   7
ATOM      4  C   UNL     1      99.139 130.664  85.555  0.00  0.00    +0.000 C 
ATOM      5  C   UNL     1      99.737 129.335  86.005  0.00  0.00    +0.000 C 
ATOM      6  C   UNL     1      99.367 128.204  85.049  0.00  0.00    +0.000 C 
ATOM      7  C   UNL     1      99.772 128.533  83.607  0.00  0.00    +0.000 C 
ATOM      8  C   UNL     1      99.171 129.867  83.156  0.00  0.00    +0.000 C 
ATOM      9  C   UNL     1      99.528 130.999  84.118  0.00  0.00    +0.000 C 
ENDBRANCH   2   7
ENDBRANCH   1   2
BRANCH   1  10
ATOM     10  C   UNL     1     101.796 126.836  82.291  0.00  0.00    +0.000 C 
BRANCH  10  11
ATOM     11  C   UNL     1     102.808 125.757  81.986  0.00  0.00    +0.000 A 
ATOM     12  C   UNL     1     103.289 124.923  83.007  0.00  0.00    +0.000 A 
ATOM     13  C   UNL     1     104.228 123.929  82.722  0.00  0.00    +0.000 A 
ATOM     14  C   UNL     1     104.683 123.769  81.420  0.00  0.00    +0.000 A 
ATOM     15  C   UNL     1     104.216 124.581  80.395  0.00  0.00    +0.000 A 
ATOM     16  C   UNL     1     103.278 125.575  80.676  0.00  0.00    +0.000 A 
ATOM     17  F   UNL     1     105.582 122.815  81.147  0.00  0.00    +0.000 F 
ENDBRANCH  10  11
ENDBRANCH   1  10
TORSDOF 4
ENDMDL
