REMARK  Name = *****
REMARK  2 active torsions:
REMARK  status: ('A' for Active; 'I' for Inactive)
REMARK    1  A    between atoms: C_4  and  N_7
REMARK    2  A    between atoms: C_8  and  C_9
REMARK                            x       y       z     vdW  Elec       q    Type
REMARK                         _______ _______ _______ _____ _____    ______ ____
ROOT
ATOM      1  N   UNL     1      -2.681   0.350  -0.807  0.00  0.00    +0.000 NA
ATOM      2  C   UNL     1      -3.580  -0.315  -0.150  0.00  0.00    +0.000 C 
ENDROOT
BRANCH   2   3
ATOM      3  C   UNL     1      -5.025  -0.204  -0.436  0.00  0.00    +0.000 A 
ATOM      4  C   UNL     1      -5.514   0.825  -1.249  0.00  0.00    +0.000 A 
ATOM      5  C   UNL     1      -6.877   0.942  -1.524  0.00  0.00    +0.000 A 
ATOM      6  C   UNL     1      -7.778   0.028  -0.987  0.00  0.00    +0.000 A 
ATOM      7  C   UNL     1      -7.308  -1.002  -0.173  0.00  0.00    +0.000 A 
ATOM      8  C   UNL     1      -5.939  -1.120   0.104  0.00  0.00    +0.000 A 
ATOM      9 CL   UNL     1      -5.464  -2.445   1.111  0.00  0.00    +0.000 Cl
ATOM     10  F   UNL     1      -4.703   1.752  -1.778  0.00  0.00    +0.000 F 
ENDBRANCH   2   3
BRANCH   1  14
ATOM     11  C   UNL     1       1.314  -0.262   0.341  0.00  0.00    +0.000 A 
ATOM     12  C   UNL     1       0.701  -1.149  -0.544  0.00  0.00    +0.000 A 
ATOM     13  C   UNL     1      -0.626  -0.946  -0.927  0.00  0.00    +0.000 A 
ATOM     14  C   UNL     1      -1.351   0.136  -0.419  0.00  0.00    +0.000 A 
ATOM     15  C   UNL     1      -0.726   1.028   0.454  0.00  0.00    +0.000 A 
ATOM     16  C   UNL     1       0.602   0.829   0.838  0.00  0.00    +0.000 A 
ENDBRANCH   1  14
TORSDOF 2
