REMARK  Name = *****
REMARK  2 active torsions:
REMARK  status: ('A' for Active; 'I' for Inactive)
REMARK    1  A    between atoms: C_1  and  C_2
REMARK    2  A    between atoms: C_5  and  N_8
REMARK                            x       y       z     vdW  Elec       q    Type
REMARK                         _______ _______ _______ _____ _____    ______ ____
ROOT
ATOM      1  N   UNL     1      -3.880   0.002  -1.071  0.00  0.00    +0.000 N 
ATOM      2  C   UNL     1      -4.579   1.298  -1.025  0.00  0.00    +0.000 C 
ATOM      3  C   UNL     1      -6.033   1.014  -0.773  0.00  0.00    +0.000 A 
ATOM      4  C   UNL     1      -7.044   1.964  -0.661  0.00  0.00    +0.000 A 
ATOM      5  C   UNL     1      -8.351   1.534  -0.420  0.00  0.00    +0.000 A 
ATOM      6  C   UNL     1      -8.637   0.168  -0.294  0.00  0.00    +0.000 A 
ATOM      7  C   UNL     1      -7.619  -0.781  -0.407  0.00  0.00    +0.000 A 
ATOM      8  C   UNL     1      -6.326  -0.343  -0.646  0.00  0.00    +0.000 A 
ATOM      9  S   UNL     1      -4.874  -1.334  -0.828  0.00  0.00    +0.000 S 
ENDROOT
BRANCH   1  14
ATOM     10  C   UNL     1       1.826  -0.280  -1.861  0.00  0.00    +0.000 C 
ATOM     11  C   UNL     1       0.347  -0.209  -1.630  0.00  0.00    +0.000 A 
ATOM     12  C   UNL     1      -0.408  -1.370  -1.472  0.00  0.00    +0.000 A 
ATOM     13  C   UNL     1      -1.796  -1.299  -1.287  0.00  0.00    +0.000 A 
ATOM     14  C   UNL     1      -2.489  -0.075  -1.260  0.00  0.00    +0.000 A 
ATOM     15  C   UNL     1      -1.704   1.079  -1.442  0.00  0.00    +0.000 A 
ATOM     16  C   UNL     1      -0.315   1.017  -1.628  0.00  0.00    +0.000 A 
ENDBRANCH   1  14
TORSDOF 1
