MODEL 1
REMARK VINA RESULT:      -5.1      0.000      0.000
REMARK  Name = *****
REMARK  3 active torsions:
REMARK  status: ('A' for Active; 'I' for Inactive)
REMARK    1  A    between atoms: C_4  and  C_7
REMARK    2  A    between atoms: C_8  and  C_9
REMARK    3  A    between atoms: N_15  and  N_16
REMARK                            x       y       z     vdW  Elec       q    Type
REMARK                         _______ _______ _______ _____ _____    ______ ____
ROOT
ATOM      1  C   UNL     1      86.132  57.609  91.552  0.00  0.00    +0.000 C 
ATOM      2  C   UNL     1      85.420  57.701  92.880  0.00  0.00    +0.000 C 
ATOM      3  C   UNL     1      84.383  56.922  93.215  0.00  0.00    +0.000 C 
ATOM      4  C   UNL     1      83.875  55.924  92.313  0.00  0.00    +0.000 C 
ATOM      5  C   UNL     1      84.466  55.631  91.148  0.00  0.00    +0.000 C 
ATOM      6  C   UNL     1      85.695  56.366  90.725  0.00  0.00    +0.000 C 
ATOM      7  N   UNL     1      86.321  55.903  89.678  0.00  0.00    +0.000 NA
ENDROOT
BRANCH   1   9
ATOM      8  C   UNL     1      84.909  59.722  90.806  0.00  0.00    +0.000 C 
ATOM      9  C   UNL     1      85.985  58.916  90.804  0.00  0.00    +0.000 C 
BRANCH   8  13
ATOM     10  C   UNL     1      84.553  63.317  88.515  0.00  0.00    +0.000 A 
ATOM     11  C   UNL     1      85.773  62.646  88.556  0.00  0.00    +0.000 A 
ATOM     12  C   UNL     1      85.904  61.477  89.309  0.00  0.00    +0.000 A 
ATOM     13  C   UNL     1      84.820  60.972  90.039  0.00  0.00    +0.000 A 
ATOM     14  C   UNL     1      83.594  61.647  89.977  0.00  0.00    +0.000 A 
ATOM     15  C   UNL     1      83.463  62.816  89.223  0.00  0.00    +0.000 A 
ENDBRANCH   8  13
ENDBRANCH   1   9
BRANCH   7  16
ATOM     16  N   UNL     1      87.483  56.559  89.277  0.00  0.00    +0.000 NA
ATOM     17  O   UNL     1      87.967  56.023  88.276  0.00  0.00    +0.000 OA
ENDBRANCH   7  16
TORSDOF 3
ENDMDL
