MODEL 1
REMARK VINA RESULT:      -4.4      0.000      0.000
REMARK  Name = *****
REMARK  3 active torsions:
REMARK  status: ('A' for Active; 'I' for Inactive)
REMARK    1  A    between atoms: C_4  and  C_7
REMARK    2  A    between atoms: C_7  and  O_8
REMARK    3  A    between atoms: O_8  and  C_9
REMARK                            x       y       z     vdW  Elec       q    Type
REMARK                         _______ _______ _______ _____ _____    ______ ____
ROOT
ATOM      1  O   UNL     1     102.845 126.112  82.460  0.00  0.00    +0.000 OA
ENDROOT
BRANCH   1   2
ATOM      2  C   UNL     1     103.669 125.337  81.687  0.00  0.00    +0.000 A 
ATOM      3  C   UNL     1     104.135 124.059  82.010  0.00  0.00    +0.000 A 
ATOM      4  C   UNL     1     104.980 123.353  81.151  0.00  0.00    +0.000 A 
ATOM      5  C   UNL     1     105.381 123.918  79.944  0.00  0.00    +0.000 A 
ATOM      6  C   UNL     1     104.933 125.191  79.602  0.00  0.00    +0.000 A 
ATOM      7  C   UNL     1     104.085 125.895  80.467  0.00  0.00    +0.000 A 
ATOM      8 CL   UNL     1     103.563 127.470  79.971  0.00  0.00    +0.000 Cl
ATOM      9  F   UNL     1     103.794 123.458  83.160  0.00  0.00    +0.000 F 
ENDBRANCH   1   2
BRANCH   1  10
ATOM     10  C   UNL     1     101.435 125.959  82.304  0.00  0.00    +0.000 C 
BRANCH  10  14
ATOM     11  C   UNL     1      99.368 129.522  83.620  0.00  0.00    +0.000 A 
ATOM     12  C   UNL     1     100.743 129.408  83.816  0.00  0.00    +0.000 A 
ATOM     13  C   UNL     1     101.416 128.257  83.403  0.00  0.00    +0.000 A 
ATOM     14  C   UNL     1     100.720 127.199  82.800  0.00  0.00    +0.000 A 
ATOM     15  C   UNL     1      99.338 127.333  82.595  0.00  0.00    +0.000 A 
ATOM     16  C   UNL     1      98.666 128.486  83.008  0.00  0.00    +0.000 A 
ENDBRANCH  10  14
ENDBRANCH   1  10
TORSDOF 3
ENDMDL
