MODEL 1
REMARK VINA RESULT:      -5.0      0.000      0.000
REMARK  Name = *****
REMARK  3 active torsions:
REMARK  status: ('A' for Active; 'I' for Inactive)
REMARK    1  A    between atoms: C_1  and  C_2
REMARK    2  A    between atoms: C_2  and  C_13
REMARK    3  A    between atoms: C_4  and  C_7
REMARK                            x       y       z     vdW  Elec       q    Type
REMARK                         _______ _______ _______ _____ _____    ______ ____
ROOT
ATOM      1  C   UNL     1      89.609  71.111  85.302  0.00  0.00    +0.000 C 
ATOM      2  C   UNL     1      88.897  69.968  86.032  0.00  0.00    +0.000 C 
ATOM      3  C   UNL     1      89.848  68.831  86.345  0.00  0.00    +0.000 C 
ATOM      4  C   UNL     1      88.900  67.657  86.416  0.00  0.00    +0.000 C 
ATOM      5  O   UNL     1      87.868  67.937  85.460  0.00  0.00    +0.000 OA
ATOM      6  O   UNL     1      87.991  69.363  85.092  0.00  0.00    +0.000 OA
ENDROOT
BRANCH   4   7
ATOM      7  C   UNL     1      89.589  66.340  86.134  0.00  0.00    +0.000 A 
ATOM      8  C   UNL     1      90.874  66.333  85.568  0.00  0.00    +0.000 A 
ATOM      9  C   UNL     1      91.514  65.127  85.274  0.00  0.00    +0.000 A 
ATOM     10  C   UNL     1      90.878  63.916  85.536  0.00  0.00    +0.000 A 
ATOM     11  C   UNL     1      89.601  63.909  86.092  0.00  0.00    +0.000 A 
ATOM     12  C   UNL     1      88.959  65.112  86.387  0.00  0.00    +0.000 A 
ENDBRANCH   4   7
BRANCH   2  13
ATOM     13  C   UNL     1      88.162  70.510  87.259  0.00  0.00    +0.000 A 
ATOM     14  C   UNL     1      86.847  70.998  87.168  0.00  0.00    +0.000 A 
ATOM     15  C   UNL     1      86.187  71.501  88.291  0.00  0.00    +0.000 A 
ATOM     16  C   UNL     1      86.831  71.532  89.526  0.00  0.00    +0.000 A 
ATOM     17  C   UNL     1      88.137  71.062  89.636  0.00  0.00    +0.000 A 
ATOM     18  C   UNL     1      88.797  70.557  88.513  0.00  0.00    +0.000 A 
ENDBRANCH   2  13
TORSDOF 2
ENDMDL
