MODEL 1
REMARK VINA RESULT:      -5.4      0.000      0.000
REMARK  Name = *****
REMARK  2 active torsions:
REMARK  status: ('A' for Active; 'I' for Inactive)
REMARK    1  A    between atoms: C_1  and  C_2
REMARK    2  A    between atoms: C_5  and  C_8
REMARK                            x       y       z     vdW  Elec       q    Type
REMARK                         _______ _______ _______ _____ _____    ______ ____
ROOT
ATOM      1  C   UNL     1     102.916 125.643  81.934  0.00  0.00    +0.000 C 
ATOM      2  C   UNL     1     103.455 124.694  82.720  0.00  0.00    +0.000 C 
ATOM      3  C   UNL     1     104.289 123.627  82.150  0.00  0.00    +0.000 A 
ATOM      4  C   UNL     1     104.617 122.500  82.912  0.00  0.00    +0.000 A 
ATOM      5  C   UNL     1     105.421 121.495  82.372  0.00  0.00    +0.000 A 
ATOM      6  C   UNL     1     105.912 121.615  81.072  0.00  0.00    +0.000 A 
ATOM      7  C   UNL     1     105.599 122.739  80.308  0.00  0.00    +0.000 A 
ATOM      8  C   UNL     1     104.778 123.744  80.837  0.00  0.00    +0.000 A 
ATOM      9  C   UNL     1     104.483 124.993  80.045  0.00  0.00    +0.000 C 
ATOM     10  C   UNL     1     103.146 125.635  80.439  0.00  0.00    +0.000 C 
ENDROOT
BRANCH   1  15
ATOM     11  C   UNL     1      99.498 129.815  84.080  0.00  0.00    +0.000 C 
ATOM     12  C   UNL     1     100.380 128.722  83.554  0.00  0.00    +0.000 A 
ATOM     13  C   UNL     1     101.771 128.838  83.627  0.00  0.00    +0.000 A 
ATOM     14  C   UNL     1     102.595 127.834  83.107  0.00  0.00    +0.000 A 
ATOM     15  C   UNL     1     102.047 126.697  82.497  0.00  0.00    +0.000 A 
ATOM     16  C   UNL     1     100.652 126.598  82.408  0.00  0.00    +0.000 A 
ATOM     17  C   UNL     1      99.827 127.601  82.928  0.00  0.00    +0.000 A 
ENDBRANCH   1  15
TORSDOF 1
ENDMDL
