MODEL 1
REMARK VINA RESULT:      -5.0      0.000      0.000
REMARK  Name = *****
REMARK  4 active torsions:
REMARK  status: ('A' for Active; 'I' for Inactive)
REMARK    1  A    between atoms: C_3  and  C_12
REMARK    2  A    between atoms: C_5  and  C_7
REMARK    3  A    between atoms: C_12  and  O_14
REMARK    4  A    between atoms: O_14  and  C_15
REMARK                            x       y       z     vdW  Elec       q    Type
REMARK                         _______ _______ _______ _____ _____    ______ ____
ROOT
ATOM      1  C   UNL     1     104.224 123.807  84.061  0.00  0.00    +0.000 A 
ATOM      2  C   UNL     1     103.450 124.871  83.596  0.00  0.00    +0.000 A 
ATOM      3  C   UNL     1     103.339 125.117  82.219  0.00  0.00    +0.000 A 
ATOM      4  C   UNL     1     103.995 124.271  81.321  0.00  0.00    +0.000 A 
ATOM      5  C   UNL     1     104.773 123.203  81.774  0.00  0.00    +0.000 A 
ATOM      6  C   UNL     1     104.886 122.978  83.155  0.00  0.00    +0.000 A 
ATOM      7  F   UNL     1     103.870 124.449  79.997  0.00  0.00    +0.000 F 
ENDROOT
BRANCH   5   8
ATOM      8  C   UNL     1     105.462 122.327  80.770  0.00  0.00    +0.000 C 
ATOM      9  F   UNL     1     106.251 121.379  81.347  0.00  0.00    +0.000 F 
ATOM     10  F   UNL     1     104.590 121.662  79.964  0.00  0.00    +0.000 F 
ATOM     11  F   UNL     1     106.281 123.022  79.929  0.00  0.00    +0.000 F 
ENDBRANCH   5   8
BRANCH   3  12
ATOM     12  C   UNL     1     102.499 126.258  81.785  0.00  0.00    +0.000 C 
ATOM     13  O   UNL     1     102.930 127.149  81.066  0.00  0.00    +0.000 OA
BRANCH  12  14
ATOM     14  O   UNL     1     101.210 126.102  82.246  0.00  0.00    +0.000 OA
BRANCH  14  15
ATOM     15  C   UNL     1     100.698 127.256  82.842  0.00  0.00    +0.000 A 
ATOM     16  C   UNL     1     101.541 128.076  83.590  0.00  0.00    +0.000 A 
ATOM     17  C   UNL     1     101.030 129.252  84.143  0.00  0.00    +0.000 A 
ATOM     18  C   UNL     1      99.694 129.597  83.925  0.00  0.00    +0.000 A 
ATOM     19  C   UNL     1      98.863 128.780  83.156  0.00  0.00    +0.000 A 
ATOM     20  C   UNL     1      99.369 127.603  82.603  0.00  0.00    +0.000 A 
ATOM     21 CL   UNL     1      99.069 131.049  84.605  0.00  0.00    +0.000 Cl
ENDBRANCH  14  15
ENDBRANCH  12  14
ENDBRANCH   3  12
TORSDOF 4
ENDMDL
