MODEL 1
REMARK VINA RESULT:      -4.8      0.000      0.000
REMARK  Name = *****
REMARK  5 active torsions:
REMARK  status: ('A' for Active; 'I' for Inactive)
REMARK    1  A    between atoms: C_1  and  O_2
REMARK    2  A    between atoms: O_2  and  C_3
REMARK    3  A    between atoms: C_3  and  C_5
REMARK    4  A    between atoms: C_8  and  C_11
REMARK    5  A    between atoms: C_12  and  C_13
REMARK                            x       y       z     vdW  Elec       q    Type
REMARK                         _______ _______ _______ _____ _____    ______ ____
ROOT
ATOM      1  C   UNL     1     105.831 122.927  80.828  0.00  0.00    +0.000 A 
ATOM      2  C   UNL     1     105.550 123.846  79.810  0.00  0.00    +0.000 A 
ATOM      3  C   UNL     1     104.534 124.795  79.978  0.00  0.00    +0.000 A 
ATOM      4  C   UNL     1     103.778 124.833  81.157  0.00  0.00    +0.000 A 
ATOM      5  C   UNL     1     104.076 123.923  82.179  0.00  0.00    +0.000 A 
ATOM      6  C   UNL     1     105.090 122.974  82.015  0.00  0.00    +0.000 A 
ENDROOT
BRANCH   1   7
ATOM      7  C   UNL     1     106.898 121.897  80.705  0.00  0.00    +0.000 C 
ATOM      8  O   UNL     1     108.001 122.121  80.232  0.00  0.00    +0.000 OA
BRANCH   7  10
ATOM      9  C   UNL     1     107.519 119.872  81.689  0.00  0.00    +0.000 C 
ATOM     10  O   UNL     1     106.470 120.703  81.188  0.00  0.00    +0.000 OA
ENDBRANCH   7  10
ENDBRANCH   1   7
BRANCH   4  11
ATOM     11  C   UNL     1     102.725 125.834  81.381  0.00  0.00    +0.000 C 
ATOM     12  C   UNL     1     102.045 125.957  82.533  0.00  0.00    +0.000 C 
BRANCH  12  13
ATOM     13  C   UNL     1     101.005 126.970  82.762  0.00  0.00    +0.000 A 
ATOM     14  C   UNL     1      99.669 126.769  82.390  0.00  0.00    +0.000 A 
ATOM     15  C   UNL     1      98.703 127.744  82.654  0.00  0.00    +0.000 A 
ATOM     16  C   UNL     1      99.061 128.924  83.301  0.00  0.00    +0.000 A 
ATOM     17  C   UNL     1     100.382 129.130  83.691  0.00  0.00    +0.000 A 
ATOM     18  C   UNL     1     101.348 128.155  83.428  0.00  0.00    +0.000 A 
ENDBRANCH  12  13
ENDBRANCH   4  11
TORSDOF 4
ENDMDL
