MODEL 1
REMARK VINA RESULT:      -4.7      0.000      0.000
REMARK  Name = *****
REMARK  4 active torsions:
REMARK  status: ('A' for Active; 'I' for Inactive)
REMARK    1  A    between atoms: C_5  and  C_7
REMARK    2  A    between atoms: C_7  and  S_8
REMARK    3  A    between atoms: S_8  and  C_9
REMARK    4  A    between atoms: C_13  and  C_15
REMARK                            x       y       z     vdW  Elec       q    Type
REMARK                         _______ _______ _______ _____ _____    ______ ____
ROOT
ATOM      1  C   UNL     1     104.319 125.323  80.584  0.00  0.00    +0.000 A 
ATOM      2  C   UNL     1     105.260 125.435  79.557  0.00  0.00    +0.000 A 
ATOM      3  C   UNL     1     106.040 124.337  79.193  0.00  0.00    +0.000 A 
ATOM      4  C   UNL     1     105.875 123.116  79.846  0.00  0.00    +0.000 A 
ATOM      5  C   UNL     1     104.918 122.977  80.861  0.00  0.00    +0.000 A 
ATOM      6  C   UNL     1     104.146 124.094  81.226  0.00  0.00    +0.000 A 
ENDROOT
BRANCH   5   7
ATOM      7  C   UNL     1     104.739 121.663  81.581  0.00  0.00    +0.000 C 
ATOM      8  F   UNL     1     104.163 121.796  82.808  0.00  0.00    +0.000 F 
ATOM      9  F   UNL     1     103.945 120.801  80.887  0.00  0.00    +0.000 F 
ATOM     10  F   UNL     1     105.912 121.006  81.790  0.00  0.00    +0.000 F 
ENDBRANCH   5   7
BRANCH   1  11
ATOM     11  S   UNL     1     103.334 126.744  81.021  0.00  0.00    +0.000 S 
BRANCH  11  12
ATOM     12  C   UNL     1     102.122 125.946  82.132  0.00  0.00    +0.000 C 
BRANCH  12  17
ATOM     13  C   UNL     1     100.280 128.908  83.627  0.00  0.00    +0.000 A 
ATOM     14  C   UNL     1      98.974 128.568  83.296  0.00  0.00    +0.000 A 
ATOM     15  C   UNL     1      98.762 127.390  82.601  0.00  0.00    +0.000 A 
ATOM     16  N   UNL     1      99.750 126.548  82.229  0.00  0.00    +0.000 NA
ATOM     17  C   UNL     1     101.023 126.893  82.551  0.00  0.00    +0.000 A 
ATOM     18  C   UNL     1     101.321 128.061  83.253  0.00  0.00    +0.000 A 
ENDBRANCH  12  17
ENDBRANCH  11  12
ENDBRANCH   1  11
TORSDOF 4
ENDMDL
