REMARK  Name = *****
REMARK  5 active torsions:
REMARK  status: ('A' for Active; 'I' for Inactive)
REMARK    1  A    between atoms: C_1  and  C_2
REMARK    2  A    between atoms: C_4  and  C_10
REMARK    3  A    between atoms: C_6  and  O_8
REMARK    4  A    between atoms: O_8  and  C_9
REMARK    5  A    between atoms: C_11  and  C_12
REMARK                            x       y       z     vdW  Elec       q    Type
REMARK                         _______ _______ _______ _____ _____    ______ ____
ROOT
ATOM      1  C   UNL     1       1.120  -0.100  -0.070  0.00  0.00    +0.000 C 
ATOM      2  C   UNL     1       2.619  -0.076  -0.074  0.00  0.00    +0.000 A 
ATOM      3  C   UNL     1       3.361  -1.261  -0.098  0.00  0.00    +0.000 A 
ATOM      4  C   UNL     1       4.758  -1.217  -0.105  0.00  0.00    +0.000 A 
ATOM      5  C   UNL     1       5.426   0.013  -0.090  0.00  0.00    +0.000 A 
ATOM      6  C   UNL     1       4.697   1.202  -0.069  0.00  0.00    +0.000 A 
ATOM      7  C   UNL     1       3.299   1.150  -0.062  0.00  0.00    +0.000 A 
ENDROOT
BRANCH   6   8
ATOM      8  O   UNL     1       5.220   2.466  -0.055  0.00  0.00    +0.000 OA
ATOM      9  C   UNL     1       6.638   2.576  -0.066  0.00  0.00    +0.000 C 
ENDBRANCH   6   8
BRANCH   4  10
ATOM     10  C   UNL     1       5.509  -2.434  -0.127  0.00  0.00    +0.000 C 
ATOM     11  C   UNL     1       6.143  -3.455  -0.146  0.00  0.00    +0.000 C 
BRANCH  11  12
ATOM     12  C   UNL     1       6.898  -4.670  -0.169  0.00  0.00    +0.000 A 
ATOM     13  C   UNL     1       8.277  -4.632  -0.390  0.00  0.00    +0.000 A 
ATOM     14  C   UNL     1       9.014  -5.818  -0.411  0.00  0.00    +0.000 A 
ATOM     15  C   UNL     1       8.373  -7.041  -0.212  0.00  0.00    +0.000 A 
ATOM     16  C   UNL     1       6.997  -7.081   0.009  0.00  0.00    +0.000 A 
ATOM     17  C   UNL     1       6.258  -5.896   0.031  0.00  0.00    +0.000 A 
ENDBRANCH  11  12
ENDBRANCH   4  10
TORSDOF 3
