MODEL 1
REMARK VINA RESULT:      -4.7      0.000      0.000
REMARK  Name = *****
REMARK  3 active torsions:
REMARK  status: ('A' for Active; 'I' for Inactive)
REMARK    1  A    between atoms: C_3  and  N_8
REMARK    2  A    between atoms: N_8  and  C_9
REMARK    3  A    between atoms: C_9  and  C_11
REMARK                            x       y       z     vdW  Elec       q    Type
REMARK                         _______ _______ _______ _____ _____    ______ ____
ROOT
ATOM      1  N   UNL     1      89.028  63.828  88.005  0.00  0.00    +0.000 N 
ATOM      2  H   UNL     1      89.936  63.697  88.362  0.00  0.00    +0.000 HD
ENDROOT
BRANCH   1   5
ATOM      3  C   UNL     1      86.961  63.808  91.073  0.00  0.00    +0.000 A 
ATOM      4  C   UNL     1      87.935  64.112  90.116  0.00  0.00    +0.000 A 
ATOM      5  C   UNL     1      88.005  63.419  88.894  0.00  0.00    +0.000 A 
ATOM      6  C   UNL     1      87.058  62.429  88.645  0.00  0.00    +0.000 A 
ATOM      7  C   UNL     1      86.089  62.131  89.603  0.00  0.00    +0.000 A 
ATOM      8  C   UNL     1      86.033  62.807  90.814  0.00  0.00    +0.000 A 
ATOM      9  F   UNL     1      85.182  61.178  89.345  0.00  0.00    +0.000 F 
ENDBRANCH   1   5
BRANCH   1  10
ATOM     10  C   UNL     1      89.003  64.379  86.729  0.00  0.00    +0.000 C 
ATOM     11  S   UNL     1      89.025  63.615  85.238  0.00  0.00    +0.000 S 
BRANCH  10  12
ATOM     12  C   UNL     1      88.999  65.872  86.783  0.00  0.00    +0.000 A 
ATOM     13  C   UNL     1      87.908  66.562  87.328  0.00  0.00    +0.000 A 
ATOM     14  C   UNL     1      87.912  67.958  87.343  0.00  0.00    +0.000 A 
ATOM     15  C   UNL     1      88.998  68.656  86.813  0.00  0.00    +0.000 A 
ATOM     16  C   UNL     1      90.085  67.971  86.266  0.00  0.00    +0.000 A 
ATOM     17  C   UNL     1      90.087  66.575  86.247  0.00  0.00    +0.000 A 
ATOM     18 CL   UNL     1      88.998  70.377  86.831  0.00  0.00    +0.000 Cl
ENDBRANCH  10  12
ENDBRANCH   1  10
TORSDOF 3
ENDMDL
