MODEL 1
REMARK VINA RESULT:      -5.0      0.000      0.000
REMARK  Name = *****
REMARK  1 active torsions:
REMARK  status: ('A' for Active; 'I' for Inactive)
REMARK    1  A    between atoms: C_6  and  C_7
REMARK                            x       y       z     vdW  Elec       q    Type
REMARK                         _______ _______ _______ _____ _____    ______ ____
ROOT
ATOM      1  C   UNL     1     102.420 126.118  82.462  0.00  0.00    +0.000 A 
ATOM      2  N   UNL     1     102.662 127.257  83.088  0.00  0.00    +0.000 NA
ATOM      3  C   UNL     1     101.428 127.848  83.187  0.00  0.00    +0.000 A 
ATOM      4  C   UNL     1     100.470 127.030  82.609  0.00  0.00    +0.000 A 
ATOM      5  O   UNL     1     101.100 125.915  82.140  0.00  0.00    +0.000 OA
ATOM      6  C   UNL     1      99.114 127.325  82.536  0.00  0.00    +0.000 A 
ATOM      7  C   UNL     1      98.732 128.549  83.101  0.00  0.00    +0.000 A 
ATOM      8  C   UNL     1      99.676 129.400  83.693  0.00  0.00    +0.000 A 
ATOM      9  C   UNL     1     101.036 129.069  83.748  0.00  0.00    +0.000 A 
ATOM     10 CL   UNL     1      99.149 130.893  84.372  0.00  0.00    +0.000 Cl
ENDROOT
BRANCH   1  16
ATOM     11  C   UNL     1     103.863 124.142  83.007  0.00  0.00    +0.000 A 
ATOM     12  C   UNL     1     104.761 123.145  82.608  0.00  0.00    +0.000 A 
ATOM     13  C   UNL     1     105.160 123.062  81.276  0.00  0.00    +0.000 A 
ATOM     14  C   UNL     1     104.670 123.969  80.339  0.00  0.00    +0.000 A 
ATOM     15  C   UNL     1     103.773 124.964  80.739  0.00  0.00    +0.000 A 
ATOM     16  C   UNL     1     103.358 125.065  82.078  0.00  0.00    +0.000 A 
ATOM     17 CL   UNL     1     106.262 121.837  80.786  0.00  0.00    +0.000 Cl
ENDBRANCH   1  16
TORSDOF 1
ENDMDL
