REMARK  Name = *****
REMARK  3 active torsions:
REMARK  status: ('A' for Active; 'I' for Inactive)
REMARK    1  A    between atoms: C_1  and  O_2
REMARK    2  A    between atoms: O_2  and  C_3
REMARK    3  A    between atoms: C_6  and  C_7
REMARK                            x       y       z     vdW  Elec       q    Type
REMARK                         _______ _______ _______ _____ _____    ______ ____
ROOT
ATOM      1  C   UNL     1       3.139  -1.168  -0.719  0.00  0.00    +0.000 C 
ATOM      2  N   UNL     1       2.917  -1.545  -1.942  0.00  0.00    +0.000 NA
ATOM      3  C   UNL     1       3.831  -2.565  -2.173  0.00  0.00    +0.000 C 
ATOM      4  C   UNL     1       3.961  -3.247  -3.319  0.00  0.00    +0.000 C 
ATOM      5  C   UNL     1       4.649  -2.796  -0.975  0.00  0.00    +0.000 A 
ATOM      6  C   UNL     1       5.679  -3.663  -0.657  0.00  0.00    +0.000 A 
ATOM      7  C   UNL     1       6.235  -3.584   0.627  0.00  0.00    +0.000 A 
ATOM      8  C   UNL     1       5.761  -2.648   1.568  0.00  0.00    +0.000 A 
ATOM      9  C   UNL     1       4.721  -1.776   1.242  0.00  0.00    +0.000 A 
ATOM     10  C   UNL     1       4.196  -1.881  -0.031  0.00  0.00    +0.000 A 
ENDROOT
BRANCH   4  11
ATOM     11  C   UNL     1       3.143  -2.994  -4.507  0.00  0.00    +0.000 A 
ATOM     12  C   UNL     1       3.554  -2.055  -5.458  0.00  0.00    +0.000 A 
ATOM     13  C   UNL     1       2.783  -1.825  -6.599  0.00  0.00    +0.000 A 
ATOM     14  C   UNL     1       1.596  -2.532  -6.793  0.00  0.00    +0.000 A 
ATOM     15  C   UNL     1       1.178  -3.465  -5.845  0.00  0.00    +0.000 A 
ATOM     16  C   UNL     1       1.948  -3.695  -4.703  0.00  0.00    +0.000 A 
ENDBRANCH   4  11
BRANCH   1  18
ATOM     17  C   UNL     1       1.471   0.464  -0.740  0.00  0.00    +0.000 C 
ATOM     18  O   UNL     1       2.510  -0.206  -0.024  0.00  0.00    +0.000 OA
ENDBRANCH   1  18
TORSDOF 2
