MODEL 1
REMARK VINA RESULT:      -4.9      0.000      0.000
REMARK  Name = *****
REMARK  5 active torsions:
REMARK  status: ('A' for Active; 'I' for Inactive)
REMARK    1  A    between atoms: C_1  and  N_2
REMARK    2  A    between atoms: N_2  and  C_3
REMARK    3  A    between atoms: N_2  and  C_4
REMARK    4  A    between atoms: C_7  and  C_10
REMARK    5  A    between atoms: C_11  and  C_12
REMARK                            x       y       z     vdW  Elec       q    Type
REMARK                         _______ _______ _______ _____ _____    ______ ____
ROOT
ATOM      1  C   UNL     1     105.877 122.508  81.148  0.00  0.00    +0.000 A 
ATOM      2  C   UNL     1     105.326 123.368  80.180  0.00  0.00    +0.000 A 
ATOM      3  C   UNL     1     104.336 124.313  80.491  0.00  0.00    +0.000 A 
ATOM      4  C   UNL     1     103.856 124.418  81.791  0.00  0.00    +0.000 A 
ATOM      5  C   UNL     1     104.365 123.575  82.771  0.00  0.00    +0.000 A 
ATOM      6  C   UNL     1     105.355 122.634  82.448  0.00  0.00    +0.000 A 
ENDROOT
BRANCH   1   8
ATOM      7  C   UNL     1     108.146 122.016  80.320  0.00  0.00    +0.000 C 
ATOM      8  N   UNL     1     106.853 121.556  80.825  0.00  0.00    +0.000 N 
ATOM      9  C   UNL     1     106.872 120.283  81.542  0.00  0.00    +0.000 C 
ENDBRANCH   1   8
BRANCH   4  10
ATOM     10  C   UNL     1     102.847 125.379  82.113  0.00  0.00    +0.000 C 
ATOM     11  C   UNL     1     101.998 126.181  82.390  0.00  0.00    +0.000 C 
BRANCH  11  12
ATOM     12  C   UNL     1     100.982 127.137  82.722  0.00  0.00    +0.000 A 
ATOM     13  C   UNL     1      99.653 126.842  82.394  0.00  0.00    +0.000 A 
ATOM     14  C   UNL     1      98.632 127.744  82.698  0.00  0.00    +0.000 A 
ATOM     15  C   UNL     1      98.931 128.948  83.334  0.00  0.00    +0.000 A 
ATOM     16  C   UNL     1     100.253 129.251  83.664  0.00  0.00    +0.000 A 
ATOM     17  C   UNL     1     101.278 128.349  83.360  0.00  0.00    +0.000 A 
ATOM     18 CL   UNL     1     102.894 128.789  83.794  0.00  0.00    +0.000 Cl
ENDBRANCH  11  12
ENDBRANCH   4  10
TORSDOF 3
ENDMDL
