MODEL 1
REMARK VINA RESULT:      -4.2      0.000      0.000
REMARK  Name = *****
REMARK  4 active torsions:
REMARK  status: ('A' for Active; 'I' for Inactive)
REMARK    1  A    between atoms: C_4  and  S_7
REMARK    2  A    between atoms: S_7  and  N_8
REMARK    3  A    between atoms: N_8  and  C_9
REMARK    4  A    between atoms: C_9  and  C_10
REMARK                            x       y       z     vdW  Elec       q    Type
REMARK                         _______ _______ _______ _____ _____    ______ ____
ROOT
ATOM      1  N   UNL     1     103.481 125.251  80.101  0.00  0.00    +0.000 NA
ENDROOT
BRANCH   1   2
ATOM      2  S   UNL     1     103.721 126.878  80.411  0.00  0.00    +0.000 S 
BRANCH   2   6
ATOM      3  C   UNL     1     101.114 127.657  84.119  0.00  0.00    +0.000 A 
ATOM      4  C   UNL     1     100.862 126.530  83.339  0.00  0.00    +0.000 A 
ATOM      5  C   UNL     1     101.641 126.272  82.207  0.00  0.00    +0.000 A 
ATOM      6  C   UNL     1     102.679 127.138  81.843  0.00  0.00    +0.000 A 
ATOM      7  C   UNL     1     102.921 128.267  82.636  0.00  0.00    +0.000 A 
ATOM      8  C   UNL     1     102.144 128.525  83.768  0.00  0.00    +0.000 A 
ENDBRANCH   2   6
ENDBRANCH   1   2
BRANCH   1   9
ATOM      9  C   UNL     1     104.538 124.519  80.241  0.00  0.00    +0.000 C 
BRANCH   9  10
ATOM     10  C   UNL     1     104.553 123.348  81.143  0.00  0.00    +0.000 A 
ATOM     11  C   UNL     1     104.715 122.053  80.637  0.00  0.00    +0.000 A 
ATOM     12  C   UNL     1     104.726 120.964  81.512  0.00  0.00    +0.000 A 
ATOM     13  C   UNL     1     104.574 121.180  82.877  0.00  0.00    +0.000 A 
ATOM     14  C   UNL     1     104.412 122.463  83.388  0.00  0.00    +0.000 A 
ATOM     15  C   UNL     1     104.401 123.557  82.519  0.00  0.00    +0.000 A 
ATOM     16  F   UNL     1     104.584 120.135  83.715  0.00  0.00    +0.000 F 
ENDBRANCH   9  10
ENDBRANCH   1   9
TORSDOF 4
ENDMDL
