REMARK  Name = *****
REMARK  6 active torsions:
REMARK  status: ('A' for Active; 'I' for Inactive)
REMARK    1  A    between atoms: C_1  and  N_2
REMARK    2  A    between atoms: N_2  and  C_3
REMARK    3  A    between atoms: N_2  and  N_4
REMARK    4  A    between atoms: N_4  and  C_5
REMARK    5  A    between atoms: C_8  and  C_11
REMARK    6  A    between atoms: C_12  and  C_13
REMARK                            x       y       z     vdW  Elec       q    Type
REMARK                         _______ _______ _______ _____ _____    ______ ____
ROOT
ATOM      1  C   UNL     1       4.277  -0.924   1.123  0.00  0.00    +0.000 A 
ATOM      2  C   UNL     1       5.139   0.178   1.120  0.00  0.00    +0.000 A 
ATOM      3  C   UNL     1       6.512   0.023   1.347  0.00  0.00    +0.000 A 
ATOM      4  C   UNL     1       7.052  -1.238   1.619  0.00  0.00    +0.000 A 
ATOM      5  C   UNL     1       6.192  -2.341   1.643  0.00  0.00    +0.000 A 
ATOM      6  C   UNL     1       4.819  -2.182   1.415  0.00  0.00    +0.000 A 
ENDROOT
BRANCH   1   7
ATOM      7  N   UNL     1       2.877  -0.799   0.959  0.00  0.00    +0.000 N 
ATOM      8  H   UNL     1       2.278  -1.532   1.229  0.00  0.00    +0.000 HD
BRANCH   7  10
ATOM      9  C   UNL     1       2.146   0.211  -1.036  0.00  0.00    +0.000 C 
ATOM     10  N   UNL     1       2.347   0.386   0.405  0.00  0.00    +0.000 NA
ATOM     11  C   UNL     1       1.080   0.682   1.076  0.00  0.00    +0.000 C 
ENDBRANCH   7  10
ENDBRANCH   1   7
BRANCH   4  12
ATOM     12  C   UNL     1       8.490  -1.452   1.830  0.00  0.00    +0.000 C 
ATOM     13  C   UNL     1       9.285  -0.595   2.493  0.00  0.00    +0.000 C 
BRANCH  13  14
ATOM     14  C   UNL     1      10.721  -0.819   2.717  0.00  0.00    +0.000 A 
ATOM     15  C   UNL     1      11.553  -1.374   1.736  0.00  0.00    +0.000 A 
ATOM     16  C   UNL     1      12.920  -1.542   1.974  0.00  0.00    +0.000 A 
ATOM     17  C   UNL     1      13.470  -1.145   3.191  0.00  0.00    +0.000 A 
ATOM     18  C   UNL     1      12.656  -0.576   4.168  0.00  0.00    +0.000 A 
ATOM     19  C   UNL     1      11.289  -0.409   3.929  0.00  0.00    +0.000 A 
ENDBRANCH  13  14
ENDBRANCH   4  12
TORSDOF 4
