MODEL 1
REMARK VINA RESULT:      -4.4      0.000      0.000
REMARK  Name = *****
REMARK  4 active torsions:
REMARK  status: ('A' for Active; 'I' for Inactive)
REMARK    1  A    between atoms: C_1  and  O_2
REMARK    2  A    between atoms: O_2  and  C_3
REMARK    3  A    between atoms: C_6  and  C_9
REMARK    4  A    between atoms: C_9  and  C_10
REMARK                            x       y       z     vdW  Elec       q    Type
REMARK                         _______ _______ _______ _____ _____    ______ ____
ROOT
ATOM      1  C   UNL     1      89.201  65.662  86.678  0.00  0.00    +0.000 A 
ATOM      2  C   UNL     1      88.049  66.208  87.246  0.00  0.00    +0.000 A 
ATOM      3  C   UNL     1      87.875  67.597  87.286  0.00  0.00    +0.000 A 
ATOM      4  C   UNL     1      88.845  68.456  86.754  0.00  0.00    +0.000 A 
ATOM      5  C   UNL     1      90.001  67.901  86.191  0.00  0.00    +0.000 A 
ATOM      6  C   UNL     1      90.172  66.515  86.153  0.00  0.00    +0.000 A 
ENDROOT
BRANCH   1   8
ATOM      7  C   UNL     1      90.477  63.960  85.617  0.00  0.00    +0.000 C 
ATOM      8  O   UNL     1      89.494  64.329  86.576  0.00  0.00    +0.000 OA
ENDBRANCH   1   8
BRANCH   4   9
ATOM      9  C   UNL     1      88.666  69.954  86.811  0.00  0.00    +0.000 C 
BRANCH   9  10
ATOM     10  C   UNL     1      88.986  70.511  88.171  0.00  0.00    +0.000 C 
ATOM     11  C   UNL     1      88.140  70.764  89.190  0.00  0.00    +0.000 C 
ATOM     12  C   UNL     1      86.642  70.561  89.163  0.00  0.00    +0.000 C 
ATOM     13  C   UNL     1      85.910  71.853  89.529  0.00  0.00    +0.000 C 
ATOM     14  C   UNL     1      86.401  72.430  90.858  0.00  0.00    +0.000 C 
ATOM     15  C   UNL     1      87.917  72.621  90.859  0.00  0.00    +0.000 C 
ATOM     16  C   UNL     1      88.649  71.329  90.499  0.00  0.00    +0.000 C 
ENDBRANCH   9  10
ENDBRANCH   4   9
TORSDOF 3
ENDMDL
