MODEL 1
REMARK VINA RESULT:      -4.6      0.000      0.000
REMARK  Name = *****
REMARK  5 active torsions:
REMARK  status: ('A' for Active; 'I' for Inactive)
REMARK    1  A    between atoms: C_1  and  C_2
REMARK    2  A    between atoms: C_2  and  C_3
REMARK    3  A    between atoms: C_2  and  N_9
REMARK    4  A    between atoms: N_9  and  C_10
REMARK    5  A    between atoms: C_10  and  C_12
REMARK                            x       y       z     vdW  Elec       q    Type
REMARK                         _______ _______ _______ _____ _____    ______ ____
ROOT
ATOM      1  N   UNL     1      89.271  65.050  87.016  0.00  0.00    +0.000 N 
ATOM      2  H   UNL     1      89.749  65.120  87.874  0.00  0.00    +0.000 HD
ENDROOT
BRANCH   1   4
ATOM      3  C   UNL     1      90.930  66.200  85.592  0.00  0.00    +0.000 C 
ATOM      4  C   UNL     1      89.476  66.151  86.073  0.00  0.00    +0.000 C 
BRANCH   4   5
ATOM      5  C   UNL     1      89.024  67.448  86.724  0.00  0.00    +0.000 A 
ATOM      6  C   UNL     1      87.837  67.537  87.470  0.00  0.00    +0.000 A 
ATOM      7  C   UNL     1      87.437  68.752  88.031  0.00  0.00    +0.000 A 
ATOM      8  C   UNL     1      88.211  69.896  87.848  0.00  0.00    +0.000 A 
ATOM      9  C   UNL     1      89.383  69.828  87.099  0.00  0.00    +0.000 A 
ATOM     10  C   UNL     1      89.784  68.615  86.536  0.00  0.00    +0.000 A 
ENDBRANCH   4   5
ENDBRANCH   1   4
BRANCH   1  11
ATOM     11  C   UNL     1      88.485  63.923  86.844  0.00  0.00    +0.000 C 
ATOM     12  S   UNL     1      88.293  63.086  85.402  0.00  0.00    +0.000 S 
BRANCH  11  13
ATOM     13  C   UNL     1      87.781  63.505  88.090  0.00  0.00    +0.000 A 
ATOM     14  C   UNL     1      86.886  62.428  88.042  0.00  0.00    +0.000 A 
ATOM     15  C   UNL     1      86.204  62.038  89.196  0.00  0.00    +0.000 A 
ATOM     16  C   UNL     1      86.413  62.722  90.394  0.00  0.00    +0.000 A 
ATOM     17  C   UNL     1      87.304  63.795  90.444  0.00  0.00    +0.000 A 
ATOM     18  C   UNL     1      87.989  64.190  89.293  0.00  0.00    +0.000 A 
ENDBRANCH  11  13
ENDBRANCH   1  11
TORSDOF 4
ENDMDL
