MODEL 1
REMARK VINA RESULT:      -4.7      0.000      0.000
REMARK  Name = *****
REMARK  5 active torsions:
REMARK  status: ('A' for Active; 'I' for Inactive)
REMARK    1  A    between atoms: C_1  and  C_2
REMARK    2  A    between atoms: C_5  and  C_8
REMARK    3  A    between atoms: C_8  and  C_9
REMARK    4  A    between atoms: C_9  and  O_10
REMARK    5  A    between atoms: O_10  and  C_11
REMARK                            x       y       z     vdW  Elec       q    Type
REMARK                         _______ _______ _______ _____ _____    ______ ____
ROOT
ATOM      1  C   UNL     1      89.235  69.847  87.413  0.00  0.00    +0.000 C 
ENDROOT
BRANCH   1   6
ATOM      2  C   UNL     1      84.099  72.576  87.153  0.00  0.00    +0.000 C 
ATOM      3  C   UNL     1      85.428  71.886  87.231  0.00  0.00    +0.000 A 
ATOM      4  C   UNL     1      86.002  71.565  88.465  0.00  0.00    +0.000 A 
ATOM      5  C   UNL     1      87.238  70.916  88.526  0.00  0.00    +0.000 A 
ATOM      6  C   UNL     1      87.920  70.579  87.351  0.00  0.00    +0.000 A 
ATOM      7  C   UNL     1      87.343  70.896  86.115  0.00  0.00    +0.000 A 
ATOM      8  C   UNL     1      86.109  71.545  86.057  0.00  0.00    +0.000 A 
ENDBRANCH   1   6
BRANCH   1   9
ATOM      9  C   UNL     1      89.427  68.916  86.216  0.00  0.00    +0.000 C 
BRANCH   9  10
ATOM     10  O   UNL     1      90.432  67.958  86.554  0.00  0.00    +0.000 OA
BRANCH  10  11
ATOM     11  C   UNL     1      90.120  66.639  86.366  0.00  0.00    +0.000 A 
ATOM     12  C   UNL     1      89.044  65.960  86.939  0.00  0.00    +0.000 A 
ATOM     13  C   UNL     1      88.840  64.605  86.661  0.00  0.00    +0.000 A 
ATOM     14  C   UNL     1      89.710  63.924  85.810  0.00  0.00    +0.000 A 
ATOM     15  C   UNL     1      90.786  64.597  85.236  0.00  0.00    +0.000 A 
ATOM     16  C   UNL     1      90.988  65.950  85.516  0.00  0.00    +0.000 A 
ENDBRANCH  10  11
ENDBRANCH   9  10
ENDBRANCH   1   9
TORSDOF 4
ENDMDL
