REMARK  Name = *****
REMARK  3 active torsions:
REMARK  status: ('A' for Active; 'I' for Inactive)
REMARK    1  A    between atoms: C_4  and  C_7
REMARK    2  A    between atoms: C_8  and  S_10
REMARK    3  A    between atoms: S_10  and  C_11
REMARK                            x       y       z     vdW  Elec       q    Type
REMARK                         _______ _______ _______ _____ _____    ______ ____
ROOT
ATOM      1  C   UNL     1      -2.931   0.568  -0.054  0.00  0.00    +0.000 C 
ATOM      2  C   UNL     1      -3.822   0.458   1.167  0.00  0.00    +0.000 C 
ATOM      3  O   UNL     1      -3.905  -0.482   0.091  0.00  0.00    +0.000 OA
ENDROOT
BRANCH   1   7
ATOM      4  C   UNL     1       1.271  -0.494  -0.045  0.00  0.00    +0.000 A 
ATOM      5  C   UNL     1       0.337  -1.355  -0.614  0.00  0.00    +0.000 A 
ATOM      6  C   UNL     1      -1.018  -1.015  -0.612  0.00  0.00    +0.000 A 
ATOM      7  C   UNL     1      -1.472   0.186  -0.040  0.00  0.00    +0.000 A 
ATOM      8  C   UNL     1      -0.507   1.039   0.522  0.00  0.00    +0.000 A 
ATOM      9  C   UNL     1       0.850   0.704   0.523  0.00  0.00    +0.000 A 
ENDBRANCH   1   7
BRANCH   2  10
ATOM     10  S   UNL     1      -3.293  -0.196   2.687  0.00  0.00    +0.000 S 
BRANCH  10  11
ATOM     11  C   UNL     1      -4.878  -0.655   3.362  0.00  0.00    +0.000 A 
ATOM     12  C   UNL     1      -5.655  -1.653   2.766  0.00  0.00    +0.000 A 
ATOM     13  C   UNL     1      -6.892  -2.004   3.312  0.00  0.00    +0.000 A 
ATOM     14  C   UNL     1      -7.354  -1.363   4.461  0.00  0.00    +0.000 A 
ATOM     15  C   UNL     1      -6.579  -0.376   5.066  0.00  0.00    +0.000 A 
ATOM     16  C   UNL     1      -5.343  -0.024   4.520  0.00  0.00    +0.000 A 
ENDBRANCH  10  11
ENDBRANCH   2  10
TORSDOF 3
