MODEL 1
REMARK VINA RESULT:      -4.3      0.000      0.000
REMARK  Name = *****
REMARK  4 active torsions:
REMARK  status: ('A' for Active; 'I' for Inactive)
REMARK    1  A    between atoms: C_1  and  C_2
REMARK    2  A    between atoms: C_5  and  S_8
REMARK    3  A    between atoms: S_8  and  S_9
REMARK    4  A    between atoms: S_9  and  C_10
REMARK                            x       y       z     vdW  Elec       q    Type
REMARK                         _______ _______ _______ _____ _____    ______ ____
ROOT
ATOM      1  S   UNL     1     103.396 127.043  81.024  0.00  0.00    +0.000 S 
ENDROOT
BRANCH   1   6
ATOM      2  C   UNL     1     105.082 121.266  81.988  0.00  0.00    +0.000 C 
ATOM      3  C   UNL     1     104.693 122.696  81.759  0.00  0.00    +0.000 A 
ATOM      4  C   UNL     1     104.153 123.458  82.802  0.00  0.00    +0.000 A 
ATOM      5  C   UNL     1     103.760 124.782  82.583  0.00  0.00    +0.000 A 
ATOM      6  C   UNL     1     103.896 125.356  81.317  0.00  0.00    +0.000 A 
ATOM      7  C   UNL     1     104.414 124.591  80.268  0.00  0.00    +0.000 A 
ATOM      8  C   UNL     1     104.807 123.269  80.487  0.00  0.00    +0.000 A 
ENDBRANCH   1   6
BRANCH   1   9
ATOM      9  S   UNL     1     103.040 127.708  82.939  0.00  0.00    +0.000 S 
BRANCH   9  10
ATOM     10  C   UNL     1     101.260 127.771  82.971  0.00  0.00    +0.000 A 
ATOM     11  C   UNL     1     100.499 126.749  82.395  0.00  0.00    +0.000 A 
ATOM     12  C   UNL     1      99.105 126.805  82.426  0.00  0.00    +0.000 A 
ATOM     13  C   UNL     1      98.464 127.882  83.038  0.00  0.00    +0.000 A 
ATOM     14  C   UNL     1      99.215 128.902  83.620  0.00  0.00    +0.000 A 
ATOM     15  C   UNL     1     100.610 128.846  83.589  0.00  0.00    +0.000 A 
ENDBRANCH   9  10
ENDBRANCH   1   9
TORSDOF 3
ENDMDL
