MODEL 1
REMARK VINA RESULT:      -4.0      0.000      0.000
REMARK  Name = *****
REMARK  2 active torsions:
REMARK  status: ('A' for Active; 'I' for Inactive)
REMARK    1  A    between atoms: C_4  and  C_6
REMARK    2  A    between atoms: C_7  and  C_8
REMARK                            x       y       z     vdW  Elec       q    Type
REMARK                         _______ _______ _______ _____ _____    ______ ____
ROOT
ATOM      1  C   UNL     1     102.859 126.289  81.669  0.00  0.00    +0.000 C 
ATOM      2  C   UNL     1     101.904 126.070  82.586  0.00  0.00    +0.000 C 
ATOM      3  F   UNL     1     102.749 127.324  80.804  0.00  0.00    +0.000 F 
ENDROOT
BRANCH   1   7
ATOM      4  C   UNL     1     104.477 123.001  81.541  0.00  0.00    +0.000 C 
ATOM      5  C   UNL     1     105.124 123.648  80.327  0.00  0.00    +0.000 C 
ATOM      6  C   UNL     1     104.287 124.900  80.119  0.00  0.00    +0.000 C 
ATOM      7  C   UNL     1     104.084 125.424  81.544  0.00  0.00    +0.000 C 
ATOM      8  C   UNL     1     104.021 124.164  82.423  0.00  0.00    +0.000 C 
ENDBRANCH   1   7
BRANCH   2   9
ATOM      9  C   UNL     1     100.729 126.868  82.735  0.00  0.00    +0.000 A 
ATOM     10  C   UNL     1      99.423 126.680  82.311  0.00  0.00    +0.000 A 
ATOM     11  C   UNL     1      98.546 127.743  82.677  0.00  0.00    +0.000 A 
ATOM     12  C   UNL     1      99.200 128.728  83.377  0.00  0.00    +0.000 A 
ATOM     13  S   UNL     1     100.854 128.369  83.588  0.00  0.00    +0.000 S 
ENDBRANCH   2   9
TORSDOF 2
ENDMDL
