MODEL 1
REMARK VINA RESULT:      -4.8      0.000      0.000
REMARK  Name = *****
REMARK  2 active torsions:
REMARK  status: ('A' for Active; 'I' for Inactive)
REMARK    1  A    between atoms: C_3  and  S_10
REMARK    2  A    between atoms: S_10  and  C_11
REMARK                            x       y       z     vdW  Elec       q    Type
REMARK                         _______ _______ _______ _____ _____    ______ ____
ROOT
ATOM      1  C   UNL     1      98.668 127.998  82.670  0.00  0.00    +0.000 C 
ATOM      2  C   UNL     1      99.549 126.784  82.824  0.00  0.00    +0.000 C 
ATOM      3  C   UNL     1     100.685 127.059  83.484  0.00  0.00    +0.000 C 
ATOM      4  C   UNL     1     100.689 128.479  83.825  0.00  0.00    +0.000 A 
ATOM      5  C   UNL     1     101.618 129.260  84.496  0.00  0.00    +0.000 A 
ATOM      6  C   UNL     1     101.335 130.615  84.692  0.00  0.00    +0.000 A 
ATOM      7  C   UNL     1     100.138 131.174  84.219  0.00  0.00    +0.000 A 
ATOM      8  C   UNL     1      99.203 130.388  83.542  0.00  0.00    +0.000 A 
ATOM      9  C   UNL     1      99.494 129.046  83.355  0.00  0.00    +0.000 A 
ENDROOT
BRANCH   3  10
ATOM     10  S   UNL     1     101.956 125.994  83.867  0.00  0.00    +0.000 S 
BRANCH  10  11
ATOM     11  C   UNL     1     102.860 125.987  82.326  0.00  0.00    +0.000 A 
ATOM     12  C   UNL     1     102.898 127.105  81.483  0.00  0.00    +0.000 A 
ATOM     13  C   UNL     1     103.593 127.054  80.272  0.00  0.00    +0.000 A 
ATOM     14  C   UNL     1     104.243 125.882  79.889  0.00  0.00    +0.000 A 
ATOM     15  C   UNL     1     104.198 124.761  80.714  0.00  0.00    +0.000 A 
ATOM     16  C   UNL     1     103.507 124.812  81.927  0.00  0.00    +0.000 A 
ENDBRANCH  10  11
ENDBRANCH   3  10
TORSDOF 2
ENDMDL
