MODEL 1
REMARK VINA RESULT:      -4.5      0.000      0.000
REMARK  Name = *****
REMARK  3 active torsions:
REMARK  status: ('A' for Active; 'I' for Inactive)
REMARK    1  A    between atoms: C_3  and  C_9
REMARK    2  A    between atoms: C_9  and  O_11
REMARK    3  A    between atoms: O_11  and  C_12
REMARK                            x       y       z     vdW  Elec       q    Type
REMARK                         _______ _______ _______ _____ _____    ______ ____
ROOT
ATOM      1  C   UNL     1     102.534 125.391  82.999  0.00  0.00    +0.000 C 
ATOM      2  O   UNL     1     102.422 125.122  84.189  0.00  0.00    +0.000 OA
ENDROOT
BRANCH   1   5
ATOM      3  C   UNL     1     105.620 123.488  81.598  0.00  0.00    +0.000 C 
ATOM      4  C   UNL     1     104.361 123.739  82.437  0.00  0.00    +0.000 C 
ATOM      5  C   UNL     1     103.802 125.160  82.178  0.00  0.00    +0.000 C 
ATOM      6  C   UNL     1     103.490 125.282  80.671  0.00  0.00    +0.000 C 
ATOM      7  C   UNL     1     104.754 125.032  79.838  0.00  0.00    +0.000 C 
ATOM      8  C   UNL     1     105.951 124.725  80.753  0.00  0.00    +0.000 C 
ATOM      9  C   UNL     1     106.171 125.916  81.699  0.00  0.00    +0.000 C 
ATOM     10  C   UNL     1     104.912 126.175  82.537  0.00  0.00    +0.000 C 
ENDBRANCH   1   5
BRANCH   1  11
ATOM     11  O   UNL     1     101.529 125.903  82.179  0.00  0.00    +0.000 OA
BRANCH  11  12
ATOM     12  C   UNL     1     100.766 126.976  82.665  0.00  0.00    +0.000 A 
ATOM     13  C   UNL     1     101.357 128.095  83.251  0.00  0.00    +0.000 A 
ATOM     14  C   UNL     1     100.550 129.157  83.660  0.00  0.00    +0.000 A 
ATOM     15  C   UNL     1      99.169 129.103  83.462  0.00  0.00    +0.000 A 
ATOM     16  C   UNL     1      98.590 127.988  82.852  0.00  0.00    +0.000 A 
ATOM     17  C   UNL     1      99.391 126.923  82.444  0.00  0.00    +0.000 A 
ENDBRANCH  11  12
ENDBRANCH   1  11
TORSDOF 3
ENDMDL
