REMARK  Name = *****
REMARK  8 active torsions:
REMARK  status: ('A' for Active; 'I' for Inactive)
REMARK    1  A    between atoms: C_1  and  C_2
REMARK    2  A    between atoms: C_3  and  N_9
REMARK    3  A    between atoms: C_4  and  C_8
REMARK    4  A    between atoms: C_10  and  O_11
REMARK    5  A    between atoms: C_10  and  S_19
REMARK    6  A    between atoms: O_11  and  C_12
REMARK    7  A    between atoms: C_17  and  C_18
REMARK    8  A    between atoms: S_19  and  O_20
REMARK                            x       y       z     vdW  Elec       q    Type
REMARK                         _______ _______ _______ _____ _____    ______ ____
ROOT
ATOM      1  N   UNL     1       0.243   2.569  -0.254  0.00  0.00    +0.000 NA
ATOM      2  C   UNL     1       1.329   2.793  -0.940  0.00  0.00    +0.000 C 
ENDROOT
BRANCH   1   5
ATOM      3  C   UNL     1       1.118   2.108   2.453  0.00  0.00    +0.000 C 
ATOM      4  C   UNL     1       0.486   1.029   1.619  0.00  0.00    +0.000 A 
ATOM      5  C   UNL     1       0.074   1.284   0.295  0.00  0.00    +0.000 A 
ATOM      6  C   UNL     1      -0.550   0.266  -0.454  0.00  0.00    +0.000 A 
ATOM      7  C   UNL     1      -0.699  -1.011   0.106  0.00  0.00    +0.000 A 
ATOM      8  C   UNL     1      -0.262  -1.270   1.403  0.00  0.00    +0.000 A 
ATOM      9  C   UNL     1       0.323  -0.256   2.158  0.00  0.00    +0.000 A 
ATOM     10  C   UNL     1      -1.026   0.515  -1.859  0.00  0.00    +0.000 C 
ENDBRANCH   1   5
BRANCH   2  11
ATOM     11  O   UNL     1       2.292   1.800  -1.144  0.00  0.00    +0.000 OA
BRANCH  11  12
ATOM     12  C   UNL     1       3.421   2.073  -1.935  0.00  0.00    +0.000 A 
ATOM     13  C   UNL     1       3.318   1.900  -3.315  0.00  0.00    +0.000 A 
ATOM     14  C   UNL     1       4.432   2.142  -4.115  0.00  0.00    +0.000 A 
ATOM     15  C   UNL     1       5.635   2.537  -3.529  0.00  0.00    +0.000 A 
ATOM     16  C   UNL     1       5.732   2.682  -2.142  0.00  0.00    +0.000 A 
ATOM     17  C   UNL     1       4.626   2.435  -1.320  0.00  0.00    +0.000 A 
ATOM     18  C   UNL     1       4.732   2.585   0.167  0.00  0.00    +0.000 C 
ENDBRANCH  11  12
ENDBRANCH   2  11
BRANCH   2  19
ATOM     19  S   UNL     1       1.491   4.440  -1.597  0.00  0.00    +0.000 S 
BRANCH  19  20
ATOM     20  O   UNL     1       0.281   5.121  -0.660  0.00  0.00    +0.000 OA
ATOM     21  H   UNL     1       0.199   6.064  -0.872  0.00  0.00    +0.000 HD
ENDBRANCH  19  20
ENDBRANCH   2  19
TORSDOF 5
