MODEL 1
REMARK VINA RESULT:      -4.3      0.000      0.000
REMARK  Name = *****
REMARK  4 active torsions:
REMARK  status: ('A' for Active; 'I' for Inactive)
REMARK    1  A    between atoms: C_1  and  C_2
REMARK    2  A    between atoms: C_6  and  O_8
REMARK    3  A    between atoms: O_8  and  C_9
REMARK    4  A    between atoms: C_9  and  C_10
REMARK                            x       y       z     vdW  Elec       q    Type
REMARK                         _______ _______ _______ _____ _____    ______ ____
ROOT
ATOM      1  C   UNL     1      91.307  65.622  85.349  0.00  0.00    +0.000 C 
ATOM      2  C   UNL     1      90.106  66.241  86.003  0.00  0.00    +0.000 A 
ATOM      3  C   UNL     1      88.942  65.515  86.265  0.00  0.00    +0.000 A 
ATOM      4  C   UNL     1      87.871  66.163  86.877  0.00  0.00    +0.000 A 
ATOM      5  C   UNL     1      87.986  67.509  87.212  0.00  0.00    +0.000 A 
ATOM      6  C   UNL     1      89.173  68.158  86.920  0.00  0.00    +0.000 A 
ATOM      7  N   UNL     1      90.228  67.557  86.327  0.00  0.00    +0.000 NA
ATOM      8 BR   UNL     1      88.750  63.683  85.825  0.00  0.00    +0.000 Br
ENDROOT
BRANCH   6   9
ATOM      9  O   UNL     1      89.244  69.488  87.270  0.00  0.00    +0.000 OA
BRANCH   9  10
ATOM     10  C   UNL     1      88.805  70.363  86.233  0.00  0.00    +0.000 C 
BRANCH  10  11
ATOM     11  C   UNL     1      87.489  70.966  86.665  0.00  0.00    +0.000 A 
ATOM     12  C   UNL     1      87.152  71.037  88.024  0.00  0.00    +0.000 A 
ATOM     13  C   UNL     1      85.929  71.578  88.424  0.00  0.00    +0.000 A 
ATOM     14  C   UNL     1      85.028  72.044  87.468  0.00  0.00    +0.000 A 
ATOM     15  C   UNL     1      85.345  71.964  86.114  0.00  0.00    +0.000 A 
ATOM     16  C   UNL     1      86.568  71.424  85.713  0.00  0.00    +0.000 A 
ENDBRANCH  10  11
ENDBRANCH   9  10
ENDBRANCH   6   9
TORSDOF 3
ENDMDL
