MODEL 1
REMARK VINA RESULT:      -4.9      0.000      0.000
REMARK  Name = *****
REMARK  5 active torsions:
REMARK  status: ('A' for Active; 'I' for Inactive)
REMARK    1  A    between atoms: C_1  and  C_2
REMARK    2  A    between atoms: C_5  and  S_8
REMARK    3  A    between atoms: S_8  and  C_9
REMARK    4  A    between atoms: C_9  and  C_11
REMARK    5  A    between atoms: C_15  and  C_17
REMARK                            x       y       z     vdW  Elec       q    Type
REMARK                         _______ _______ _______ _____ _____    ______ ____
ROOT
ATOM      1  C   UNL     1      89.011  70.039  86.444  0.00  0.00    +0.000 C 
ATOM      2  O   UNL     1      89.761  70.715  87.138  0.00  0.00    +0.000 OA
ENDROOT
BRANCH   1   3
ATOM      3  C   UNL     1      89.005  68.551  86.584  0.00  0.00    +0.000 A 
ATOM      4  C   UNL     1      88.018  67.842  87.280  0.00  0.00    +0.000 A 
ATOM      5  C   UNL     1      88.079  66.449  87.366  0.00  0.00    +0.000 A 
ATOM      6  C   UNL     1      89.128  65.752  86.766  0.00  0.00    +0.000 A 
ATOM      7  C   UNL     1      90.136  66.441  86.085  0.00  0.00    +0.000 A 
ATOM      8  C   UNL     1      90.064  67.839  85.994  0.00  0.00    +0.000 A 
ATOM      9  C   UNL     1      91.254  65.700  85.413  0.00  0.00    +0.000 C 
ENDBRANCH   1   3
BRANCH   1  10
ATOM     10  S   UNL     1      87.973  70.747  85.206  0.00  0.00    +0.000 S 
BRANCH  10  15
ATOM     11  C   UNL     1      83.186  72.957  88.272  0.00  0.00    +0.000 C 
ATOM     12  C   UNL     1      84.348  72.373  87.524  0.00  0.00    +0.000 A 
ATOM     13  C   UNL     1      85.418  71.797  88.215  0.00  0.00    +0.000 A 
ATOM     14  C   UNL     1      86.519  71.284  87.521  0.00  0.00    +0.000 A 
ATOM     15  C   UNL     1      86.564  71.333  86.125  0.00  0.00    +0.000 A 
ATOM     16  C   UNL     1      85.505  71.932  85.435  0.00  0.00    +0.000 A 
ATOM     17  C   UNL     1      84.406  72.450  86.128  0.00  0.00    +0.000 A 
ENDBRANCH  10  15
ENDBRANCH   1  10
TORSDOF 3
ENDMDL
