MODEL 1
REMARK VINA RESULT:      -4.9      0.000      0.000
REMARK  Name = *****
REMARK  6 active torsions:
REMARK  status: ('A' for Active; 'I' for Inactive)
REMARK    1  A    between atoms: C_1  and  O_2
REMARK    2  A    between atoms: O_2  and  C_3
REMARK    3  A    between atoms: C_3  and  C_5
REMARK    4  A    between atoms: C_9  and  C_11
REMARK    5  A    between atoms: C_11  and  C_12
REMARK    6  A    between atoms: C_12  and  C_13
REMARK                            x       y       z     vdW  Elec       q    Type
REMARK                         _______ _______ _______ _____ _____    ______ ____
ROOT
ATOM      1  C   UNL     1      86.174  57.453  91.265  0.00  0.00    +0.000 A 
ATOM      2  C   UNL     1      86.203  57.107  92.622  0.00  0.00    +0.000 A 
ATOM      3  C   UNL     1      85.757  58.014  93.586  0.00  0.00    +0.000 A 
ATOM      4  C   UNL     1      85.279  59.267  93.201  0.00  0.00    +0.000 A 
ATOM      5  C   UNL     1      85.239  59.628  91.848  0.00  0.00    +0.000 A 
ATOM      6  C   UNL     1      85.695  58.716  90.886  0.00  0.00    +0.000 A 
ENDROOT
BRANCH   1   7
ATOM      7  C   UNL     1      86.637  56.528  90.194  0.00  0.00    +0.000 C 
ATOM      8  O   UNL     1      86.023  55.530  89.851  0.00  0.00    +0.000 OA
BRANCH   7  10
ATOM      9  C   UNL     1      88.946  56.187  90.103  0.00  0.00    +0.000 C 
ATOM     10  O   UNL     1      87.817  56.950  89.673  0.00  0.00    +0.000 OA
ENDBRANCH   7  10
ENDBRANCH   1   7
BRANCH   5  11
ATOM     11  C   UNL     1      84.738  60.990  91.434  0.00  0.00    +0.000 C 
BRANCH  11  12
ATOM     12  C   UNL     1      85.056  61.289  89.965  0.00  0.00    +0.000 C 
BRANCH  12  13
ATOM     13  C   UNL     1      86.159  62.311  89.834  0.00  0.00    +0.000 A 
ATOM     14  C   UNL     1      86.946  62.362  88.676  0.00  0.00    +0.000 A 
ATOM     15  C   UNL     1      87.979  63.294  88.564  0.00  0.00    +0.000 A 
ATOM     16  C   UNL     1      88.235  64.181  89.607  0.00  0.00    +0.000 A 
ATOM     17  C   UNL     1      87.460  64.136  90.765  0.00  0.00    +0.000 A 
ATOM     18  C   UNL     1      86.428  63.203  90.880  0.00  0.00    +0.000 A 
ENDBRANCH  12  13
ENDBRANCH  11  12
ENDBRANCH   5  11
TORSDOF 5
ENDMDL
