REMARK  Name = *****
REMARK  3 active torsions:
REMARK  status: ('A' for Active; 'I' for Inactive)
REMARK    1  A    between atoms: C_1  and  C_2
REMARK    2  A    between atoms: C_4  and  C_18
REMARK    3  A    between atoms: C_5  and  C_8
REMARK                            x       y       z     vdW  Elec       q    Type
REMARK                         _______ _______ _______ _____ _____    ______ ____
ROOT
ATOM      1  C   UNL     1      -2.308  -1.986  -0.355  0.00  0.00    +0.000 A 
ATOM      2  C   UNL     1      -2.504  -3.139   0.393  0.00  0.00    +0.000 A 
ATOM      3  C   UNL     1      -3.667  -3.894   0.203  0.00  0.00    +0.000 A 
ATOM      4  C   UNL     1      -3.915  -5.068   0.937  0.00  0.00    +0.000 A 
ATOM      5  C   UNL     1      -5.083  -5.800   0.726  0.00  0.00    +0.000 A 
ATOM      6  C   UNL     1      -6.007  -5.364  -0.217  0.00  0.00    +0.000 A 
ATOM      7  C   UNL     1      -5.759  -4.197  -0.944  0.00  0.00    +0.000 A 
ATOM      8  C   UNL     1      -4.601  -3.452  -0.750  0.00  0.00    +0.000 A 
ATOM      9  N   UNL     1      -4.376  -2.333  -1.454  0.00  0.00    +0.000 NA
ATOM     10  N   UNL     1      -3.227  -1.595  -1.262  0.00  0.00    +0.000 NA
ENDROOT
BRANCH   1  15
ATOM     11  C   UNL     1       2.513   1.212   0.157  0.00  0.00    +0.000 C 
ATOM     12  C   UNL     1       1.261   0.400   0.006  0.00  0.00    +0.000 A 
ATOM     13  C   UNL     1       0.006   0.986   0.202  0.00  0.00    +0.000 A 
ATOM     14  C   UNL     1      -1.180   0.233   0.099  0.00  0.00    +0.000 A 
ATOM     15  C   UNL     1      -1.111  -1.144  -0.216  0.00  0.00    +0.000 A 
ATOM     16  C   UNL     1       0.163  -1.720  -0.395  0.00  0.00    +0.000 A 
ATOM     17  C   UNL     1       1.331  -0.964  -0.278  0.00  0.00    +0.000 A 
ATOM     18  C   UNL     1      -2.497   0.937   0.304  0.00  0.00    +0.000 C 
ENDBRANCH   1  15
TORSDOF 1
