MODEL 1
REMARK VINA RESULT:      -4.5      0.000      0.000
REMARK  Name = *****
REMARK  5 active torsions:
REMARK  status: ('A' for Active; 'I' for Inactive)
REMARK    1  A    between atoms: C_3  and  C_17
REMARK    2  A    between atoms: C_6  and  C_7
REMARK    3  A    between atoms: C_7  and  C_8
REMARK    4  A    between atoms: C_8  and  C_9
REMARK    5  A    between atoms: C_12  and  C_15
REMARK                            x       y       z     vdW  Elec       q    Type
REMARK                         _______ _______ _______ _____ _____    ______ ____
ROOT
ATOM      1  C   UNL     1      87.260  70.876  88.062  0.00  0.00    +0.000 C 
ENDROOT
BRANCH   1   7
ATOM      2  C   UNL     1      85.029  72.013  87.724  0.00  0.00    +0.000 A 
ATOM      3  C   UNL     1      84.052  72.576  86.901  0.00  0.00    +0.000 A 
ATOM      4  C   UNL     1      84.240  72.601  85.517  0.00  0.00    +0.000 A 
ATOM      5  C   UNL     1      85.402  72.069  84.952  0.00  0.00    +0.000 A 
ATOM      6  C   UNL     1      86.377  71.506  85.780  0.00  0.00    +0.000 A 
ATOM      7  C   UNL     1      86.196  71.469  87.169  0.00  0.00    +0.000 A 
BRANCH   4   8
ATOM      8  C   UNL     1      83.213  73.195  84.639  0.00  0.00    +0.000 C 
ATOM      9  O   UNL     1      82.780  74.327  84.812  0.00  0.00    +0.000 OA
ENDBRANCH   4   8
ENDBRANCH   1   7
BRANCH   1  10
ATOM     10  C   UNL     1      87.011  69.391  88.330  0.00  0.00    +0.000 C 
BRANCH  10  11
ATOM     11  C   UNL     1      88.004  68.519  87.599  0.00  0.00    +0.000 A 
ATOM     12  C   UNL     1      89.079  69.097  86.909  0.00  0.00    +0.000 A 
ATOM     13  C   UNL     1      89.986  68.294  86.215  0.00  0.00    +0.000 A 
ATOM     14  C   UNL     1      89.817  66.908  86.204  0.00  0.00    +0.000 A 
ATOM     15  C   UNL     1      88.748  66.320  86.882  0.00  0.00    +0.000 A 
ATOM     16  C   UNL     1      87.843  67.126  87.576  0.00  0.00    +0.000 A 
BRANCH  14  17
ATOM     17  C   UNL     1      90.770  66.051  85.471  0.00  0.00    +0.000 C 
ATOM     18  O   UNL     1      90.747  65.943  84.251  0.00  0.00    +0.000 OA
ENDBRANCH  14  17
ENDBRANCH  10  11
ENDBRANCH   1  10
TORSDOF 5
ENDMDL
