MODEL 1
REMARK VINA RESULT:      -4.7      0.000      0.000
REMARK  Name = *****
REMARK  6 active torsions:
REMARK  status: ('A' for Active; 'I' for Inactive)
REMARK    1  A    between atoms: C_1  and  C_2
REMARK    2  A    between atoms: C_4  and  C_18
REMARK    3  A    between atoms: C_5  and  O_9
REMARK    4  A    between atoms: C_6  and  C_8
REMARK    5  A    between atoms: O_9  and  C_10
REMARK    6  A    between atoms: C_10  and  C_12
REMARK                            x       y       z     vdW  Elec       q    Type
REMARK                         _______ _______ _______ _____ _____    ______ ____
ROOT
ATOM      1  C   UNL     1     104.902 122.584  80.610  0.00  0.00    +0.000 C 
ATOM      2  C   UNL     1     104.368 123.857  81.197  0.00  0.00    +0.000 A 
ATOM      3  C   UNL     1     104.164 124.980  80.383  0.00  0.00    +0.000 A 
ATOM      4  C   UNL     1     103.631 126.165  80.910  0.00  0.00    +0.000 A 
ATOM      5  C   UNL     1     103.269 126.186  82.265  0.00  0.00    +0.000 A 
ATOM      6  C   UNL     1     103.478 125.084  83.108  0.00  0.00    +0.000 A 
ATOM      7  C   UNL     1     104.012 123.915  82.551  0.00  0.00    +0.000 A 
ATOM      8  C   UNL     1     103.097 125.117  84.559  0.00  0.00    +0.000 C 
ATOM      9  C   UNL     1     103.414 127.354  80.022  0.00  0.00    +0.000 C 
ENDROOT
BRANCH   5  10
ATOM     10  O   UNL     1     102.753 127.374  82.803  0.00  0.00    +0.000 OA
BRANCH  10  11
ATOM     11  C   UNL     1     101.362 127.400  82.882  0.00  0.00    +0.000 C 
ATOM     12  O   UNL     1     100.587 126.692  82.254  0.00  0.00    +0.000 OA
BRANCH  11  13
ATOM     13  C   UNL     1     100.950 128.493  83.859  0.00  0.00    +0.000 C 
ATOM     14  C   UNL     1      99.708 129.236  83.350  0.00  0.00    +0.000 C 
ATOM     15  C   UNL     1      99.310 130.381  84.279  0.00  0.00    +0.000 C 
ATOM     16  C   UNL     1     100.468 131.343  84.517  0.00  0.00    +0.000 C 
ATOM     17  C   UNL     1     101.705 130.612  85.029  0.00  0.00    +0.000 C 
ATOM     18  C   UNL     1     102.108 129.472  84.099  0.00  0.00    +0.000 C 
ENDBRANCH  11  13
ENDBRANCH  10  11
ENDBRANCH   5  10
TORSDOF 3
ENDMDL
