MODEL 1
REMARK VINA RESULT:      -3.9      0.000      0.000
REMARK  Name = *****
REMARK  2 active torsions:
REMARK  status: ('A' for Active; 'I' for Inactive)
REMARK    1  A    between atoms: C_4  and  C_7
REMARK    2  A    between atoms: C_8  and  C_9
REMARK                            x       y       z     vdW  Elec       q    Type
REMARK                         _______ _______ _______ _____ _____    ______ ____
ROOT
ATOM      1  C   UNL     1     102.928 125.536  82.813  0.00  0.00    +0.000 C 
ATOM      2  C   UNL     1     101.852 125.958  82.125  0.00  0.00    +0.000 C 
ENDROOT
BRANCH   1   6
ATOM      3  C   UNL     1     106.451 126.082  81.370  0.00  0.00    +0.000 C 
ATOM      4  C   UNL     1     105.190 126.174  80.523  0.00  0.00    +0.000 C 
ATOM      5  S   UNL     1     104.200 124.655  80.546  0.00  0.00    +0.000 S 
ATOM      6  C   UNL     1     103.873 124.481  82.318  0.00  0.00    +0.000 C 
ATOM      7  S   UNL     1     105.378 124.404  83.320  0.00  0.00    +0.000 S 
ATOM      8  C   UNL     1     106.179 125.965  82.862  0.00  0.00    +0.000 C 
ENDBRANCH   1   6
BRANCH   2   9
ATOM      9  C   UNL     1     100.926 126.987  82.614  0.00  0.00    +0.000 A 
ATOM     10  C   UNL     1     101.375 128.139  83.273  0.00  0.00    +0.000 A 
ATOM     11  C   UNL     1     100.467 129.113  83.698  0.00  0.00    +0.000 A 
ATOM     12  C   UNL     1      99.105 128.950  83.457  0.00  0.00    +0.000 A 
ATOM     13  C   UNL     1      98.649 127.817  82.787  0.00  0.00    +0.000 A 
ATOM     14  C   UNL     1      99.556 126.843  82.362  0.00  0.00    +0.000 A 
ENDBRANCH   2   9
TORSDOF 2
ENDMDL
