MODEL 1
REMARK VINA RESULT:      -4.8      0.000      0.000
REMARK  Name = *****
REMARK  1 active torsions:
REMARK  status: ('A' for Active; 'I' for Inactive)
REMARK    1  A    between atoms: C_4  and  C_7
REMARK                            x       y       z     vdW  Elec       q    Type
REMARK                         _______ _______ _______ _____ _____    ______ ____
ROOT
ATOM      1  C   UNL     1     102.072 126.078  82.498  0.00  0.00    +0.000 A 
ATOM      2  N   UNL     1     102.589 125.165  83.302  0.00  0.00    +0.000 NA
ATOM      3  C   UNL     1     103.525 124.526  82.521  0.00  0.00    +0.000 A 
ATOM      4  C   UNL     1     103.535 125.090  81.256  0.00  0.00    +0.000 A 
ATOM      5  O   UNL     1     102.606 126.087  81.232  0.00  0.00    +0.000 OA
ATOM      6  C   UNL     1     104.362 124.687  80.211  0.00  0.00    +0.000 A 
ATOM      7  C   UNL     1     105.236 123.629  80.494  0.00  0.00    +0.000 A 
ATOM      8  C   UNL     1     105.261 123.027  81.757  0.00  0.00    +0.000 A 
ATOM      9  C   UNL     1     104.409 123.470  82.776  0.00  0.00    +0.000 A 
ATOM     10  F   UNL     1     104.454 122.874  83.976  0.00  0.00    +0.000 F 
ENDROOT
BRANCH   1  14
ATOM     11  C   UNL     1      99.056 128.987  83.344  0.00  0.00    +0.000 A 
ATOM     12  C   UNL     1     100.385 129.228  83.685  0.00  0.00    +0.000 A 
ATOM     13  C   UNL     1     101.362 128.270  83.404  0.00  0.00    +0.000 A 
ATOM     14  C   UNL     1     101.026 127.060  82.777  0.00  0.00    +0.000 A 
ATOM     15  C   UNL     1      99.683 126.834  82.440  0.00  0.00    +0.000 A 
ATOM     16  C   UNL     1      98.704 127.791  82.721  0.00  0.00    +0.000 A 
ENDBRANCH   1  14
TORSDOF 1
ENDMDL
