MODEL 1
REMARK VINA RESULT:      -4.5      0.000      0.000
REMARK  Name = *****
REMARK  4 active torsions:
REMARK  status: ('A' for Active; 'I' for Inactive)
REMARK    1  A    between atoms: C_4  and  C_8
REMARK    2  A    between atoms: C_8  and  O_9
REMARK    3  A    between atoms: O_9  and  C_10
REMARK    4  A    between atoms: C_10  and  C_12
REMARK                            x       y       z     vdW  Elec       q    Type
REMARK                         _______ _______ _______ _____ _____    ______ ____
ROOT
ATOM      1  O   UNL     1     100.442 127.389  82.181  0.00  0.00    +0.000 OA
ENDROOT
BRANCH   1   2
ATOM      2  C   UNL     1      99.142 127.412  82.567  0.00  0.00    +0.000 C 
ATOM      3  O   UNL     1      98.252 126.700  82.130  0.00  0.00    +0.000 OA
BRANCH   2   4
ATOM      4  C   UNL     1      98.925 128.442  83.619  0.00  0.00    +0.000 A 
ATOM      5  C   UNL     1      98.204 128.179  84.792  0.00  0.00    +0.000 A 
ATOM      6  C   UNL     1      98.033 129.183  85.750  0.00  0.00    +0.000 A 
ATOM      7  C   UNL     1      98.580 130.449  85.542  0.00  0.00    +0.000 A 
ATOM      8  C   UNL     1      99.298 130.717  84.377  0.00  0.00    +0.000 A 
ATOM      9  C   UNL     1      99.472 129.718  83.419  0.00  0.00    +0.000 A 
ENDBRANCH   2   4
ENDBRANCH   1   2
BRANCH   1  10
ATOM     10  C   UNL     1     101.205 126.253  82.617  0.00  0.00    +0.000 C 
BRANCH  10  14
ATOM     11  C   UNL     1     104.904 126.789  82.049  0.00  0.00    +0.000 C 
ATOM     12  C   UNL     1     104.166 128.007  81.481  0.00  0.00    +0.000 C 
ATOM     13  C   UNL     1     102.972 128.129  82.454  0.00  0.00    +0.000 C 
ATOM     14  C   UNL     1     102.668 126.642  82.811  0.00  0.00    +0.000 C 
ATOM     15  C   UNL     1     103.682 125.869  81.926  0.00  0.00    +0.000 C 
ATOM     16  C   UNL     1     103.369 126.105  80.465  0.00  0.00    +0.000 C 
ATOM     17  C   UNL     1     103.652 127.390  80.201  0.00  0.00    +0.000 C 
ENDBRANCH  10  14
ENDBRANCH   1  10
TORSDOF 4
ENDMDL
