MODEL 1
REMARK VINA RESULT:      -4.5      0.000      0.000
REMARK  Name = *****
REMARK  4 active torsions:
REMARK  status: ('A' for Active; 'I' for Inactive)
REMARK    1  A    between atoms: C_1  and  C_2
REMARK    2  A    between atoms: C_5  and  C_8
REMARK    3  A    between atoms: C_9  and  C_10
REMARK    4  A    between atoms: C_9  and  C_12
REMARK                            x       y       z     vdW  Elec       q    Type
REMARK                         _______ _______ _______ _____ _____    ______ ____
ROOT
ATOM      1  C   UNL     1     101.529 128.156  83.390  0.00  0.00    +0.000 C 
ATOM      2  C   UNL     1     100.183 128.265  83.415  0.00  0.00    +0.000 C 
ENDROOT
BRANCH   1   7
ATOM      3  C   UNL     1     104.484 124.184  80.415  0.00  0.00    +0.000 C 
ATOM      4  C   UNL     1     103.709 125.205  81.193  0.00  0.00    +0.000 A 
ATOM      5  C   UNL     1     103.211 124.915  82.468  0.00  0.00    +0.000 A 
ATOM      6  C   UNL     1     102.496 125.876  83.186  0.00  0.00    +0.000 A 
ATOM      7  C   UNL     1     102.271 127.141  82.634  0.00  0.00    +0.000 A 
ATOM      8  C   UNL     1     102.764 127.437  81.361  0.00  0.00    +0.000 A 
ATOM      9  C   UNL     1     103.479 126.474  80.645  0.00  0.00    +0.000 A 
ENDBRANCH   1   7
BRANCH   2  10
ATOM     10  C   UNL     1      99.598 129.323  84.195  0.00  0.00    +0.000 A 
ATOM     11  C   UNL     1      99.783 130.698  84.103  0.00  0.00    +0.000 A 
ATOM     12  C   UNL     1      99.026 131.439  85.058  0.00  0.00    +0.000 A 
ATOM     13  C   UNL     1      98.275 130.617  85.864  0.00  0.00    +0.000 A 
ATOM     14  S   UNL     1      98.486 128.970  85.473  0.00  0.00    +0.000 S 
ENDBRANCH   2  10
BRANCH   2  15
ATOM     15  C   UNL     1      99.352 127.355  82.680  0.00  0.00    +0.000 C 
ATOM     16  N   UNL     1      98.678 126.613  82.094  0.00  0.00    +0.000 NA
ENDBRANCH   2  15
TORSDOF 3
ENDMDL
