MODEL 1
REMARK VINA RESULT:      -4.5      0.000      0.000
REMARK  Name = *****
REMARK  5 active torsions:
REMARK  status: ('A' for Active; 'I' for Inactive)
REMARK    1  A    between atoms: C_1  and  C_2
REMARK    2  A    between atoms: C_2  and  C_3
REMARK    3  A    between atoms: C_2  and  C_11
REMARK    4  A    between atoms: C_2  and  N_17
REMARK    5  A    between atoms: C_3  and  C_4
REMARK                            x       y       z     vdW  Elec       q    Type
REMARK                         _______ _______ _______ _____ _____    ______ ____
ROOT
ATOM      1  C   UNL     1      89.363  69.984  87.546  0.00  0.00    +0.000 C 
ATOM      2  C   UNL     1      88.357  70.146  86.389  0.00  0.00    +0.000 C 
ENDROOT
BRANCH   2   3
ATOM      3  C   UNL     1      87.106  70.887  86.926  0.00  0.00    +0.000 A 
ATOM      4  C   UNL     1      86.931  71.041  88.318  0.00  0.00    +0.000 A 
ATOM      5  C   UNL     1      85.814  71.694  88.847  0.00  0.00    +0.000 A 
ATOM      6  C   UNL     1      84.843  72.210  87.997  0.00  0.00    +0.000 A 
ATOM      7  C   UNL     1      84.991  72.075  86.621  0.00  0.00    +0.000 A 
ATOM      8  C   UNL     1      86.110  71.421  86.090  0.00  0.00    +0.000 A 
ENDBRANCH   2   3
BRANCH   2   9
ATOM      9  N   UNL     1      88.955  71.007  85.382  0.00  0.00    +0.000 NA
ATOM     10  C   UNL     1      89.458  71.695  84.573  0.00  0.00    +0.000 C 
ENDBRANCH   2   9
BRANCH   2  11
ATOM     11  C   UNL     1      88.026  68.765  85.735  0.00  0.00    +0.000 C 
BRANCH  11  12
ATOM     12  C   UNL     1      87.897  67.560  86.654  0.00  0.00    +0.000 A 
ATOM     13  C   UNL     1      86.767  67.476  87.488  0.00  0.00    +0.000 A 
ATOM     14  C   UNL     1      86.580  66.394  88.351  0.00  0.00    +0.000 A 
ATOM     15  C   UNL     1      87.525  65.378  88.407  0.00  0.00    +0.000 A 
ATOM     16  C   UNL     1      88.663  65.448  87.605  0.00  0.00    +0.000 A 
ATOM     17  C   UNL     1      88.854  66.531  86.738  0.00  0.00    +0.000 A 
ATOM     18 BR   UNL     1      90.465  66.529  85.728  0.00  0.00    +0.000 Br
ENDBRANCH  11  12
ENDBRANCH   2  11
TORSDOF 4
ENDMDL
