MODEL 1
REMARK VINA RESULT:      -4.9      0.000      0.000
REMARK  Name = *****
REMARK  3 active torsions:
REMARK  status: ('A' for Active; 'I' for Inactive)
REMARK    1  A    between atoms: C_3  and  C_4
REMARK    2  A    between atoms: C_4  and  C_12
REMARK    3  A    between atoms: N_5  and  C_6
REMARK                            x       y       z     vdW  Elec       q    Type
REMARK                         _______ _______ _______ _____ _____    ______ ____
ROOT
ATOM      1  C   UNL     1     102.819 125.938  81.973  0.00  0.00    +0.000 C 
ATOM      2  N   UNL     1     101.841 125.874  82.830  0.00  0.00    +0.000 NA
ENDROOT
BRANCH   2   3
ATOM      3  C   UNL     1     100.913 126.912  82.965  0.00  0.00    +0.000 A 
ATOM      4  C   UNL     1      99.639 126.820  82.396  0.00  0.00    +0.000 A 
ATOM      5  C   UNL     1      98.709 127.849  82.568  0.00  0.00    +0.000 A 
ATOM      6  C   UNL     1      99.043 128.968  83.329  0.00  0.00    +0.000 A 
ATOM      7  C   UNL     1     100.300 129.055  83.926  0.00  0.00    +0.000 A 
ATOM      8  C   UNL     1     101.227 128.024  83.750  0.00  0.00    +0.000 A 
ENDBRANCH   2   3
BRANCH   1   9
ATOM      9  C   UNL     1     103.725 124.761  81.824  0.00  0.00    +0.000 A 
ATOM     10  C   UNL     1     104.184 124.104  82.973  0.00  0.00    +0.000 A 
ATOM     11  C   UNL     1     105.028 122.998  82.864  0.00  0.00    +0.000 A 
ATOM     12  C   UNL     1     105.410 122.536  81.605  0.00  0.00    +0.000 A 
ATOM     13  C   UNL     1     104.947 123.175  80.456  0.00  0.00    +0.000 A 
ATOM     14  C   UNL     1     104.102 124.283  80.563  0.00  0.00    +0.000 A 
ENDBRANCH   1   9
BRANCH   1  17
ATOM     15  C   UNL     1     104.387 127.380  80.438  0.00  0.00    +0.000 C 
ATOM     16  C   UNL     1     103.951 128.260  81.562  0.00  0.00    +0.000 C 
ATOM     17  C   UNL     1     103.048 127.133  81.102  0.00  0.00    +0.000 C 
ENDBRANCH   1  17
TORSDOF 3
ENDMDL
