REMARK  Name = *****
REMARK  3 active torsions:
REMARK  status: ('A' for Active; 'I' for Inactive)
REMARK    1  A    between atoms: C_4  and  C_7
REMARK    2  A    between atoms: C_7  and  C_8
REMARK    3  A    between atoms: C_8  and  C_9
REMARK                            x       y       z     vdW  Elec       q    Type
REMARK                         _______ _______ _______ _____ _____    ______ ____
ROOT
ATOM      1  C   UNL     1      -3.619  -0.813  -0.620  0.00  0.00    +0.000 C 
ATOM      2 CL   UNL     1      -3.269  -1.650  -2.171  0.00  0.00    +0.000 Cl
ENDROOT
BRANCH   1   3
ATOM      3  C   UNL     1      -5.111  -0.536  -0.534  0.00  0.00    +0.000 A 
ATOM      4  C   UNL     1      -5.752   0.335  -1.434  0.00  0.00    +0.000 A 
ATOM      5  C   UNL     1      -7.122   0.582  -1.331  0.00  0.00    +0.000 A 
ATOM      6  C   UNL     1      -7.857  -0.039  -0.329  0.00  0.00    +0.000 A 
ATOM      7  C   UNL     1      -7.249  -0.904   0.571  0.00  0.00    +0.000 A 
ATOM      8  C   UNL     1      -5.879  -1.154   0.469  0.00  0.00    +0.000 A 
ATOM      9  F   UNL     1      -9.172   0.200  -0.230  0.00  0.00    +0.000 F 
ENDBRANCH   1   3
BRANCH   1  10
ATOM     10  C   UNL     1      -2.781   0.470  -0.472  0.00  0.00    +0.000 C 
BRANCH  10  14
ATOM     11  C   UNL     1       1.395  -0.306   0.293  0.00  0.00    +0.000 A 
ATOM     12  C   UNL     1       0.970   0.008  -0.996  0.00  0.00    +0.000 A 
ATOM     13  C   UNL     1      -0.379   0.263  -1.245  0.00  0.00    +0.000 A 
ATOM     14  C   UNL     1      -1.316   0.208  -0.204  0.00  0.00    +0.000 A 
ATOM     15  C   UNL     1      -0.878  -0.110   1.089  0.00  0.00    +0.000 A 
ATOM     16  C   UNL     1       0.472  -0.365   1.335  0.00  0.00    +0.000 A 
ENDBRANCH  10  14
ENDBRANCH   1  10
TORSDOF 3
