REMARK  Name = *****
REMARK  5 active torsions:
REMARK  status: ('A' for Active; 'I' for Inactive)
REMARK    1  A    between atoms: C_1  and  C_2
REMARK    2  A    between atoms: C_2  and  C_3
REMARK    3  A    between atoms: C_2  and  C_10
REMARK    4  A    between atoms: C_3  and  C_4
REMARK    5  A    between atoms: C_4  and  C_9
REMARK                            x       y       z     vdW  Elec       q    Type
REMARK                         _______ _______ _______ _____ _____    ______ ____
ROOT
ATOM      1  C   UNL     1       3.234  -0.469  -1.656  0.00  0.00    +0.000 C 
ATOM      2  C   UNL     1       2.508  -0.230  -0.326  0.00  0.00    +0.000 C 
ENDROOT
BRANCH   2   3
ATOM      3  C   UNL     1       2.796  -1.329   0.741  0.00  0.00    +0.000 C 
ATOM      4  S   UNL     1       2.380  -3.028   0.201  0.00  0.00    +0.000 S 
ATOM      5  C   UNL     1       3.839  -3.845   0.894  0.00  0.00    +0.000 C 
ATOM      6  C   UNL     1       5.018  -2.915   0.702  0.00  0.00    +0.000 C 
ATOM      7  S   UNL     1       4.534  -1.285   1.323  0.00  0.00    +0.000 S 
ENDBRANCH   2   3
BRANCH   2   8
ATOM      8  C   UNL     1       0.968  -0.051  -0.495  0.00  0.00    +0.000 C 
BRANCH   8   9
ATOM      9  C   UNL     1       0.438   1.165  -1.299  0.00  0.00    +0.000 C 
ATOM     10  S   UNL     1       0.507   0.863  -3.117  0.00  0.00    +0.000 S 
ATOM     11  C   UNL     1      -1.262   1.024  -3.476  0.00  0.00    +0.000 C 
ATOM     12  C   UNL     1      -2.036   0.539  -2.271  0.00  0.00    +0.000 C 
ATOM     13  S   UNL     1      -1.341   1.392  -0.840  0.00  0.00    +0.000 S 
ATOM     14  C   UNL     1       1.157   2.477  -0.980  0.00  0.00    +0.000 C 
ENDBRANCH   8   9
ENDBRANCH   2   8
TORSDOF 3
