MODEL 1
REMARK VINA RESULT:      -4.5      0.000      0.000
REMARK  Name = *****
REMARK  4 active torsions:
REMARK  status: ('A' for Active; 'I' for Inactive)
REMARK    1  A    between atoms: C_4  and  C_7
REMARK    2  A    between atoms: C_7  and  C_8
REMARK    3  A    between atoms: C_8  and  C_9
REMARK    4  A    between atoms: C_9  and  C_11
REMARK                            x       y       z     vdW  Elec       q    Type
REMARK                         _______ _______ _______ _____ _____    ______ ____
ROOT
ATOM      1  C   UNL     1      88.376  68.962  87.342  0.00  0.00    +0.000 C 
ATOM      2 CL   UNL     1      86.894  68.146  86.738  0.00  0.00    +0.000 Cl
ENDROOT
BRANCH   1   3
ATOM      3  C   UNL     1      88.215  70.474  87.594  0.00  0.00    +0.000 C 
ATOM      4 CL   UNL     1      88.530  70.883  89.320  0.00  0.00    +0.000 Cl
BRANCH   3   8
ATOM      5  C   UNL     1      84.535  72.370  86.312  0.00  0.00    +0.000 A 
ATOM      6  C   UNL     1      85.497  72.028  85.367  0.00  0.00    +0.000 A 
ATOM      7  C   UNL     1      86.685  71.411  85.766  0.00  0.00    +0.000 A 
ATOM      8  C   UNL     1      86.932  71.131  87.120  0.00  0.00    +0.000 A 
ATOM      9  C   UNL     1      85.948  71.484  88.060  0.00  0.00    +0.000 A 
ATOM     10  C   UNL     1      84.758  72.096  87.659  0.00  0.00    +0.000 A 
ENDBRANCH   3   8
ENDBRANCH   1   3
BRANCH   1  11
ATOM     11  C   UNL     1      89.528  68.684  86.384  0.00  0.00    +0.000 C 
ATOM     12  O   UNL     1      90.373  67.812  86.591  0.00  0.00    +0.000 OA
BRANCH  11  13
ATOM     13  C   UNL     1      89.640  69.477  85.114  0.00  0.00    +0.000 A 
ATOM     14  C   UNL     1      89.047  68.946  83.957  0.00  0.00    +0.000 A 
ATOM     15  C   UNL     1      89.115  69.629  82.741  0.00  0.00    +0.000 A 
ATOM     16  C   UNL     1      89.774  70.852  82.668  0.00  0.00    +0.000 A 
ATOM     17  C   UNL     1      90.366  71.391  83.807  0.00  0.00    +0.000 A 
ATOM     18  C   UNL     1      90.304  70.708  85.027  0.00  0.00    +0.000 A 
ENDBRANCH  11  13
ENDBRANCH   1  11
TORSDOF 4
ENDMDL
