MODEL 1
REMARK VINA RESULT:      -4.5      0.000      0.000
REMARK  Name = *****
REMARK  4 active torsions:
REMARK  status: ('A' for Active; 'I' for Inactive)
REMARK    1  A    between atoms: C_1  and  C_2
REMARK    2  A    between atoms: C_2  and  C_4
REMARK    3  A    between atoms: C_7  and  C_9
REMARK    4  A    between atoms: C_10  and  C_11
REMARK                            x       y       z     vdW  Elec       q    Type
REMARK                         _______ _______ _______ _____ _____    ______ ____
ROOT
ATOM      1  C   UNL     1     105.721 122.772  80.841  0.00  0.00    +0.000 A 
ATOM      2  C   UNL     1     105.660 123.667  79.788  0.00  0.00    +0.000 A 
ATOM      3  C   UNL     1     104.685 124.687  79.989  0.00  0.00    +0.000 A 
ATOM      4  C   UNL     1     104.029 124.543  81.191  0.00  0.00    +0.000 A 
ATOM      5  S   UNL     1     104.591 123.186  82.059  0.00  0.00    +0.000 S 
ENDROOT
BRANCH   1   7
ATOM      6  C   UNL     1     106.233 120.484  81.870  0.00  0.00    +0.000 C 
ATOM      7  C   UNL     1     106.609 121.620  80.947  0.00  0.00    +0.000 C 
ATOM      8  O   UNL     1     107.658 121.546  80.303  0.00  0.00    +0.000 OA
ENDBRANCH   1   7
BRANCH   4   9
ATOM      9  C   UNL     1     103.004 125.408  81.672  0.00  0.00    +0.000 C 
ATOM     10  C   UNL     1     102.143 126.141  82.075  0.00  0.00    +0.000 C 
BRANCH  10  11
ATOM     11  C   UNL     1     101.121 127.020  82.554  0.00  0.00    +0.000 A 
ATOM     12  C   UNL     1     101.467 128.185  83.242  0.00  0.00    +0.000 A 
ATOM     13  C   UNL     1     100.469 129.044  83.708  0.00  0.00    +0.000 A 
ATOM     14  C   UNL     1      99.126 128.738  83.489  0.00  0.00    +0.000 A 
ATOM     15  C   UNL     1      98.778 127.574  82.803  0.00  0.00    +0.000 A 
ATOM     16  C   UNL     1      99.775 126.714  82.335  0.00  0.00    +0.000 A 
ENDBRANCH  10  11
ENDBRANCH   4   9
TORSDOF 3
ENDMDL
