MODEL 1
REMARK VINA RESULT:      -4.1      0.000      0.000
REMARK  Name = *****
REMARK  5 active torsions:
REMARK  status: ('A' for Active; 'I' for Inactive)
REMARK    1  A    between atoms: C_4  and  N_7
REMARK    2  A    between atoms: N_7  and  N_8
REMARK    3  A    between atoms: N_7  and  O_10
REMARK    4  A    between atoms: O_10  and  C_11
REMARK    5  A    between atoms: C_11  and  C_12
REMARK                            x       y       z     vdW  Elec       q    Type
REMARK                         _______ _______ _______ _____ _____    ______ ____
ROOT
ATOM      1  N   UNL     1      88.852  69.377  86.378  0.00  0.00    +0.000 NA
ENDROOT
BRANCH   1   5
ATOM      2  C   UNL     1      86.408  71.450  89.332  0.00  0.00    +0.000 C 
ATOM      3  C   UNL     1      87.922  71.411  89.503  0.00  0.00    +0.000 C 
ATOM      4  C   UNL     1      88.555  70.301  88.665  0.00  0.00    +0.000 C 
ATOM      5  C   UNL     1      88.176  70.429  87.174  0.00  0.00    +0.000 C 
ATOM      6  C   UNL     1      86.639  70.462  87.016  0.00  0.00    +0.000 C 
ATOM      7  C   UNL     1      86.013  71.569  87.864  0.00  0.00    +0.000 C 
ENDBRANCH   1   5
BRANCH   1   8
ATOM      8  N   UNL     1      90.002  68.997  86.884  0.00  0.00    +0.000 NA
ATOM      9  O   UNL     1      90.276  67.839  86.548  0.00  0.00    +0.000 OA
ENDBRANCH   1   8
BRANCH   1  10
ATOM     10  O   UNL     1      88.995  69.903  85.019  0.00  0.00    +0.000 OA
BRANCH  10  11
ATOM     11  C   UNL     1      89.751  71.115  85.069  0.00  0.00    +0.000 C 
BRANCH  11  12
ATOM     12  C   UNL     1      89.091  72.122  84.161  0.00  0.00    +0.000 A 
ATOM     13  C   UNL     1      89.841  73.168  83.605  0.00  0.00    +0.000 A 
ATOM     14  C   UNL     1      89.235  74.109  82.772  0.00  0.00    +0.000 A 
ATOM     15  C   UNL     1      87.872  74.019  82.493  0.00  0.00    +0.000 A 
ATOM     16  C   UNL     1      87.115  72.988  83.047  0.00  0.00    +0.000 A 
ATOM     17  C   UNL     1      87.720  72.045  83.880  0.00  0.00    +0.000 A 
ENDBRANCH  11  12
ENDBRANCH  10  11
ENDBRANCH   1  10
TORSDOF 5
ENDMDL
