MODEL 1
REMARK VINA RESULT:      -4.6      0.000      0.000
REMARK  Name = *****
REMARK  2 active torsions:
REMARK  status: ('A' for Active; 'I' for Inactive)
REMARK    1  A    between atoms: C_4  and  C_7
REMARK    2  A    between atoms: C_8  and  C_10
REMARK                            x       y       z     vdW  Elec       q    Type
REMARK                         _______ _______ _______ _____ _____    ______ ____
ROOT
ATOM      1  C   UNL     1     102.649 126.761  82.619  0.00  0.00    +0.000 C 
ATOM      2  C   UNL     1     102.802 125.355  82.060  0.00  0.00    +0.000 C 
ATOM      3  S   UNL     1     103.179 125.551  83.738  0.00  0.00    +0.000 S 
ENDROOT
BRANCH   2   4
ATOM      4  C   UNL     1     103.945 125.033  81.123  0.00  0.00    +0.000 A 
ATOM      5  C   UNL     1     104.652 126.041  80.439  0.00  0.00    +0.000 A 
ATOM      6  C   UNL     1     105.727 125.741  79.595  0.00  0.00    +0.000 A 
ATOM      7  C   UNL     1     106.124 124.419  79.428  0.00  0.00    +0.000 A 
ATOM      8  C   UNL     1     105.459 123.400  80.100  0.00  0.00    +0.000 A 
ATOM      9  C   UNL     1     104.385 123.707  80.942  0.00  0.00    +0.000 A 
ATOM     10 CL   UNL     1     107.447 124.044  78.394  0.00  0.00    +0.000 Cl
ENDBRANCH   2   4
BRANCH   1  14
ATOM     11  C   UNL     1      98.683 128.457  83.144  0.00  0.00    +0.000 A 
ATOM     12  C   UNL     1      99.800 129.143  83.609  0.00  0.00    +0.000 A 
ATOM     13  C   UNL     1     101.076 128.595  83.445  0.00  0.00    +0.000 A 
ATOM     14  C   UNL     1     101.269 127.346  82.827  0.00  0.00    +0.000 A 
ATOM     15  C   UNL     1     100.121 126.684  82.354  0.00  0.00    +0.000 A 
ATOM     16  C   UNL     1      98.843 127.228  82.513  0.00  0.00    +0.000 A 
ENDBRANCH   1  14
TORSDOF 2
ENDMDL
