MODEL 1
REMARK VINA RESULT:      -4.2      0.000      0.000
REMARK  Name = *****
REMARK  3 active torsions:
REMARK  status: ('A' for Active; 'I' for Inactive)
REMARK    1  A    between atoms: C_3  and  C_14
REMARK    2  A    between atoms: C_6  and  C_7
REMARK    3  A    between atoms: C_8  and  C_9
REMARK                            x       y       z     vdW  Elec       q    Type
REMARK                         _______ _______ _______ _____ _____    ______ ____
ROOT
ATOM      1  C   UNL     1     104.059 124.099  82.380  0.00  0.00    +0.000 A 
ATOM      2  C   UNL     1     105.068 123.151  82.184  0.00  0.00    +0.000 A 
ATOM      3  C   UNL     1     105.709 123.055  80.945  0.00  0.00    +0.000 A 
ATOM      4  C   UNL     1     105.337 123.914  79.907  0.00  0.00    +0.000 A 
ATOM      5  C   UNL     1     104.328 124.862  80.107  0.00  0.00    +0.000 A 
ATOM      6  C   UNL     1     103.670 124.953  81.339  0.00  0.00    +0.000 A 
ENDROOT
BRANCH   6   7
ATOM      7  C   UNL     1     102.635 125.981  81.518  0.00  0.00    +0.000 C 
ATOM      8  C   UNL     1     101.771 125.998  82.549  0.00  0.00    +0.000 C 
BRANCH   8   9
ATOM      9  C   UNL     1     100.736 126.963  82.782  0.00  0.00    +0.000 A 
ATOM     10  C   UNL     1     100.900 128.177  83.419  0.00  0.00    +0.000 A 
ATOM     11  S   UNL     1      99.439 129.068  83.518  0.00  0.00    +0.000 S 
ATOM     12  C   UNL     1      98.571 127.838  82.711  0.00  0.00    +0.000 A 
ATOM     13  C   UNL     1      99.379 126.773  82.374  0.00  0.00    +0.000 A 
ENDBRANCH   8   9
ENDBRANCH   6   7
BRANCH   3  14
ATOM     14  C   UNL     1     106.744 122.085  80.743  0.00  0.00    +0.000 C 
ATOM     15  N   UNL     1     107.584 121.300  80.579  0.00  0.00    +0.000 NA
ENDBRANCH   3  14
TORSDOF 3
ENDMDL
