MODEL 1
REMARK VINA RESULT:      -4.4      0.000      0.000
REMARK  Name = *****
REMARK  3 active torsions:
REMARK  status: ('A' for Active; 'I' for Inactive)
REMARK    1  A    between atoms: C_4  and  S_7
REMARK    2  A    between atoms: S_7  and  N_8
REMARK    3  A    between atoms: N_8  and  C_9
REMARK                            x       y       z     vdW  Elec       q    Type
REMARK                         _______ _______ _______ _____ _____    ______ ____
ROOT
ATOM      1  N   UNL     1     101.819 126.833  81.769  0.00  0.00    +0.000 N 
ATOM      2  H   UNL     1     102.012 127.650  81.256  0.00  0.00    +0.000 HD
ENDROOT
BRANCH   1   3
ATOM      3  C   UNL     1     102.739 125.763  81.702  0.00  0.00    +0.000 A 
ATOM      4  C   UNL     1     103.169 125.034  82.821  0.00  0.00    +0.000 A 
ATOM      5  C   UNL     1     104.139 124.031  82.705  0.00  0.00    +0.000 A 
ATOM      6  C   UNL     1     104.711 123.761  81.466  0.00  0.00    +0.000 A 
ATOM      7  C   UNL     1     104.327 124.489  80.346  0.00  0.00    +0.000 A 
ATOM      8  C   UNL     1     103.357 125.490  80.469  0.00  0.00    +0.000 A 
ATOM      9 BR   UNL     1     106.025 122.412  81.309  0.00  0.00    +0.000 Br
ENDBRANCH   1   3
BRANCH   1  10
ATOM     10  S   UNL     1     100.422 126.776  82.674  0.00  0.00    +0.000 S 
BRANCH  10  14
ATOM     11  C   UNL     1     100.578 130.983  84.496  0.00  0.00    +0.000 A 
ATOM     12  C   UNL     1      99.399 130.531  83.905  0.00  0.00    +0.000 A 
ATOM     13  C   UNL     1      99.343 129.251  83.351  0.00  0.00    +0.000 A 
ATOM     14  C   UNL     1     100.463 128.412  83.390  0.00  0.00    +0.000 A 
ATOM     15  C   UNL     1     101.645 128.876  83.977  0.00  0.00    +0.000 A 
ATOM     16  C   UNL     1     101.701 130.157  84.532  0.00  0.00    +0.000 A 
ENDBRANCH  10  14
ENDBRANCH   1  10
TORSDOF 3
ENDMDL
