REMARK  Name = *****
REMARK  2 active torsions:
REMARK  status: ('A' for Active; 'I' for Inactive)
REMARK    1  A    between atoms: N_11  and  C_12
REMARK    2  A    between atoms: C_13  and  C_14
REMARK                            x       y       z     vdW  Elec       q    Type
REMARK                         _______ _______ _______ _____ _____    ______ ____
ROOT
ATOM      1  C   UNL     1      -1.880  -0.994   1.005  0.00  0.00    +0.000 C 
ATOM      2  C   UNL     1      -2.728  -0.096   0.104  0.00  0.00    +0.000 C 
ATOM      3  C   UNL     1      -2.013   0.943  -0.770  0.00  0.00    +0.000 C 
ATOM      4  C   UNL     1      -0.890   1.729  -0.092  0.00  0.00    +0.000 C 
ATOM      5  C   UNL     1       0.412   1.007   0.024  0.00  0.00    +0.000 A 
ATOM      6  C   UNL     1       0.813  -0.297  -0.212  0.00  0.00    +0.000 A 
ATOM      7  C   UNL     1       0.040  -1.466  -0.701  0.00  0.00    +0.000 C 
ATOM      8  C   UNL     1      -0.974  -2.009   0.303  0.00  0.00    +0.000 C 
ATOM      9  N   UNL     1       2.142  -0.426   0.085  0.00  0.00    +0.000 NA
ATOM     10  N   UNL     1       2.589   0.748   0.503  0.00  0.00    +0.000 NA
ATOM     11  N   UNL     1       1.563   1.619   0.480  0.00  0.00    +0.000 N 
ENDROOT
BRANCH  11  12
ATOM     12  C   UNL     1       1.681   2.987   0.892  0.00  0.00    +0.000 C 
ATOM     13  C   UNL     1       1.773   4.133   1.239  0.00  0.00    +0.000 C 
BRANCH  13  14
ATOM     14  C   UNL     1       1.884   5.496   1.655  0.00  0.00    +0.000 A 
ATOM     15  C   UNL     1       0.742   6.295   1.749  0.00  0.00    +0.000 A 
ATOM     16  C   UNL     1       0.851   7.626   2.156  0.00  0.00    +0.000 A 
ATOM     17  C   UNL     1       2.102   8.159   2.469  0.00  0.00    +0.000 A 
ATOM     18  C   UNL     1       3.243   7.363   2.376  0.00  0.00    +0.000 A 
ATOM     19  C   UNL     1       3.135   6.032   1.969  0.00  0.00    +0.000 A 
ENDBRANCH  13  14
ENDBRANCH  11  12
TORSDOF 2
