REMARK  Name = *****
REMARK  3 active torsions:
REMARK  status: ('A' for Active; 'I' for Inactive)
REMARK    1  A    between atoms: C_4  and  S_7
REMARK    2  A    between atoms: S_7  and  C_8
REMARK    3  A    between atoms: C_8  and  C_9
REMARK                            x       y       z     vdW  Elec       q    Type
REMARK                         _______ _______ _______ _____ _____    ______ ____
ROOT
ATOM      1  S   UNL     1      -3.169   0.698  -0.360  0.00  0.00    +0.000 S 
ENDROOT
BRANCH   1   5
ATOM      2  C   UNL     1       1.234  -0.441   0.199  0.00  0.00    +0.000 A 
ATOM      3  C   UNL     1       0.536  -0.912  -0.911  0.00  0.00    +0.000 A 
ATOM      4  C   UNL     1      -0.807  -0.570  -1.091  0.00  0.00    +0.000 A 
ATOM      5  C   UNL     1      -1.460   0.238  -0.155  0.00  0.00    +0.000 A 
ATOM      6  C   UNL     1      -0.749   0.720   0.949  0.00  0.00    +0.000 A 
ATOM      7  C   UNL     1       0.593   0.378   1.128  0.00  0.00    +0.000 A 
ENDBRANCH   1   5
BRANCH   1   8
ATOM      8  C   UNL     1      -3.938  -0.955  -0.259  0.00  0.00    +0.000 C 
BRANCH   8   9
ATOM      9  C   UNL     1      -5.432  -0.842  -0.280  0.00  0.00    +0.000 A 
ATOM     10  C   UNL     1      -6.285  -0.557   0.770  0.00  0.00    +0.000 A 
ATOM     11  C   UNL     1      -7.652  -0.541   0.372  0.00  0.00    +0.000 A 
ATOM     12  C   UNL     1      -7.801  -0.819  -0.968  0.00  0.00    +0.000 A 
ATOM     13  S   UNL     1      -6.300  -1.099  -1.737  0.00  0.00    +0.000 S 
ENDBRANCH   8   9
ENDBRANCH   1   8
TORSDOF 3
