MODEL 1
REMARK VINA RESULT:      -5.0      0.000      0.000
REMARK  Name = *****
REMARK  4 active torsions:
REMARK  status: ('A' for Active; 'I' for Inactive)
REMARK    1  A    between atoms: C_1  and  C_2
REMARK    2  A    between atoms: C_4  and  N_8
REMARK    3  A    between atoms: C_9  and  C_10
REMARK    4  A    between atoms: C_9  and  C_11
REMARK                            x       y       z     vdW  Elec       q    Type
REMARK                         _______ _______ _______ _____ _____    ______ ____
ROOT
ATOM      1  N   UNL     1     102.738 125.630  81.880  0.00  0.00    +0.000 NA
ATOM      2  C   UNL     1     103.422 125.903  80.808  0.00  0.00    +0.000 C 
ATOM      3  C   UNL     1     103.430 127.255  80.122  0.00  0.00    +0.000 C 
ENDROOT
BRANCH   1   7
ATOM      4  C   UNL     1      98.312 127.652  82.770  0.00  0.00    +0.000 C 
ATOM      5  C   UNL     1      99.801 127.639  82.948  0.00  0.00    +0.000 A 
ATOM      6  C   UNL     1     100.577 126.637  82.351  0.00  0.00    +0.000 A 
ATOM      7  C   UNL     1     101.968 126.628  82.488  0.00  0.00    +0.000 A 
ATOM      8  C   UNL     1     102.591 127.661  83.190  0.00  0.00    +0.000 A 
ATOM      9  C   UNL     1     101.833 128.674  83.776  0.00  0.00    +0.000 A 
ATOM     10  C   UNL     1     100.442 128.664  83.654  0.00  0.00    +0.000 A 
ENDBRANCH   1   7
BRANCH   2  11
ATOM     11  C   UNL     1     104.246 124.791  80.155  0.00  0.00    +0.000 C 
ATOM     12  C   UNL     1     104.419 123.637  81.150  0.00  0.00    +0.000 C 
ATOM     13  C   UNL     1     105.246 122.500  80.554  0.00  0.00    +0.000 C 
ATOM     14  C   UNL     1     106.590 122.994  80.027  0.00  0.00    +0.000 C 
ATOM     15  C   UNL     1     106.421 124.145  79.039  0.00  0.00    +0.000 C 
ATOM     16  C   UNL     1     105.605 125.286  79.644  0.00  0.00    +0.000 C 
ENDBRANCH   2  11
TORSDOF 2
ENDMDL
