REMARK  Name = *****
REMARK  4 active torsions:
REMARK  status: ('A' for Active; 'I' for Inactive)
REMARK    1  A    between atoms: C_4  and  O_7
REMARK    2  A    between atoms: O_7  and  C_8
REMARK    3  A    between atoms: C_8  and  C_10
REMARK    4  A    between atoms: C_11  and  C_12
REMARK                            x       y       z     vdW  Elec       q    Type
REMARK                         _______ _______ _______ _____ _____    ______ ____
ROOT
ATOM      1  C   UNL     1       2.881  -1.935   0.500  0.00  0.00    +0.000 C 
ATOM      2  O   UNL     1       2.456  -2.284   1.586  0.00  0.00    +0.000 OA
ENDROOT
BRANCH   1   3
ATOM      3  C   UNL     1       4.101  -2.433  -0.176  0.00  0.00    +0.000 C 
ATOM      4  C   UNL     1       4.819  -3.516   0.160  0.00  0.00    +0.000 C 
BRANCH   4   5
ATOM      5  C   UNL     1       4.542  -4.478   1.231  0.00  0.00    +0.000 A 
ATOM      6  C   UNL     1       3.370  -5.242   1.239  0.00  0.00    +0.000 A 
ATOM      7  C   UNL     1       3.148  -6.184   2.247  0.00  0.00    +0.000 A 
ATOM      8  C   UNL     1       4.102  -6.376   3.245  0.00  0.00    +0.000 A 
ATOM      9  C   UNL     1       5.277  -5.627   3.237  0.00  0.00    +0.000 A 
ATOM     10  C   UNL     1       5.499  -4.685   2.231  0.00  0.00    +0.000 A 
ENDBRANCH   4   5
ENDBRANCH   1   3
BRANCH   1  11
ATOM     11  O   UNL     1       2.323  -1.005  -0.319  0.00  0.00    +0.000 OA
BRANCH  11  15
ATOM     12  C   UNL     1      -1.551   0.721  -0.496  0.00  0.00    +0.000 C 
ATOM     13  C   UNL     1      -1.410  -0.631   0.198  0.00  0.00    +0.000 C 
ATOM     14  C   UNL     1      -0.086  -1.305  -0.148  0.00  0.00    +0.000 C 
ATOM     15  C   UNL     1       1.109  -0.397   0.159  0.00  0.00    +0.000 C 
ATOM     16  C   UNL     1       0.961   0.950  -0.552  0.00  0.00    +0.000 C 
ATOM     17  C   UNL     1      -0.360   1.630  -0.207  0.00  0.00    +0.000 C 
ENDBRANCH  11  15
ENDBRANCH   1  11
TORSDOF 4
