REMARK  Name = *****
REMARK  4 active torsions:
REMARK  status: ('A' for Active; 'I' for Inactive)
REMARK    1  A    between atoms: C_6  and  C_7
REMARK    2  A    between atoms: C_7  and  O_8
REMARK    3  A    between atoms: O_8  and  C_9
REMARK    4  A    between atoms: C_12  and  C_15
REMARK                            x       y       z     vdW  Elec       q    Type
REMARK                         _______ _______ _______ _____ _____    ______ ____
ROOT
ATOM      1  O   UNL     1      -3.962   1.372  -0.142  0.00  0.00    +0.000 OA
ENDROOT
BRANCH   1   2
ATOM      2  C   UNL     1      -5.316   1.549  -0.103  0.00  0.00    +0.000 A 
ATOM      3  C   UNL     1      -6.275   0.547   0.029  0.00  0.00    +0.000 A 
ATOM      4  C   UNL     1      -7.636   0.877   0.054  0.00  0.00    +0.000 A 
ATOM      5  C   UNL     1      -8.056   2.212  -0.053  0.00  0.00    +0.000 A 
ATOM      6  C   UNL     1      -7.089   3.214  -0.186  0.00  0.00    +0.000 A 
ATOM      7  C   UNL     1      -5.730   2.879  -0.211  0.00  0.00    +0.000 A 
BRANCH   5   8
ATOM      8  C   UNL     1      -9.524   2.517  -0.021  0.00  0.00    +0.000 C 
ATOM      9  O   UNL     1     -10.294   1.563   0.093  0.00  0.00    +0.000 OA
ATOM     10 CL   UNL     1     -10.075   4.174  -0.144  0.00  0.00    +0.000 Cl
ENDBRANCH   5   8
ENDBRANCH   1   2
BRANCH   1  11
ATOM     11  C   UNL     1      -3.474   0.036  -0.028  0.00  0.00    +0.000 C 
BRANCH  11  17
ATOM     12  C   UNL     1      -1.249  -0.619  -1.050  0.00  0.00    +0.000 A 
ATOM     13  C   UNL     1       0.147  -0.589  -1.063  0.00  0.00    +0.000 A 
ATOM     14  C   UNL     1       0.828   0.129  -0.087  0.00  0.00    +0.000 A 
ATOM     15  C   UNL     1       0.141   0.819   0.904  0.00  0.00    +0.000 A 
ATOM     16  C   UNL     1      -1.254   0.790   0.919  0.00  0.00    +0.000 A 
ATOM     17  C   UNL     1      -1.964   0.072  -0.059  0.00  0.00    +0.000 A 
ATOM     18  F   UNL     1       2.167   0.155  -0.102  0.00  0.00    +0.000 F 
ENDBRANCH  11  17
ENDBRANCH   1  11
TORSDOF 4
