MODEL 1
REMARK VINA RESULT:      -4.4      0.000      0.000
REMARK  Name = *****
REMARK  3 active torsions:
REMARK  status: ('A' for Active; 'I' for Inactive)
REMARK    1  A    between atoms: C_4  and  O_7
REMARK    2  A    between atoms: O_7  and  C_8
REMARK    3  A    between atoms: N_9  and  C_10
REMARK                            x       y       z     vdW  Elec       q    Type
REMARK                         _______ _______ _______ _____ _____    ______ ____
ROOT
ATOM      1  C   UNL     1      89.226  68.786  86.550  0.00  0.00    +0.000 C 
ATOM      2  N   UNL     1      89.125  69.807  87.329  0.00  0.00    +0.000 NA
ENDROOT
BRANCH   2   3
ATOM      3  C   UNL     1      87.903  70.486  87.276  0.00  0.00    +0.000 A 
ATOM      4  C   UNL     1      87.230  70.833  88.451  0.00  0.00    +0.000 A 
ATOM      5  C   UNL     1      86.016  71.524  88.394  0.00  0.00    +0.000 A 
ATOM      6  C   UNL     1      85.482  71.879  87.157  0.00  0.00    +0.000 A 
ATOM      7  C   UNL     1      86.154  71.556  85.980  0.00  0.00    +0.000 A 
ATOM      8  C   UNL     1      87.366  70.864  86.042  0.00  0.00    +0.000 A 
ATOM      9 CL   UNL     1      83.989  72.731  87.084  0.00  0.00    +0.000 Cl
ENDBRANCH   2   3
BRANCH   1  10
ATOM     10  O   UNL     1      90.383  68.054  86.527  0.00  0.00    +0.000 OA
BRANCH  10  14
ATOM     11  C   UNL     1      89.616  64.005  85.936  0.00  0.00    +0.000 A 
ATOM     12  C   UNL     1      90.739  64.592  85.347  0.00  0.00    +0.000 A 
ATOM     13  C   UNL     1      90.998  65.948  85.540  0.00  0.00    +0.000 A 
ATOM     14  C   UNL     1      90.117  66.704  86.312  0.00  0.00    +0.000 A 
ATOM     15  C   UNL     1      89.006  66.125  86.923  0.00  0.00    +0.000 A 
ATOM     16  C   UNL     1      88.753  64.769  86.726  0.00  0.00    +0.000 A 
ENDBRANCH  10  14
ENDBRANCH   1  10
TORSDOF 3
ENDMDL
