MODEL 1
REMARK VINA RESULT:      -4.3      0.000      0.000
REMARK  Name = *****
REMARK  3 active torsions:
REMARK  status: ('A' for Active; 'I' for Inactive)
REMARK    1  A    between atoms: C_4  and  C_7
REMARK    2  A    between atoms: C_7  and  C_8
REMARK    3  A    between atoms: C_9  and  C_10
REMARK                            x       y       z     vdW  Elec       q    Type
REMARK                         _______ _______ _______ _____ _____    ______ ____
ROOT
ATOM      1  C   UNL     1      89.144  70.210  87.152  0.00  0.00    +0.000 C 
ENDROOT
BRANCH   1   5
ATOM      2  C   UNL     1      85.192  71.944  87.092  0.00  0.00    +0.000 A 
ATOM      3  C   UNL     1      85.874  71.722  85.896  0.00  0.00    +0.000 A 
ATOM      4  C   UNL     1      87.151  71.159  85.914  0.00  0.00    +0.000 A 
ATOM      5  C   UNL     1      87.757  70.808  87.128  0.00  0.00    +0.000 A 
ATOM      6  C   UNL     1      87.064  71.041  88.325  0.00  0.00    +0.000 A 
ATOM      7  C   UNL     1      85.787  71.604  88.306  0.00  0.00    +0.000 A 
ENDBRANCH   1   5
BRANCH   1   8
ATOM      8  C   UNL     1      89.123  68.716  86.973  0.00  0.00    +0.000 C 
ATOM      9  C   UNL     1      90.050  68.035  86.278  0.00  0.00    +0.000 C 
BRANCH   9  10
ATOM     10  C   UNL     1      90.078  66.616  86.073  0.00  0.00    +0.000 A 
ATOM     11  C   UNL     1      89.067  65.796  86.534  0.00  0.00    +0.000 A 
ATOM     12  S   UNL     1      89.336  64.147  86.163  0.00  0.00    +0.000 S 
ATOM     13  C   UNL     1      90.814  64.511  85.384  0.00  0.00    +0.000 A 
ATOM     14  C   UNL     1      91.092  65.861  85.407  0.00  0.00    +0.000 A 
ENDBRANCH   9  10
ENDBRANCH   1   8
TORSDOF 3
ENDMDL
