MODEL 1
REMARK VINA RESULT:      -4.9      0.000      0.000
REMARK  Name = *****
REMARK  4 active torsions:
REMARK  status: ('A' for Active; 'I' for Inactive)
REMARK    1  A    between atoms: C_1  and  C_2
REMARK    2  A    between atoms: C_4  and  O_8
REMARK    3  A    between atoms: O_8  and  C_9
REMARK    4  A    between atoms: C_9  and  C_11
REMARK                            x       y       z     vdW  Elec       q    Type
REMARK                         _______ _______ _______ _____ _____    ______ ____
ROOT
ATOM      1  C   UNL     1     102.791 125.607  83.407  0.00  0.00    +0.000 C 
ATOM      2  O   UNL     1     102.416 125.165  84.482  0.00  0.00    +0.000 OA
ENDROOT
BRANCH   1   3
ATOM      3  C   UNL     1     103.553 124.792  82.419  0.00  0.00    +0.000 A 
ATOM      4  C   UNL     1     104.117 123.549  82.739  0.00  0.00    +0.000 A 
ATOM      5  C   UNL     1     104.820 122.839  81.765  0.00  0.00    +0.000 A 
ATOM      6  C   UNL     1     104.969 123.351  80.477  0.00  0.00    +0.000 A 
ATOM      7  C   UNL     1     104.410 124.586  80.154  0.00  0.00    +0.000 A 
ATOM      8  C   UNL     1     103.705 125.305  81.122  0.00  0.00    +0.000 A 
ATOM      9 CL   UNL     1     105.514 121.314  82.159  0.00  0.00    +0.000 Cl
ENDBRANCH   1   3
BRANCH   1  10
ATOM     10  O   UNL     1     102.598 126.882  82.909  0.00  0.00    +0.000 OA
BRANCH  10  14
ATOM     11  C   UNL     1      99.472 130.537  84.106  0.00  0.00    +0.000 C 
ATOM     12  C   UNL     1      99.748 129.169  83.557  0.00  0.00    +0.000 A 
ATOM     13  C   UNL     1     101.055 128.668  83.529  0.00  0.00    +0.000 A 
ATOM     14  C   UNL     1     101.297 127.398  83.003  0.00  0.00    +0.000 A 
ATOM     15  C   UNL     1     100.268 126.635  82.458  0.00  0.00    +0.000 A 
ATOM     16  C   UNL     1      98.969 127.138  82.467  0.00  0.00    +0.000 A 
ATOM     17  C   UNL     1      98.710 128.399  83.012  0.00  0.00    +0.000 A 
ENDBRANCH  10  14
ENDBRANCH   1  10
TORSDOF 3
ENDMDL
