MODEL 1
REMARK VINA RESULT:      -4.9      0.000      0.000
REMARK  Name = *****
REMARK  3 active torsions:
REMARK  status: ('A' for Active; 'I' for Inactive)
REMARK    1  A    between atoms: C_4  and  C_7
REMARK    2  A    between atoms: C_8  and  C_9
REMARK    3  A    between atoms: C_9  and  C_11
REMARK                            x       y       z     vdW  Elec       q    Type
REMARK                         _______ _______ _______ _____ _____    ______ ____
ROOT
ATOM      1  C   UNL     1      88.835  70.174  86.835  0.00  0.00    +0.000 C 
ATOM      2  O   UNL     1      89.758  70.857  86.401  0.00  0.00    +0.000 OA
ENDROOT
BRANCH   1   3
ATOM      3  C   UNL     1      88.951  68.691  86.843  0.00  0.00    +0.000 A 
ATOM      4  C   UNL     1      90.055  68.023  86.305  0.00  0.00    +0.000 A 
ATOM      5  C   UNL     1      90.092  66.633  86.335  0.00  0.00    +0.000 A 
ATOM      6  C   UNL     1      89.049  65.892  86.881  0.00  0.00    +0.000 A 
ATOM      7  C   UNL     1      87.939  66.552  87.404  0.00  0.00    +0.000 A 
ATOM      8  C   UNL     1      87.888  67.949  87.380  0.00  0.00    +0.000 A 
ATOM      9  F   UNL     1      91.152  65.995  85.820  0.00  0.00    +0.000 F 
ENDBRANCH   1   3
BRANCH   1  11
ATOM     10  C   UNL     1      86.685  71.272  86.439  0.00  0.00    +0.000 C 
ATOM     11  C   UNL     1      87.567  70.781  87.324  0.00  0.00    +0.000 C 
BRANCH  10  15
ATOM     12  C   UNL     1      82.934  73.067  87.437  0.00  0.00    +0.000 A 
ATOM     13  C   UNL     1      83.748  72.574  88.454  0.00  0.00    +0.000 A 
ATOM     14  C   UNL     1      84.974  71.979  88.144  0.00  0.00    +0.000 A 
ATOM     15  C   UNL     1      85.393  71.862  86.811  0.00  0.00    +0.000 A 
ATOM     16  C   UNL     1      84.573  72.379  85.799  0.00  0.00    +0.000 A 
ATOM     17  C   UNL     1      83.346  72.973  86.109  0.00  0.00    +0.000 A 
ENDBRANCH  10  15
ENDBRANCH   1  11
TORSDOF 3
ENDMDL
