REMARK  Name = *****
REMARK  3 active torsions:
REMARK  status: ('A' for Active; 'I' for Inactive)
REMARK    1  A    between atoms: C_5  and  C_6
REMARK    2  A    between atoms: C_6  and  C_9
REMARK    3  A    between atoms: C_9  and  C_12
REMARK                            x       y       z     vdW  Elec       q    Type
REMARK                         _______ _______ _______ _____ _____    ______ ____
ROOT
ATOM      1  C   UNL     1       2.684  -1.434   0.051  0.00  0.00    +0.000 C 
ATOM      2  C   UNL     1       2.634  -2.740   0.020  0.00  0.00    +0.000 C 
ATOM      3  O   UNL     1       2.589  -3.915  -0.018  0.00  0.00    +0.000 OA
ENDROOT
BRANCH   1   8
ATOM      4  C   UNL     1       0.139  -1.192  -0.151  0.00  0.00    +0.000 A 
ATOM      5  C   UNL     1      -0.836  -0.219  -0.112  0.00  0.00    +0.000 A 
ATOM      6  S   UNL     1      -0.182   1.333   0.159  0.00  0.00    +0.000 S 
ATOM      7  C   UNL     1       1.411   0.709   0.229  0.00  0.00    +0.000 A 
ATOM      8  C   UNL     1       1.460  -0.662   0.042  0.00  0.00    +0.000 A 
ENDBRANCH   1   8
BRANCH   1   9
ATOM      9  C   UNL     1       4.010  -0.812   0.061  0.00  0.00    +0.000 C 
ATOM     10  C   UNL     1       4.698  -0.884   1.170  0.00  0.00    +0.000 C 
ATOM     11  O   UNL     1       5.313  -0.939   2.170  0.00  0.00    +0.000 OA
BRANCH   9  12
ATOM     12  C   UNL     1       4.548  -0.107  -1.082  0.00  0.00    +0.000 A 
ATOM     13  C   UNL     1       3.986  -0.144  -2.346  0.00  0.00    +0.000 A 
ATOM     14  S   UNL     1       4.849   0.799  -3.486  0.00  0.00    +0.000 S 
ATOM     15  C   UNL     1       5.995   1.266  -2.311  0.00  0.00    +0.000 A 
ATOM     16  C   UNL     1       5.725   0.717  -1.077  0.00  0.00    +0.000 A 
ENDBRANCH   9  12
ENDBRANCH   1   9
TORSDOF 3
