MODEL 1
REMARK VINA RESULT:      -4.0      0.000      0.000
REMARK  Name = *****
REMARK  0 active torsions:
REMARK  status: ('A' for Active; 'I' for Inactive)
REMARK                            x       y       z     vdW  Elec       q    Type
REMARK                         _______ _______ _______ _____ _____    ______ ____
ROOT
ATOM      1  C   UNL     1     102.023 125.906  82.058  0.00  0.00    +0.000 C 
ATOM      2  C   UNL     1     101.096 126.981  82.591  0.00  0.00    +0.000 A 
ATOM      3  C   UNL     1      99.711 126.789  82.398  0.00  0.00    +0.000 A 
ATOM      4  C   UNL     1      98.778 127.734  82.823  0.00  0.00    +0.000 A 
ATOM      5  C   UNL     1      99.210 128.897  83.445  0.00  0.00    +0.000 A 
ATOM      6  C   UNL     1     100.573 129.113  83.639  0.00  0.00    +0.000 A 
ATOM      7  C   UNL     1     101.537 128.176  83.212  0.00  0.00    +0.000 A 
ATOM      8  C   UNL     1     102.990 128.496  83.504  0.00  0.00    +0.000 C 
ATOM      9  S   UNL     1     104.048 128.448  82.039  0.00  0.00    +0.000 S 
ATOM     10  C   UNL     1     105.065 127.062  82.305  0.00  0.00    +0.000 A 
ATOM     11  C   UNL     1     104.724 125.833  82.756  0.00  0.00    +0.000 A 
ATOM     12  S   UNL     1     103.171 125.262  83.294  0.00  0.00    +0.000 S 
ATOM     13  S   UNL     1     106.025 124.659  82.878  0.00  0.00    +0.000 S 
ATOM     14  C   UNL     1     107.297 125.683  82.268  0.00  0.00    +0.000 A 
ATOM     15  O   UNL     1     108.454 125.314  82.139  0.00  0.00    +0.000 OA
ATOM     16  S   UNL     1     106.750 127.287  81.860  0.00  0.00    +0.000 S 
ENDROOT
TORSDOF 0
ENDMDL
