MODEL 1
REMARK VINA RESULT:      -4.4      0.000      0.000
REMARK  Name = *****
REMARK  3 active torsions:
REMARK  status: ('A' for Active; 'I' for Inactive)
REMARK    1  A    between atoms: C_5  and  C_7
REMARK    2  A    between atoms: C_7  and  C_8
REMARK    3  A    between atoms: C_8  and  C_9
REMARK                            x       y       z     vdW  Elec       q    Type
REMARK                         _______ _______ _______ _____ _____    ______ ____
ROOT
ATOM      1  C   UNL     1      87.881  69.504  87.539  0.00  0.00    +0.000 C 
ENDROOT
BRANCH   1   6
ATOM      2  C   UNL     1      89.346  68.372  84.877  0.00  0.00    +0.000 C 
ATOM      3  C   UNL     1      90.006  69.584  84.216  0.00  0.00    +0.000 C 
ATOM      4  C   UNL     1      90.041  70.798  85.098  0.00  0.00    +0.000 C 
ATOM      5  C   UNL     1      89.751  70.771  86.408  0.00  0.00    +0.000 C 
ATOM      6  C   UNL     1      89.376  69.513  87.156  0.00  0.00    +0.000 C 
ATOM      7  C   UNL     1      89.747  68.252  86.346  0.00  0.00    +0.000 C 
ENDBRANCH   1   6
BRANCH   1   8
ATOM      8  C   UNL     1      87.419  70.809  88.197  0.00  0.00    +0.000 C 
BRANCH   8   9
ATOM      9  C   UNL     1      86.247  71.416  87.462  0.00  0.00    +0.000 A 
ATOM     10  C   UNL     1      86.249  71.499  86.064  0.00  0.00    +0.000 A 
ATOM     11  C   UNL     1      85.173  72.077  85.389  0.00  0.00    +0.000 A 
ATOM     12  C   UNL     1      84.088  72.581  86.105  0.00  0.00    +0.000 A 
ATOM     13  C   UNL     1      84.080  72.509  87.497  0.00  0.00    +0.000 A 
ATOM     14  C   UNL     1      85.156  71.932  88.173  0.00  0.00    +0.000 A 
ENDBRANCH   8   9
ENDBRANCH   1   8
TORSDOF 3
ENDMDL
