MODEL 1
REMARK VINA RESULT:      -4.6      0.000      0.000
REMARK  Name = *****
REMARK  3 active torsions:
REMARK  status: ('A' for Active; 'I' for Inactive)
REMARK    1  A    between atoms: C_2  and  C_10
REMARK    2  A    between atoms: C_4  and  C_6
REMARK    3  A    between atoms: C_11  and  C_12
REMARK                            x       y       z     vdW  Elec       q    Type
REMARK                         _______ _______ _______ _____ _____    ______ ____
ROOT
ATOM      1  C   UNL     1      90.144  69.611  83.800  0.00  0.00    +0.000 C 
ATOM      2  C   UNL     1      89.891  70.031  85.238  0.00  0.00    +0.000 C 
ATOM      3  N   UNL     1      89.929  68.779  86.004  0.00  0.00    +0.000 NA
ATOM      4  C   UNL     1      89.896  67.839  85.104  0.00  0.00    +0.000 C 
ATOM      5  O   UNL     1      89.896  68.211  83.792  0.00  0.00    +0.000 OA
ENDROOT
BRANCH   4   6
ATOM      6  C   UNL     1      89.840  66.338  85.353  0.00  0.00    +0.000 C 
ATOM      7 CL   UNL     1      88.926  65.569  84.026  0.00  0.00    +0.000 Cl
ATOM      8 CL   UNL     1      91.475  65.634  85.418  0.00  0.00    +0.000 Cl
ATOM      9 CL   UNL     1      89.014  66.056  86.910  0.00  0.00    +0.000 Cl
ENDBRANCH   4   6
BRANCH   2  10
ATOM     10  C   UNL     1      88.541  70.664  85.440  0.00  0.00    +0.000 C 
ATOM     11  C   UNL     1      87.880  70.655  86.609  0.00  0.00    +0.000 C 
BRANCH  11  12
ATOM     12  C   UNL     1      86.563  71.277  86.810  0.00  0.00    +0.000 A 
ATOM     13  C   UNL     1      86.033  71.506  88.087  0.00  0.00    +0.000 A 
ATOM     14  C   UNL     1      84.791  72.126  88.240  0.00  0.00    +0.000 A 
ATOM     15  C   UNL     1      84.070  72.533  87.118  0.00  0.00    +0.000 A 
ATOM     16  C   UNL     1      84.595  72.325  85.845  0.00  0.00    +0.000 A 
ATOM     17  C   UNL     1      85.837  71.705  85.691  0.00  0.00    +0.000 A 
ENDBRANCH  11  12
ENDBRANCH   2  10
TORSDOF 3
ENDMDL
