MODEL 1
REMARK VINA RESULT:      -4.5      0.000      0.000
REMARK  Name = *****
REMARK  6 active torsions:
REMARK  status: ('A' for Active; 'I' for Inactive)
REMARK    1  A    between atoms: C_1  and  C_2
REMARK    2  A    between atoms: C_2  and  C_3
REMARK    3  A    between atoms: N_5  and  C_18
REMARK    4  A    between atoms: C_6  and  C_9
REMARK    5  A    between atoms: C_10  and  C_11
REMARK    6  A    between atoms: C_18  and  C_19
REMARK                            x       y       z     vdW  Elec       q    Type
REMARK                         _______ _______ _______ _____ _____    ______ ____
ROOT
ATOM      1  C   UNL     1      88.115  64.739  88.274  0.00  0.00    +0.000 C 
ATOM      2  C   UNL     1      88.862  64.779  87.096  0.00  0.00    +0.000 C 
ATOM      3  N   UNL     1      88.880  65.879  86.302  0.00  0.00    +0.000 N 
ATOM      4  C   UNL     1      88.163  66.987  86.643  0.00  0.00    +0.000 C 
ATOM      5  C   UNL     1      87.406  66.987  87.820  0.00  0.00    +0.000 C 
ATOM      6  C   UNL     1      87.384  65.865  88.637  0.00  0.00    +0.000 C 
ENDROOT
BRANCH   1   8
ATOM      7  C   UNL     1      88.971  63.721  90.400  0.00  0.00    +0.000 C 
ATOM      8  C   UNL     1      88.128  63.513  89.151  0.00  0.00    +0.000 C 
ENDBRANCH   1   8
BRANCH   4   9
ATOM      9  C   UNL     1      88.162  68.173  85.781  0.00  0.00    +0.000 C 
ATOM     10  C   UNL     1      88.693  69.342  86.172  0.00  0.00    +0.000 C 
BRANCH  10  11
ATOM     11  C   UNL     1      88.721  70.535  85.316  0.00  0.00    +0.000 A 
ATOM     12  C   UNL     1      89.922  71.100  84.865  0.00  0.00    +0.000 A 
ATOM     13  C   UNL     1      89.908  72.225  84.033  0.00  0.00    +0.000 A 
ATOM     14  C   UNL     1      88.694  72.784  83.643  0.00  0.00    +0.000 A 
ATOM     15  C   UNL     1      87.493  72.223  84.068  0.00  0.00    +0.000 A 
ATOM     16  C   UNL     1      87.507  71.097  84.898  0.00  0.00    +0.000 A 
ATOM     17 CL   UNL     1      88.678  74.168  82.623  0.00  0.00    +0.000 Cl
ENDBRANCH  10  11
ENDBRANCH   4   9
BRANCH   3  18
ATOM     18  C   UNL     1      89.725  65.835  85.078  0.00  0.00    +0.000 C 
ATOM     19  C   UNL     1      91.190  65.883  85.468  0.00  0.00    +0.000 C 
ENDBRANCH   3  18
TORSDOF 4
ENDMDL
