MODEL 1
REMARK VINA RESULT:      -4.6      0.000      0.000
REMARK  Name = *****
REMARK  4 active torsions:
REMARK  status: ('A' for Active; 'I' for Inactive)
REMARK    1  A    between atoms: C_2  and  C_3
REMARK    2  A    between atoms: C_6  and  N_9
REMARK    3  A    between atoms: N_9  and  C_10
REMARK    4  A    between atoms: C_10  and  C_11
REMARK                            x       y       z     vdW  Elec       q    Type
REMARK                         _______ _______ _______ _____ _____    ______ ____
ROOT
ATOM      1  N   UNL     1     103.543 127.675  82.332  0.00  0.00    +0.000 NA
ENDROOT
BRANCH   1   5
ATOM      2  C   UNL     1     104.532 123.806  80.961  0.00  0.00    +0.000 A 
ATOM      3  C   UNL     1     104.433 124.069  82.334  0.00  0.00    +0.000 A 
ATOM      4  C   UNL     1     104.106 125.350  82.791  0.00  0.00    +0.000 A 
ATOM      5  C   UNL     1     103.901 126.396  81.889  0.00  0.00    +0.000 A 
ATOM      6  C   UNL     1     103.991 126.135  80.522  0.00  0.00    +0.000 A 
ATOM      7  C   UNL     1     104.316 124.855  80.059  0.00  0.00    +0.000 A 
BRANCH   2   9
ATOM      8  C   UNL     1     104.551 121.326  81.144  0.00  0.00    +0.000 C 
ATOM      9  C   UNL     1     104.912 122.455  80.524  0.00  0.00    +0.000 C 
ENDBRANCH   2   9
ENDBRANCH   1   5
BRANCH   1  10
ATOM     10  C   UNL     1     102.704 127.837  83.314  0.00  0.00    +0.000 C 
ATOM     11  O   UNL     1     102.933 128.010  84.526  0.00  0.00    +0.000 OA
BRANCH  10  12
ATOM     12  C   UNL     1     101.213 127.828  83.158  0.00  0.00    +0.000 A 
ATOM     13  C   UNL     1     100.589 126.733  82.548  0.00  0.00    +0.000 A 
ATOM     14  C   UNL     1      99.208 126.739  82.348  0.00  0.00    +0.000 A 
ATOM     15  C   UNL     1      98.449 127.839  82.754  0.00  0.00    +0.000 A 
ATOM     16  C   UNL     1      99.068 128.934  83.361  0.00  0.00    +0.000 A 
ATOM     17  C   UNL     1     100.450 128.932  83.561  0.00  0.00    +0.000 A 
ENDBRANCH  10  12
ENDBRANCH   1  10
TORSDOF 4
ENDMDL
