MODEL 1
REMARK VINA RESULT:      -4.9      0.000      0.000
REMARK  Name = *****
REMARK  4 active torsions:
REMARK  status: ('A' for Active; 'I' for Inactive)
REMARK    1  A    between atoms: C_1  and  C_2
REMARK    2  A    between atoms: C_2  and  C_4
REMARK    3  A    between atoms: C_9  and  C_10
REMARK    4  A    between atoms: C_11  and  C_12
REMARK                            x       y       z     vdW  Elec       q    Type
REMARK                         _______ _______ _______ _____ _____    ______ ____
ROOT
ATOM      1  C   UNL     1      99.459 128.468  83.732  0.00  0.00    +0.000 A 
ATOM      2  C   UNL     1      98.911 129.567  84.413  0.00  0.00    +0.000 A 
ATOM      3  C   UNL     1      99.740 130.577  84.900  0.00  0.00    +0.000 A 
ATOM      4  C   UNL     1     101.117 130.494  84.712  0.00  0.00    +0.000 A 
ATOM      5  C   UNL     1     101.667 129.402  84.036  0.00  0.00    +0.000 A 
ATOM      6  C   UNL     1     100.848 128.377  83.533  0.00  0.00    +0.000 A 
ENDROOT
BRANCH   1   8
ATOM      7  C   UNL     1      98.016 126.408  84.215  0.00  0.00    +0.000 C 
ATOM      8  C   UNL     1      98.532 127.421  83.226  0.00  0.00    +0.000 C 
ATOM      9  O   UNL     1      98.232 127.372  82.036  0.00  0.00    +0.000 OA
ENDBRANCH   1   8
BRANCH   6  10
ATOM     10  C   UNL     1     101.473 127.252  82.824  0.00  0.00    +0.000 C 
ATOM     11  C   UNL     1     102.798 127.039  82.829  0.00  0.00    +0.000 C 
BRANCH  11  12
ATOM     12  C   UNL     1     103.437 125.920  82.112  0.00  0.00    +0.000 A 
ATOM     13  C   UNL     1     103.666 124.705  82.781  0.00  0.00    +0.000 A 
ATOM     14  C   UNL     1     104.239 123.617  82.119  0.00  0.00    +0.000 A 
ATOM     15  C   UNL     1     104.585 123.721  80.774  0.00  0.00    +0.000 A 
ATOM     16  C   UNL     1     104.355 124.915  80.090  0.00  0.00    +0.000 A 
ATOM     17  C   UNL     1     103.780 126.006  80.751  0.00  0.00    +0.000 A 
ATOM     18 CL   UNL     1     103.536 127.454  79.831  0.00  0.00    +0.000 Cl
ENDBRANCH  11  12
ENDBRANCH   6  10
TORSDOF 3
ENDMDL
