REMARK  Name = *****
REMARK  5 active torsions:
REMARK  status: ('A' for Active; 'I' for Inactive)
REMARK    1  A    between atoms: C_1  and  C_2
REMARK    2  A    between atoms: C_5  and  N_8
REMARK    3  A    between atoms: N_8  and  C_9
REMARK    4  A    between atoms: N_10  and  C_11
REMARK    5  A    between atoms: C_14  and  C_17
REMARK                            x       y       z     vdW  Elec       q    Type
REMARK                         _______ _______ _______ _____ _____    ______ ____
ROOT
ATOM      1  C   UNL     1      -3.999   1.197  -0.319  0.00  0.00    +0.000 C 
ATOM      2  N   UNL     1      -5.291   1.202  -0.371  0.00  0.00    +0.000 NA
ENDROOT
BRANCH   2   3
ATOM      3  C   UNL     1      -5.909   2.458  -0.289  0.00  0.00    +0.000 A 
ATOM      4  C   UNL     1      -5.836   3.373  -1.342  0.00  0.00    +0.000 A 
ATOM      5  C   UNL     1      -6.483   4.609  -1.258  0.00  0.00    +0.000 A 
ATOM      6  C   UNL     1      -7.217   4.947  -0.114  0.00  0.00    +0.000 A 
ATOM      7  C   UNL     1      -7.314   4.017   0.929  0.00  0.00    +0.000 A 
ATOM      8  C   UNL     1      -6.663   2.784   0.838  0.00  0.00    +0.000 A 
ATOM      9  C   UNL     1      -7.941   6.256  -0.037  0.00  0.00    +0.000 C 
ENDBRANCH   2   3
BRANCH   1  10
ATOM     10  N   UNL     1      -3.318   0.060  -0.410  0.00  0.00    +0.000 NA
BRANCH  10  15
ATOM     11  C   UNL     1       2.306   0.133   0.517  0.00  0.00    +0.000 C 
ATOM     12  C   UNL     1       0.830   0.151   0.269  0.00  0.00    +0.000 A 
ATOM     13  C   UNL     1      -0.036   0.787   1.161  0.00  0.00    +0.000 A 
ATOM     14  C   UNL     1      -1.419   0.772   0.943  0.00  0.00    +0.000 A 
ATOM     15  C   UNL     1      -1.985   0.129  -0.171  0.00  0.00    +0.000 A 
ATOM     16  C   UNL     1      -1.102  -0.536  -1.032  0.00  0.00    +0.000 A 
ATOM     17  C   UNL     1       0.283  -0.527  -0.823  0.00  0.00    +0.000 A 
ENDBRANCH  10  15
ENDBRANCH   1  10
TORSDOF 3
