MODEL 1
REMARK VINA RESULT:      -4.4      0.000      0.000
REMARK  Name = *****
REMARK  6 active torsions:
REMARK  status: ('A' for Active; 'I' for Inactive)
REMARK    1  A    between atoms: C_1  and  N_2
REMARK    2  A    between atoms: N_2  and  C_3
REMARK    3  A    between atoms: N_2  and  C_4
REMARK    4  A    between atoms: C_7  and  S_10
REMARK    5  A    between atoms: S_10  and  C_11
REMARK    6  A    between atoms: C_11  and  C_12
REMARK                            x       y       z     vdW  Elec       q    Type
REMARK                         _______ _______ _______ _____ _____    ______ ____
ROOT
ATOM      1  C   UNL     1      88.896  65.735  86.723  0.00  0.00    +0.000 A 
ATOM      2  C   UNL     1      89.983  66.454  86.195  0.00  0.00    +0.000 A 
ATOM      3  C   UNL     1      90.063  67.854  86.260  0.00  0.00    +0.000 A 
ATOM      4  C   UNL     1      89.039  68.592  86.844  0.00  0.00    +0.000 A 
ATOM      5  C   UNL     1      87.948  67.912  87.377  0.00  0.00    +0.000 A 
ATOM      6  C   UNL     1      87.879  66.511  87.306  0.00  0.00    +0.000 A 
ENDROOT
BRANCH   1   8
ATOM      7  C   UNL     1      87.717  63.650  87.325  0.00  0.00    +0.000 C 
ATOM      8  N   UNL     1      88.809  64.341  86.639  0.00  0.00    +0.000 N 
ATOM      9  C   UNL     1      89.326  63.674  85.446  0.00  0.00    +0.000 C 
ENDBRANCH   1   8
BRANCH   4  10
ATOM     10  S   UNL     1      89.099  70.368  86.953  0.00  0.00    +0.000 S 
BRANCH  10  11
ATOM     11  C   UNL     1      87.801  70.799  85.747  0.00  0.00    +0.000 C 
BRANCH  11  12
ATOM     12  C   UNL     1      86.574  71.350  86.431  0.00  0.00    +0.000 A 
ATOM     13  C   UNL     1      85.527  71.903  85.681  0.00  0.00    +0.000 A 
ATOM     14  C   UNL     1      84.396  72.419  86.317  0.00  0.00    +0.000 A 
ATOM     15  C   UNL     1      84.303  72.392  87.707  0.00  0.00    +0.000 A 
ATOM     16  C   UNL     1      85.341  71.854  88.463  0.00  0.00    +0.000 A 
ATOM     17  C   UNL     1      86.473  71.337  87.830  0.00  0.00    +0.000 A 
ENDBRANCH  11  12
ENDBRANCH  10  11
ENDBRANCH   4  10
TORSDOF 4
ENDMDL
