REMARK  Name = *****
REMARK  4 active torsions:
REMARK  status: ('A' for Active; 'I' for Inactive)
REMARK    1  A    between atoms: C_1  and  N_2
REMARK    2  A    between atoms: N_2  and  C_3
REMARK    3  A    between atoms: N_2  and  C_11
REMARK    4  A    between atoms: C_4  and  C_5
REMARK                            x       y       z     vdW  Elec       q    Type
REMARK                         _______ _______ _______ _____ _____    ______ ____
ROOT
ATOM      1  C   UNL     1       1.755  -1.487   0.605  0.00  0.00    +0.000 C 
ATOM      2  N   UNL     1       3.004  -0.738   0.414  0.00  0.00    +0.000 N 
ENDROOT
BRANCH   2   3
ATOM      3  C   UNL     1       3.629  -0.245   1.596  0.00  0.00    +0.000 A 
ATOM      4  C   UNL     1       2.993  -0.219   2.850  0.00  0.00    +0.000 A 
ATOM      5  C   UNL     1       3.639   0.264   3.996  0.00  0.00    +0.000 A 
ATOM      6  C   UNL     1       4.947   0.728   3.921  0.00  0.00    +0.000 A 
ATOM      7  C   UNL     1       5.610   0.705   2.700  0.00  0.00    +0.000 A 
ATOM      8  C   UNL     1       4.959   0.223   1.559  0.00  0.00    +0.000 A 
ENDBRANCH   2   3
BRANCH   2   9
ATOM      9  C   UNL     1       3.393  -0.309  -0.851  0.00  0.00    +0.000 C 
ATOM     10  C   UNL     1       3.386  -0.911  -2.051  0.00  0.00    +0.000 C 
BRANCH  10  11
ATOM     11  C   UNL     1       3.053  -2.310  -2.345  0.00  0.00    +0.000 A 
ATOM     12  C   UNL     1       2.234  -2.606  -3.441  0.00  0.00    +0.000 A 
ATOM     13  C   UNL     1       1.931  -3.931  -3.761  0.00  0.00    +0.000 A 
ATOM     14  C   UNL     1       2.454  -4.972  -2.995  0.00  0.00    +0.000 A 
ATOM     15  C   UNL     1       3.285  -4.688  -1.912  0.00  0.00    +0.000 A 
ATOM     16  C   UNL     1       3.588  -3.363  -1.593  0.00  0.00    +0.000 A 
ENDBRANCH  10  11
ENDBRANCH   2   9
TORSDOF 3
