MODEL 1
REMARK VINA RESULT:      -4.0      0.000      0.000
REMARK  Name = *****
REMARK  6 active torsions:
REMARK  status: ('A' for Active; 'I' for Inactive)
REMARK    1  A    between atoms: C_1  and  C_2
REMARK    2  A    between atoms: C_7  and  C_8
REMARK    3  A    between atoms: C_8  and  N_9
REMARK    4  A    between atoms: N_9  and  C_10
REMARK    5  A    between atoms: C_10  and  C_11
REMARK    6  A    between atoms: C_16  and  C_17
REMARK                            x       y       z     vdW  Elec       q    Type
REMARK                         _______ _______ _______ _____ _____    ______ ____
ROOT
ATOM      1  N   UNL     1      86.929  63.579  87.142  0.00  0.00    +0.000 NA
ENDROOT
BRANCH   1   2
ATOM      2  C   UNL     1      86.996  64.842  87.895  0.00  0.00    +0.000 C 
BRANCH   2   9
ATOM      3  C   UNL     1      85.267  65.572  90.284  0.00  0.00    +0.000 C 
ATOM      4  C   UNL     1      86.640  64.978  90.440  0.00  0.00    +0.000 A 
ATOM      5  C   UNL     1      87.132  64.744  91.735  0.00  0.00    +0.000 A 
ATOM      6  C   UNL     1      88.396  64.192  91.936  0.00  0.00    +0.000 A 
ATOM      7  C   UNL     1      89.191  63.865  90.844  0.00  0.00    +0.000 A 
ATOM      8  C   UNL     1      88.717  64.090  89.552  0.00  0.00    +0.000 A 
ATOM      9  C   UNL     1      87.443  64.647  89.329  0.00  0.00    +0.000 A 
ENDBRANCH   2   9
ENDBRANCH   1   2
BRANCH   1  10
ATOM     10  C   UNL     1      85.759  63.031  87.140  0.00  0.00    +0.000 C 
BRANCH  10  11
ATOM     11  C   UNL     1      85.208  62.350  88.337  0.00  0.00    +0.000 A 
ATOM     12  C   UNL     1      86.045  61.498  89.070  0.00  0.00    +0.000 A 
ATOM     13  C   UNL     1      85.564  60.829  90.193  0.00  0.00    +0.000 A 
ATOM     14  C   UNL     1      84.243  61.009  90.592  0.00  0.00    +0.000 A 
ATOM     15  C   UNL     1      83.403  61.858  89.870  0.00  0.00    +0.000 A 
ATOM     16  C   UNL     1      83.871  62.543  88.734  0.00  0.00    +0.000 A 
ATOM     17  C   UNL     1      82.928  63.449  87.994  0.00  0.00    +0.000 C 
ENDBRANCH  10  11
ENDBRANCH   1  10
TORSDOF 4
ENDMDL
