MODEL 1
REMARK VINA RESULT:      -4.6      0.000      0.000
REMARK  Name = *****
REMARK  4 active torsions:
REMARK  status: ('A' for Active; 'I' for Inactive)
REMARK    1  A    between atoms: C_6  and  C_7
REMARK    2  A    between atoms: C_7  and  O_8
REMARK    3  A    between atoms: O_8  and  C_9
REMARK    4  A    between atoms: C_9  and  C_11
REMARK                            x       y       z     vdW  Elec       q    Type
REMARK                         _______ _______ _______ _____ _____    ______ ____
ROOT
ATOM      1  O   UNL     1     103.427 125.136  80.110  0.00  0.00    +0.000 OA
ENDROOT
BRANCH   1   2
ATOM      2  C   UNL     1     104.602 124.462  80.092  0.00  0.00    +0.000 C 
ATOM      3  O   UNL     1     105.564 124.707  79.384  0.00  0.00    +0.000 OA
BRANCH   2   4
ATOM      4  C   UNL     1     104.578 123.351  81.085  0.00  0.00    +0.000 A 
ATOM      5  C   UNL     1     104.443 123.575  82.465  0.00  0.00    +0.000 A 
ATOM      6  C   UNL     1     104.432 122.496  83.352  0.00  0.00    +0.000 A 
ATOM      7  C   UNL     1     104.554 121.200  82.863  0.00  0.00    +0.000 A 
ATOM      8  C   UNL     1     104.686 120.960  81.500  0.00  0.00    +0.000 A 
ATOM      9  C   UNL     1     104.698 122.036  80.608  0.00  0.00    +0.000 A 
ATOM     10  F   UNL     1     104.544 120.170  83.717  0.00  0.00    +0.000 F 
ENDBRANCH   2   4
ENDBRANCH   1   2
BRANCH   1  11
ATOM     11  C   UNL     1     103.530 126.550  80.320  0.00  0.00    +0.000 C 
BRANCH  11  17
ATOM     12  C   UNL     1     101.778 126.113  82.088  0.00  0.00    +0.000 A 
ATOM     13  C   UNL     1     101.107 126.466  83.260  0.00  0.00    +0.000 A 
ATOM     14  C   UNL     1     101.462 127.631  83.928  0.00  0.00    +0.000 A 
ATOM     15  C   UNL     1     102.478 128.450  83.451  0.00  0.00    +0.000 A 
ATOM     16  C   UNL     1     103.148 128.102  82.277  0.00  0.00    +0.000 A 
ATOM     17  C   UNL     1     102.799 126.932  81.582  0.00  0.00    +0.000 A 
ATOM     18  F   UNL     1     100.819 127.968  85.055  0.00  0.00    +0.000 F 
ENDBRANCH  11  17
ENDBRANCH   1  11
TORSDOF 4
ENDMDL
