MODEL 1
REMARK VINA RESULT:      -5.1      0.000      0.000
REMARK  Name = *****
REMARK  6 active torsions:
REMARK  status: ('A' for Active; 'I' for Inactive)
REMARK    1  A    between atoms: C_1  and  C_2
REMARK    2  A    between atoms: C_4  and  C_8
REMARK    3  A    between atoms: C_8  and  C_16
REMARK    4  A    between atoms: C_9  and  C_10
REMARK    5  A    between atoms: C_16  and  O_17
REMARK    6  A    between atoms: O_17  and  C_18
REMARK                            x       y       z     vdW  Elec       q    Type
REMARK                         _______ _______ _______ _____ _____    ______ ____
ROOT
ATOM      1  C   UNL     1     103.219 126.219  81.074  0.00  0.00    +0.000 C 
ATOM      2  C   UNL     1     102.316 125.987  82.047  0.00  0.00    +0.000 C 
ENDROOT
BRANCH   1   6
ATOM      3  C   UNL     1     104.861 121.552  81.883  0.00  0.00    +0.000 C 
ATOM      4  C   UNL     1     104.906 122.831  81.101  0.00  0.00    +0.000 A 
ATOM      5  C   UNL     1     104.060 123.897  81.434  0.00  0.00    +0.000 A 
ATOM      6  C   UNL     1     104.122 125.106  80.726  0.00  0.00    +0.000 A 
ATOM      7  C   UNL     1     105.038 125.245  79.679  0.00  0.00    +0.000 A 
ATOM      8  C   UNL     1     105.894 124.193  79.353  0.00  0.00    +0.000 A 
ATOM      9  C   UNL     1     105.833 122.994  80.065  0.00  0.00    +0.000 A 
ENDBRANCH   1   6
BRANCH   2  10
ATOM     10  C   UNL     1     101.297 126.916  82.552  0.00  0.00    +0.000 A 
ATOM     11  C   UNL     1     101.641 128.085  83.241  0.00  0.00    +0.000 A 
ATOM     12  C   UNL     1     100.649 128.969  83.672  0.00  0.00    +0.000 A 
ATOM     13  C   UNL     1      99.308 128.698  83.407  0.00  0.00    +0.000 A 
ATOM     14  C   UNL     1      98.957 127.545  82.708  0.00  0.00    +0.000 A 
ATOM     15  C   UNL     1      99.948 126.660  82.277  0.00  0.00    +0.000 A 
ENDBRANCH   2  10
BRANCH   1  16
ATOM     16  C   UNL     1     103.466 127.491  80.291  0.00  0.00    +0.000 C 
BRANCH  16  17
ATOM     17  O   UNL     1     104.242 128.460  80.994  0.00  0.00    +0.000 OA
ATOM     18  C   UNL     1     105.080 129.223  80.138  0.00  0.00    +0.000 C 
ENDBRANCH  16  17
ENDBRANCH   1  16
TORSDOF 4
ENDMDL
