MODEL 1
REMARK VINA RESULT:      -4.7      0.000      0.000
REMARK  Name = *****
REMARK  6 active torsions:
REMARK  status: ('A' for Active; 'I' for Inactive)
REMARK    1  A    between atoms: C_1  and  C_2
REMARK    2  A    between atoms: C_2  and  N_3
REMARK    3  A    between atoms: N_3  and  C_4
REMARK    4  A    between atoms: C_7  and  C_10
REMARK    5  A    between atoms: C_11  and  C_13
REMARK    6  A    between atoms: C_16  and  C_19
REMARK                            x       y       z     vdW  Elec       q    Type
REMARK                         _______ _______ _______ _____ _____    ______ ____
ROOT
ATOM      1  N   UNL     1      87.249  64.485  88.690  0.00  0.00    +0.000 N 
ATOM      2  C   UNL     1      86.554  63.444  88.035  0.00  0.00    +0.000 C 
ATOM      3  O   UNL     1      86.607  63.173  86.837  0.00  0.00    +0.000 OA
ENDROOT
BRANCH   1   4
ATOM      4  C   UNL     1      87.877  65.549  87.932  0.00  0.00    +0.000 A 
ATOM      5  C   UNL     1      87.368  66.856  87.952  0.00  0.00    +0.000 A 
ATOM      6  C   UNL     1      87.982  67.899  87.243  0.00  0.00    +0.000 A 
ATOM      7  C   UNL     1      89.141  67.671  86.503  0.00  0.00    +0.000 A 
ATOM      8  C   UNL     1      89.662  66.377  86.469  0.00  0.00    +0.000 A 
ATOM      9  C   UNL     1      89.045  65.338  87.180  0.00  0.00    +0.000 A 
ATOM     10  C   UNL     1      89.775  68.775  85.713  0.00  0.00    +0.000 C 
ENDBRANCH   1   4
BRANCH   2  11
ATOM     11  C   UNL     1      85.686  62.558  88.840  0.00  0.00    +0.000 A 
ATOM     12  C   UNL     1      84.328  62.856  88.991  0.00  0.00    +0.000 A 
ATOM     13  C   UNL     1      83.511  61.997  89.729  0.00  0.00    +0.000 A 
ATOM     14  C   UNL     1      84.044  60.838  90.311  0.00  0.00    +0.000 A 
ATOM     15  C   UNL     1      85.398  60.529  90.115  0.00  0.00    +0.000 A 
ATOM     16  C   UNL     1      86.218  61.384  89.377  0.00  0.00    +0.000 A 
ATOM     17  C   UNL     1      83.156  59.895  91.069  0.00  0.00    +0.000 C 
ENDBRANCH   2  11
BRANCH   1  19
ATOM     18  C   UNL     1      88.889  63.841  90.453  0.00  0.00    +0.000 C 
ATOM     19  C   UNL     1      87.511  64.410  90.139  0.00  0.00    +0.000 C 
ENDBRANCH   1  19
TORSDOF 3
ENDMDL
