MODEL 1
REMARK VINA RESULT:      -4.9      0.000      0.000
REMARK  Name = *****
REMARK  3 active torsions:
REMARK  status: ('A' for Active; 'I' for Inactive)
REMARK    1  A    between atoms: C_1  and  C_2
REMARK    2  A    between atoms: C_3  and  C_9
REMARK    3  A    between atoms: C_10  and  C_11
REMARK                            x       y       z     vdW  Elec       q    Type
REMARK                         _______ _______ _______ _____ _____    ______ ____
ROOT
ATOM      1  C   UNL     1     103.130 128.482  83.852  0.00  0.00    +0.000 C 
ATOM      2  C   UNL     1     101.711 128.168  83.458  0.00  0.00    +0.000 A 
ATOM      3  C   UNL     1     101.379 126.977  82.776  0.00  0.00    +0.000 A 
ATOM      4  C   UNL     1     100.042 126.734  82.427  0.00  0.00    +0.000 A 
ATOM      5  C   UNL     1      99.056 127.654  82.759  0.00  0.00    +0.000 A 
ATOM      6  C   UNL     1      99.369 128.827  83.432  0.00  0.00    +0.000 A 
ATOM      7  C   UNL     1     100.694 129.085  83.779  0.00  0.00    +0.000 A 
ATOM      8  F   UNL     1      97.784 127.409  82.419  0.00  0.00    +0.000 F 
ENDROOT
BRANCH   3   9
ATOM      9  C   UNL     1     102.411 126.004  82.391  0.00  0.00    +0.000 C 
ATOM     10  C   UNL     1     102.971 125.993  81.171  0.00  0.00    +0.000 C 
BRANCH  10  11
ATOM     11  C   UNL     1     103.988 125.019  80.753  0.00  0.00    +0.000 A 
ATOM     12  C   UNL     1     104.175 123.802  81.423  0.00  0.00    +0.000 A 
ATOM     13  C   UNL     1     105.174 122.914  81.015  0.00  0.00    +0.000 A 
ATOM     14  C   UNL     1     106.001 123.237  79.941  0.00  0.00    +0.000 A 
ATOM     15  C   UNL     1     105.833 124.451  79.277  0.00  0.00    +0.000 A 
ATOM     16  C   UNL     1     104.836 125.339  79.685  0.00  0.00    +0.000 A 
ENDBRANCH  10  11
ENDBRANCH   3   9
TORSDOF 2
ENDMDL
