REMARK  Name = *****
REMARK  3 active torsions:
REMARK  status: ('A' for Active; 'I' for Inactive)
REMARK    1  A    between atoms: C_5  and  C_6
REMARK    2  A    between atoms: C_6  and  C_7
REMARK    3  A    between atoms: C_7  and  C_8
REMARK                            x       y       z     vdW  Elec       q    Type
REMARK                         _______ _______ _______ _____ _____    ______ ____
ROOT
ATOM      1  C   UNL     1      -2.980  -1.367   0.683  0.00  0.00    +0.000 C 
ENDROOT
BRANCH   1   6
ATOM      2  C   UNL     1       1.946   0.124  -0.039  0.00  0.00    +0.000 C 
ATOM      3  C   UNL     1       1.220  -1.199   0.206  0.00  0.00    +0.000 C 
ATOM      4  C   UNL     1      -0.138  -1.241  -0.498  0.00  0.00    +0.000 C 
ATOM      5  C   UNL     1      -0.973  -0.039  -0.121  0.00  0.00    +0.000 C 
ATOM      6  C   UNL     1      -2.216  -0.100   0.396  0.00  0.00    +0.000 C 
ATOM      7  C   UNL     1      -0.282   1.284  -0.359  0.00  0.00    +0.000 C 
ATOM      8  C   UNL     1       1.076   1.322   0.343  0.00  0.00    +0.000 C 
ENDBRANCH   1   6
BRANCH   1   9
ATOM      9  C   UNL     1      -4.345  -1.089   1.324  0.00  0.00    +0.000 C 
BRANCH   9  10
ATOM     10  C   UNL     1      -5.095  -2.366   1.615  0.00  0.00    +0.000 A 
ATOM     11  C   UNL     1      -4.944  -3.012   2.849  0.00  0.00    +0.000 A 
ATOM     12  C   UNL     1      -5.621  -4.205   3.110  0.00  0.00    +0.000 A 
ATOM     13  C   UNL     1      -6.450  -4.763   2.140  0.00  0.00    +0.000 A 
ATOM     14  C   UNL     1      -6.602  -4.132   0.907  0.00  0.00    +0.000 A 
ATOM     15  C   UNL     1      -5.926  -2.940   0.644  0.00  0.00    +0.000 A 
ENDBRANCH   9  10
ENDBRANCH   1   9
TORSDOF 3
