REMARK  Name = *****
REMARK  4 active torsions:
REMARK  status: ('A' for Active; 'I' for Inactive)
REMARK    1  A    between atoms: C_1  and  C_2
REMARK    2  A    between atoms: C_5  and  C_8
REMARK    3  A    between atoms: C_9  and  C_11
REMARK    4  A    between atoms: C_14  and  C_17
REMARK                            x       y       z     vdW  Elec       q    Type
REMARK                         _______ _______ _______ _____ _____    ______ ____
ROOT
ATOM      1  C   UNL     1      -3.736   0.087  -0.983  0.00  0.00    +0.000 C 
ATOM      2  C   UNL     1      -4.724   1.217  -0.740  0.00  0.00    +0.000 C 
ATOM      3  O   UNL     1      -4.211   0.924  -2.050  0.00  0.00    +0.000 OA
ENDROOT
BRANCH   1   8
ATOM      4  C   UNL     1       1.824   0.649   0.726  0.00  0.00    +0.000 C 
ATOM      5  C   UNL     1       0.395   0.535   0.289  0.00  0.00    +0.000 A 
ATOM      6  C   UNL     1      -0.623   0.348   1.227  0.00  0.00    +0.000 A 
ATOM      7  C   UNL     1      -1.952   0.210   0.813  0.00  0.00    +0.000 A 
ATOM      8  C   UNL     1      -2.304   0.247  -0.546  0.00  0.00    +0.000 A 
ATOM      9  C   UNL     1      -1.266   0.415  -1.476  0.00  0.00    +0.000 A 
ATOM     10  C   UNL     1       0.065   0.553  -1.069  0.00  0.00    +0.000 A 
ENDBRANCH   1   8
BRANCH   2  11
ATOM     11  C   UNL     1      -6.168   0.893  -0.459  0.00  0.00    +0.000 A 
ATOM     12  C   UNL     1      -6.560   0.337   0.769  0.00  0.00    +0.000 A 
ATOM     13  C   UNL     1      -7.900   0.042   1.042  0.00  0.00    +0.000 A 
ATOM     14  C   UNL     1      -8.888   0.291   0.086  0.00  0.00    +0.000 A 
ATOM     15  C   UNL     1      -8.518   0.864  -1.133  0.00  0.00    +0.000 A 
ATOM     16  C   UNL     1      -7.176   1.155  -1.399  0.00  0.00    +0.000 A 
ATOM     17  C   UNL     1     -10.330   0.009   0.388  0.00  0.00    +0.000 C 
ENDBRANCH   2  11
TORSDOF 2
