MODEL 1
REMARK VINA RESULT:      -4.4      0.000      0.000
REMARK  Name = *****
REMARK  5 active torsions:
REMARK  status: ('A' for Active; 'I' for Inactive)
REMARK    1  A    between atoms: C_1  and  N_2
REMARK    2  A    between atoms: N_2  and  S_3
REMARK    3  A    between atoms: S_3  and  C_5
REMARK    4  A    between atoms: S_3  and  C_12
REMARK    5  A    between atoms: C_5  and  C_6
REMARK                            x       y       z     vdW  Elec       q    Type
REMARK                         _______ _______ _______ _____ _____    ______ ____
ROOT
ATOM      1  S   UNL     1     100.097 126.853  83.566  0.00  0.00    +0.000 S 
ATOM      2  O   UNL     1      99.500 126.750  82.248  0.00  0.00    +0.000 OA
ENDROOT
BRANCH   1   3
ATOM      3  C   UNL     1     100.290 128.602  83.895  0.00  0.00    +0.000 A 
ATOM      4  C   UNL     1     101.460 129.068  84.500  0.00  0.00    +0.000 A 
ATOM      5  C   UNL     1     101.602 130.434  84.753  0.00  0.00    +0.000 A 
ATOM      6  C   UNL     1     100.584 131.321  84.398  0.00  0.00    +0.000 A 
ATOM      7  C   UNL     1      99.422 130.850  83.786  0.00  0.00    +0.000 A 
ATOM      8  C   UNL     1      99.272 129.487  83.529  0.00  0.00    +0.000 A 
ENDBRANCH   1   3
BRANCH   1  10
ATOM      9  C   UNL     1     100.355 125.629  85.811  0.00  0.00    +0.000 C 
ATOM     10  N   UNL     1      99.463 126.250  84.841  0.00  0.00    +0.000 NA
ENDBRANCH   1  10
BRANCH   1  11
ATOM     11  C   UNL     1     101.792 126.297  83.450  0.00  0.00    +0.000 C 
BRANCH  11  12
ATOM     12  C   UNL     1     102.325 126.207  82.010  0.00  0.00    +0.000 C 
ATOM     13  C   UNL     1     103.308 125.027  81.908  0.00  0.00    +0.000 C 
ATOM     14  C   UNL     1     103.912 124.900  80.512  0.00  0.00    +0.000 C 
ATOM     15  C   UNL     1     104.584 126.196  80.076  0.00  0.00    +0.000 C 
ATOM     16  C   UNL     1     103.621 127.375  80.161  0.00  0.00    +0.000 C 
ATOM     17  C   UNL     1     103.006 127.509  81.552  0.00  0.00    +0.000 C 
ENDBRANCH  11  12
ENDBRANCH   1  11
TORSDOF 4
ENDMDL
