MODEL 1
REMARK VINA RESULT:      -4.4      0.000      0.000
REMARK  Name = *****
REMARK  6 active torsions:
REMARK  status: ('A' for Active; 'I' for Inactive)
REMARK    1  A    between atoms: C_1  and  C_2
REMARK    2  A    between atoms: C_2  and  C_3
REMARK    3  A    between atoms: C_2  and  N_9
REMARK    4  A    between atoms: N_9  and  C_10
REMARK    5  A    between atoms: N_9  and  N_17
REMARK    6  A    between atoms: C_10  and  C_11
REMARK                            x       y       z     vdW  Elec       q    Type
REMARK                         _______ _______ _______ _____ _____    ______ ____
ROOT
ATOM      1  N   UNL     1      88.958  72.387  83.980  0.00  0.00    +0.000 NA
ENDROOT
BRANCH   1   3
ATOM      2  C   UNL     1      91.418  71.849  83.562  0.00  0.00    +0.000 C 
ATOM      3  C   UNL     1      89.973  71.331  83.720  0.00  0.00    +0.000 C 
BRANCH   3   4
ATOM      4  C   UNL     1      89.867  70.181  84.728  0.00  0.00    +0.000 A 
ATOM      5  C   UNL     1      89.744  70.397  86.110  0.00  0.00    +0.000 A 
ATOM      6  C   UNL     1      89.643  69.322  86.996  0.00  0.00    +0.000 A 
ATOM      7  C   UNL     1      89.659  68.015  86.514  0.00  0.00    +0.000 A 
ATOM      8  C   UNL     1      89.765  67.781  85.145  0.00  0.00    +0.000 A 
ATOM      9  C   UNL     1      89.863  68.855  84.257  0.00  0.00    +0.000 A 
ENDBRANCH   3   4
ENDBRANCH   1   3
BRANCH   1  10
ATOM     10  N   UNL     1      89.401  73.615  83.789  0.00  0.00    +0.000 NA
ATOM     11  O   UNL     1      88.901  74.120  82.777  0.00  0.00    +0.000 OA
ENDBRANCH   1  10
BRANCH   1  12
ATOM     12  C   UNL     1      87.662  72.104  83.325  0.00  0.00    +0.000 C 
BRANCH  12  13
ATOM     13  C   UNL     1      86.479  72.163  84.273  0.00  0.00    +0.000 A 
ATOM     14  C   UNL     1      86.602  71.684  85.587  0.00  0.00    +0.000 A 
ATOM     15  C   UNL     1      85.521  71.744  86.467  0.00  0.00    +0.000 A 
ATOM     16  C   UNL     1      84.307  72.282  86.043  0.00  0.00    +0.000 A 
ATOM     17  C   UNL     1      84.174  72.763  84.742  0.00  0.00    +0.000 A 
ATOM     18  C   UNL     1      85.254  72.707  83.859  0.00  0.00    +0.000 A 
ENDBRANCH  12  13
ENDBRANCH   1  12
TORSDOF 5
ENDMDL
