MODEL 1
REMARK VINA RESULT:      -4.4      0.000      0.000
REMARK  Name = *****
REMARK  2 active torsions:
REMARK  status: ('A' for Active; 'I' for Inactive)
REMARK    1  A    between atoms: C_4  and  O_7
REMARK    2  A    between atoms: O_7  and  C_8
REMARK                            x       y       z     vdW  Elec       q    Type
REMARK                         _______ _______ _______ _____ _____    ______ ____
ROOT
ATOM      1  C   UNL     1     102.909 126.407  82.235  0.00  0.00    +0.000 A 
ATOM      2  N   UNL     1     101.690 125.985  81.994  0.00  0.00    +0.000 NA
ATOM      3  C   UNL     1     100.774 126.901  82.483  0.00  0.00    +0.000 A 
ATOM      4  C   UNL     1      99.371 126.786  82.408  0.00  0.00    +0.000 A 
ATOM      5  C   UNL     1      98.561 127.791  82.947  0.00  0.00    +0.000 A 
ATOM      6  C   UNL     1      99.131 128.904  83.558  0.00  0.00    +0.000 A 
ATOM      7  C   UNL     1     100.520 129.042  83.644  0.00  0.00    +0.000 A 
ATOM      8  C   UNL     1     101.324 128.027  83.099  0.00  0.00    +0.000 A 
ATOM      9  S   UNL     1     103.039 127.906  83.047  0.00  0.00    +0.000 S 
ENDROOT
BRANCH   1  10
ATOM     10  O   UNL     1     104.008 125.733  81.885  0.00  0.00    +0.000 OA
BRANCH  10  14
ATOM     11  C   UNL     1     105.297 121.694  81.917  0.00  0.00    +0.000 C 
ATOM     12  C   UNL     1     104.507 122.192  83.123  0.00  0.00    +0.000 C 
ATOM     13  C   UNL     1     104.454 123.716  83.171  0.00  0.00    +0.000 C 
ATOM     14  C   UNL     1     103.898 124.306  81.869  0.00  0.00    +0.000 C 
ATOM     15  C   UNL     1     104.712 123.807  80.669  0.00  0.00    +0.000 C 
ATOM     16  C   UNL     1     104.765 122.284  80.613  0.00  0.00    +0.000 C 
ENDBRANCH  10  14
ENDBRANCH   1  10
TORSDOF 2
ENDMDL
