MODEL 1
REMARK VINA RESULT:      -4.8      0.000      0.000
REMARK  Name = *****
REMARK  4 active torsions:
REMARK  status: ('A' for Active; 'I' for Inactive)
REMARK    1  A    between atoms: C_1  and  O_2
REMARK    2  A    between atoms: O_2  and  C_3
REMARK    3  A    between atoms: C_4  and  C_10
REMARK    4  A    between atoms: C_11  and  C_12
REMARK                            x       y       z     vdW  Elec       q    Type
REMARK                         _______ _______ _______ _____ _____    ______ ____
ROOT
ATOM      1  C   UNL     1     104.365 123.485  81.964  0.00  0.00    +0.000 A 
ATOM      2  C   UNL     1     103.970 124.636  81.266  0.00  0.00    +0.000 A 
ATOM      3  C   UNL     1     104.562 124.929  80.031  0.00  0.00    +0.000 A 
ATOM      4  C   UNL     1     105.546 124.091  79.510  0.00  0.00    +0.000 A 
ATOM      5  C   UNL     1     105.957 122.960  80.212  0.00  0.00    +0.000 A 
ATOM      6  C   UNL     1     105.372 122.663  81.444  0.00  0.00    +0.000 A 
ATOM      7 CL   UNL     1     106.271 124.463  77.995  0.00  0.00    +0.000 Cl
ENDROOT
BRANCH   1   9
ATOM      8  C   UNL     1     104.508 121.938  83.714  0.00  0.00    +0.000 C 
ATOM      9  O   UNL     1     103.895 123.119  83.198  0.00  0.00    +0.000 OA
ENDBRANCH   1   9
BRANCH   2  10
ATOM     10  C   UNL     1     102.994 125.553  81.778  0.00  0.00    +0.000 C 
ATOM     11  C   UNL     1     102.193 126.329  82.222  0.00  0.00    +0.000 C 
BRANCH  11  12
ATOM     12  C   UNL     1     101.256 127.273  82.746  0.00  0.00    +0.000 A 
ATOM     13  C   UNL     1      99.884 127.075  82.564  0.00  0.00    +0.000 A 
ATOM     14  C   UNL     1      98.972 127.996  83.082  0.00  0.00    +0.000 A 
ATOM     15  C   UNL     1      99.439 129.107  83.778  0.00  0.00    +0.000 A 
ATOM     16  C   UNL     1     100.801 129.314  83.964  0.00  0.00    +0.000 A 
ATOM     17  C   UNL     1     101.714 128.394  83.448  0.00  0.00    +0.000 A 
ATOM     18  F   UNL     1      98.563 129.991  84.274  0.00  0.00    +0.000 F 
ENDBRANCH  11  12
ENDBRANCH   2  10
TORSDOF 3
ENDMDL
