MODEL 1
REMARK VINA RESULT:      -4.3      0.000      0.000
REMARK  Name = *****
REMARK  4 active torsions:
REMARK  status: ('A' for Active; 'I' for Inactive)
REMARK    1  A    between atoms: C_4  and  C_7
REMARK    2  A    between atoms: C_7  and  C_8
REMARK    3  A    between atoms: C_7  and  S_10
REMARK    4  A    between atoms: S_10  and  C_11
REMARK                            x       y       z     vdW  Elec       q    Type
REMARK                         _______ _______ _______ _____ _____    ______ ____
ROOT
ATOM      1  C   UNL     1     103.116 125.231  82.508  0.00  0.00    +0.000 C 
ENDROOT
BRANCH   1   5
ATOM      2  C   UNL     1     106.161 123.769  79.635  0.00  0.00    +0.000 C 
ATOM      3  C   UNL     1     105.204 122.756  80.254  0.00  0.00    +0.000 C 
ATOM      4  C   UNL     1     104.557 123.298  81.528  0.00  0.00    +0.000 C 
ATOM      5  C   UNL     1     103.841 124.639  81.272  0.00  0.00    +0.000 C 
ATOM      6  C   UNL     1     104.820 125.655  80.648  0.00  0.00    +0.000 C 
ATOM      7  C   UNL     1     105.472 125.105  79.380  0.00  0.00    +0.000 C 
ENDBRANCH   1   5
BRANCH   1   8
ATOM      8  C   UNL     1     103.680 124.613  83.772  0.00  0.00    +0.000 C 
ATOM      9  O   UNL     1     103.001 124.402  84.775  0.00  0.00    +0.000 OA
ENDBRANCH   1   8
BRANCH   1  10
ATOM     10  S   UNL     1     103.209 127.066  82.629  0.00  0.00    +0.000 S 
BRANCH  10  11
ATOM     11  C   UNL     1     101.493 127.518  82.833  0.00  0.00    +0.000 A 
ATOM     12  C   UNL     1     101.091 128.700  83.462  0.00  0.00    +0.000 A 
ATOM     13  C   UNL     1      99.735 129.002  83.597  0.00  0.00    +0.000 A 
ATOM     14  C   UNL     1      98.769 128.118  83.118  0.00  0.00    +0.000 A 
ATOM     15  C   UNL     1      99.160 126.929  82.509  0.00  0.00    +0.000 A 
ATOM     16  C   UNL     1     100.517 126.628  82.371  0.00  0.00    +0.000 A 
ENDBRANCH  10  11
ENDBRANCH   1  10
TORSDOF 4
ENDMDL
