REMARK  Name = *****
REMARK  5 active torsions:
REMARK  status: ('A' for Active; 'I' for Inactive)
REMARK    1  A    between atoms: C_1  and  O_2
REMARK    2  A    between atoms: O_2  and  C_3
REMARK    3  A    between atoms: C_3  and  C_5
REMARK    4  A    between atoms: C_6  and  C_10
REMARK    5  A    between atoms: C_11  and  C_12
REMARK                            x       y       z     vdW  Elec       q    Type
REMARK                         _______ _______ _______ _____ _____    ______ ____
ROOT
ATOM      1  C   UNL     1       6.522   0.405  -0.872  0.00  0.00    +0.000 A 
ATOM      2  C   UNL     1       5.199  -0.011  -0.747  0.00  0.00    +0.000 A 
ATOM      3  C   UNL     1       4.401   0.953  -0.045  0.00  0.00    +0.000 A 
ATOM      4  C   UNL     1       5.122   2.053   0.351  0.00  0.00    +0.000 A 
ATOM      5  S   UNL     1       6.756   1.937  -0.107  0.00  0.00    +0.000 S 
ENDROOT
BRANCH   1   6
ATOM      6  C   UNL     1       7.691  -0.185  -1.514  0.00  0.00    +0.000 C 
ATOM      7  O   UNL     1       8.855   0.174  -1.366  0.00  0.00    +0.000 OA
BRANCH   6   9
ATOM      8  C   UNL     1       8.416  -1.815  -3.040  0.00  0.00    +0.000 C 
ATOM      9  O   UNL     1       7.327  -1.203  -2.349  0.00  0.00    +0.000 OA
ENDBRANCH   6   9
ENDBRANCH   1   6
BRANCH   2  10
ATOM     10  C   UNL     1       4.683  -1.266  -1.223  0.00  0.00    +0.000 C 
ATOM     11  C   UNL     1       3.428  -1.470  -1.661  0.00  0.00    +0.000 C 
BRANCH  11  12
ATOM     12  C   UNL     1       2.931  -2.763  -2.149  0.00  0.00    +0.000 A 
ATOM     13  C   UNL     1       3.251  -3.973  -1.516  0.00  0.00    +0.000 A 
ATOM     14  C   UNL     1       2.734  -5.182  -1.992  0.00  0.00    +0.000 A 
ATOM     15  C   UNL     1       1.885  -5.186  -3.096  0.00  0.00    +0.000 A 
ATOM     16  C   UNL     1       1.545  -3.991  -3.725  0.00  0.00    +0.000 A 
ATOM     17  C   UNL     1       2.062  -2.783  -3.248  0.00  0.00    +0.000 A 
ATOM     18 CL   UNL     1       1.249  -6.673  -3.681  0.00  0.00    +0.000 Cl
ENDBRANCH  11  12
ENDBRANCH   2  10
TORSDOF 4
