MODEL 1
REMARK VINA RESULT:      -4.7      0.000      0.000
REMARK  Name = *****
REMARK  3 active torsions:
REMARK  status: ('A' for Active; 'I' for Inactive)
REMARK    1  A    between atoms: C_3  and  C_16
REMARK    2  A    between atoms: C_6  and  C_7
REMARK    3  A    between atoms: N_8  and  C_9
REMARK                            x       y       z     vdW  Elec       q    Type
REMARK                         _______ _______ _______ _____ _____    ______ ____
ROOT
ATOM      1  C   UNL     1      86.869  62.728  88.480  0.00  0.00    +0.000 A 
ATOM      2  C   UNL     1      86.329  61.529  88.955  0.00  0.00    +0.000 A 
ATOM      3  C   UNL     1      85.753  61.460  90.234  0.00  0.00    +0.000 A 
ATOM      4  C   UNL     1      85.740  62.612  91.037  0.00  0.00    +0.000 A 
ATOM      5  C   UNL     1      86.277  63.811  90.565  0.00  0.00    +0.000 A 
ATOM      6  C   UNL     1      86.839  63.868  89.287  0.00  0.00    +0.000 A 
ENDROOT
BRANCH   3   7
ATOM      7  C   UNL     1      85.193  60.156  90.750  0.00  0.00    +0.000 C 
ATOM      8  F   UNL     1      83.954  59.878  90.257  0.00  0.00    +0.000 F 
ATOM      9  F   UNL     1      85.974  59.091  90.416  0.00  0.00    +0.000 F 
ATOM     10  F   UNL     1      85.070  60.122  92.106  0.00  0.00    +0.000 F 
ENDBRANCH   3   7
BRANCH   6  11
ATOM     11  C   UNL     1      87.414  65.125  88.768  0.00  0.00    +0.000 C 
ATOM     12  N   UNL     1      87.839  65.231  87.548  0.00  0.00    +0.000 NA
BRANCH  12  13
ATOM     13  C   UNL     1      88.361  66.479  87.187  0.00  0.00    +0.000 A 
ATOM     14  C   UNL     1      87.713  67.657  87.576  0.00  0.00    +0.000 A 
ATOM     15  C   UNL     1      88.244  68.900  87.230  0.00  0.00    +0.000 A 
ATOM     16  C   UNL     1      89.428  68.958  86.503  0.00  0.00    +0.000 A 
ATOM     17  C   UNL     1      90.092  67.799  86.122  0.00  0.00    +0.000 A 
ATOM     18  C   UNL     1      89.558  66.556  86.471  0.00  0.00    +0.000 A 
ATOM     19  F   UNL     1      89.939  70.152  86.170  0.00  0.00    +0.000 F 
ENDBRANCH  12  13
ENDBRANCH   6  11
TORSDOF 3
ENDMDL
