MODEL 1
REMARK VINA RESULT:      -4.6      0.000      0.000
REMARK  Name = *****
REMARK  4 active torsions:
REMARK  status: ('A' for Active; 'I' for Inactive)
REMARK    1  A    between atoms: C_1  and  C_2
REMARK    2  A    between atoms: C_4  and  O_8
REMARK    3  A    between atoms: O_8  and  C_9
REMARK    4  A    between atoms: C_9  and  C_11
REMARK                            x       y       z     vdW  Elec       q    Type
REMARK                         _______ _______ _______ _____ _____    ______ ____
ROOT
ATOM      1  C   UNL     1     101.785 126.042  82.725  0.00  0.00    +0.000 C 
ATOM      2  O   UNL     1     102.224 125.312  83.596  0.00  0.00    +0.000 OA
ENDROOT
BRANCH   1   3
ATOM      3  C   UNL     1     100.897 127.175  82.991  0.00  0.00    +0.000 A 
ATOM      4  C   UNL     1     101.400 128.311  83.616  0.00  0.00    +0.000 A 
ATOM      5  C   UNL     1     100.575 129.409  83.860  0.00  0.00    +0.000 A 
ATOM      6  C   UNL     1      99.235 129.374  83.472  0.00  0.00    +0.000 A 
ATOM      7  C   UNL     1      98.727 128.239  82.839  0.00  0.00    +0.000 A 
ATOM      8  C   UNL     1      99.562 127.146  82.599  0.00  0.00    +0.000 A 
ATOM      9  F   UNL     1      99.052 126.080  81.968  0.00  0.00    +0.000 F 
ATOM     10  F   UNL     1     102.676 128.366  84.022  0.00  0.00    +0.000 F 
ENDBRANCH   1   3
BRANCH   1  11
ATOM     11  O   UNL     1     101.961 125.959  81.358  0.00  0.00    +0.000 OA
BRANCH  11  15
ATOM     12  C   UNL     1     106.017 123.912  79.403  0.00  0.00    +0.000 C 
ATOM     13  C   UNL     1     105.280 125.088  79.970  0.00  0.00    +0.000 A 
ATOM     14  C   UNL     1     103.964 124.949  80.427  0.00  0.00    +0.000 A 
ATOM     15  C   UNL     1     103.291 126.058  80.939  0.00  0.00    +0.000 A 
ATOM     16  C   UNL     1     103.884 127.318  80.960  0.00  0.00    +0.000 A 
ATOM     17  C   UNL     1     105.187 127.463  80.491  0.00  0.00    +0.000 A 
ATOM     18  C   UNL     1     105.881 126.355  79.996  0.00  0.00    +0.000 A 
ENDBRANCH  11  15
ENDBRANCH   1  11
TORSDOF 3
ENDMDL
