MODEL 1
REMARK VINA RESULT:      -4.6      0.000      0.000
REMARK  Name = *****
REMARK  3 active torsions:
REMARK  status: ('A' for Active; 'I' for Inactive)
REMARK    1  A    between atoms: C_1  and  C_2
REMARK    2  A    between atoms: C_5  and  C_8
REMARK    3  A    between atoms: N_10  and  C_11
REMARK                            x       y       z     vdW  Elec       q    Type
REMARK                         _______ _______ _______ _____ _____    ______ ____
ROOT
ATOM      1  C   UNL     1     101.967 127.939  83.075  0.00  0.00    +0.000 C 
ATOM      2  O   UNL     1     102.712 128.858  83.415  0.00  0.00    +0.000 OA
ATOM      3  N   UNL     1     100.570 127.876  83.252  0.00  0.00    +0.000 N 
ATOM      4 CL   UNL     1      99.683 126.739  82.313  0.00  0.00    +0.000 Cl
ENDROOT
BRANCH   1   9
ATOM      5  C   UNL     1     104.719 123.614  80.400  0.00  0.00    +0.000 C 
ATOM      6  C   UNL     1     103.976 124.720  81.091  0.00  0.00    +0.000 A 
ATOM      7  C   UNL     1     103.629 124.602  82.444  0.00  0.00    +0.000 A 
ATOM      8  C   UNL     1     102.968 125.642  83.099  0.00  0.00    +0.000 A 
ATOM      9  C   UNL     1     102.644 126.807  82.395  0.00  0.00    +0.000 A 
ATOM     10  C   UNL     1     103.022 126.952  81.057  0.00  0.00    +0.000 A 
ATOM     11  C   UNL     1     103.684 125.909  80.408  0.00  0.00    +0.000 A 
ENDBRANCH   1   9
BRANCH   3  12
ATOM     12  C   UNL     1      99.835 128.806  84.075  0.00  0.00    +0.000 A 
ATOM     13  C   UNL     1      99.801 130.182  83.796  0.00  0.00    +0.000 A 
ATOM     14  C   UNL     1      99.094 131.081  84.606  0.00  0.00    +0.000 A 
ATOM     15  C   UNL     1      98.407 130.625  85.725  0.00  0.00    +0.000 A 
ATOM     16  C   UNL     1      98.432 129.273  86.035  0.00  0.00    +0.000 A 
ATOM     17  C   UNL     1      99.139 128.377  85.222  0.00  0.00    +0.000 A 
ENDBRANCH   3  12
TORSDOF 2
ENDMDL
