MODEL 1
REMARK VINA RESULT:      -4.3      0.000      0.000
REMARK  Name = *****
REMARK  5 active torsions:
REMARK  status: ('A' for Active; 'I' for Inactive)
REMARK    1  A    between atoms: C_1  and  C_2
REMARK    2  A    between atoms: C_7  and  C_8
REMARK    3  A    between atoms: C_8  and  C_9
REMARK    4  A    between atoms: C_9  and  C_11
REMARK    5  A    between atoms: C_16  and  C_17
REMARK                            x       y       z     vdW  Elec       q    Type
REMARK                         _______ _______ _______ _____ _____    ______ ____
ROOT
ATOM      1  C   UNL     1      88.210  70.697  85.172  0.00  0.00    +0.000 C 
ATOM      2  O   UNL     1      89.180  71.427  84.972  0.00  0.00    +0.000 OA
ENDROOT
BRANCH   1   3
ATOM      3  C   UNL     1      87.167  71.112  86.149  0.00  0.00    +0.000 A 
ATOM      4  C   UNL     1      85.987  71.702  85.674  0.00  0.00    +0.000 A 
ATOM      5  C   UNL     1      84.992  72.103  86.567  0.00  0.00    +0.000 A 
ATOM      6  C   UNL     1      85.175  71.925  87.935  0.00  0.00    +0.000 A 
ATOM      7  C   UNL     1      86.351  71.348  88.415  0.00  0.00    +0.000 A 
ATOM      8  C   UNL     1      87.360  70.929  87.534  0.00  0.00    +0.000 A 
ATOM      9  C   UNL     1      88.616  70.324  88.097  0.00  0.00    +0.000 C 
ENDBRANCH   1   3
BRANCH   1  10
ATOM     10  C   UNL     1      88.046  69.354  84.480  0.00  0.00    +0.000 C 
BRANCH  10  17
ATOM     11  C   UNL     1      85.957  67.691  85.900  0.00  0.00    +0.000 C 
ATOM     12  C   UNL     1      87.428  67.386  86.004  0.00  0.00    +0.000 A 
ATOM     13  C   UNL     1      87.832  66.293  86.790  0.00  0.00    +0.000 A 
ATOM     14  C   UNL     1      89.180  65.974  86.937  0.00  0.00    +0.000 A 
ATOM     15  C   UNL     1      90.145  66.746  86.304  0.00  0.00    +0.000 A 
ATOM     16  C   UNL     1      89.762  67.830  85.517  0.00  0.00    +0.000 A 
ATOM     17  C   UNL     1      88.405  68.157  85.337  0.00  0.00    +0.000 A 
ENDBRANCH  10  17
ENDBRANCH   1  10
TORSDOF 3
ENDMDL
