MODEL 1
REMARK VINA RESULT:      -3.7      0.000      0.000
REMARK  Name = *****
REMARK  3 active torsions:
REMARK  status: ('A' for Active; 'I' for Inactive)
REMARK    1  A    between atoms: C_6  and  S_7
REMARK    2  A    between atoms: S_7  and  S_8
REMARK    3  A    between atoms: S_8  and  C_9
REMARK                            x       y       z     vdW  Elec       q    Type
REMARK                         _______ _______ _______ _____ _____    ______ ____
ROOT
ATOM      1  C   UNL     1      86.635  71.295  86.530  0.00  0.00    +0.000 A 
ATOM      2  C   UNL     1      85.518  71.909  85.959  0.00  0.00    +0.000 A 
ATOM      3  C   UNL     1      84.503  72.398  86.780  0.00  0.00    +0.000 A 
ATOM      4  C   UNL     1      84.598  72.280  88.166  0.00  0.00    +0.000 A 
ATOM      5  C   UNL     1      85.716  71.666  88.736  0.00  0.00    +0.000 A 
ATOM      6  C   UNL     1      86.737  71.165  87.920  0.00  0.00    +0.000 A 
ATOM      7 CL   UNL     1      83.127  73.153  86.079  0.00  0.00    +0.000 Cl
ENDROOT
BRANCH   6   8
ATOM      8  S   UNL     1      88.169  70.382  88.638  0.00  0.00    +0.000 S 
BRANCH   8   9
ATOM      9  S   UNL     1      89.379  70.147  86.989  0.00  0.00    +0.000 S 
BRANCH   9  10
ATOM     10  C   UNL     1      89.324  68.406  86.756  0.00  0.00    +0.000 A 
ATOM     11  N   UNL     1      90.359  67.683  86.381  0.00  0.00    +0.000 NA
ATOM     12  C   UNL     1      89.997  66.354  86.299  0.00  0.00    +0.000 A 
ATOM     13  C   UNL     1      88.686  66.072  86.612  0.00  0.00    +0.000 A 
ATOM     14  S   UNL     1      87.872  67.522  87.029  0.00  0.00    +0.000 S 
ENDBRANCH   9  10
ENDBRANCH   8   9
ENDBRANCH   6   8
TORSDOF 3
ENDMDL
