MODEL 1
REMARK VINA RESULT:      -3.3      0.000      0.000
REMARK  Name = *****
REMARK  4 active torsions:
REMARK  status: ('A' for Active; 'I' for Inactive)
REMARK    1  A    between atoms: C_4  and  C_7
REMARK    2  A    between atoms: C_7  and  C_8
REMARK    3  A    between atoms: C_8  and  C_9
REMARK    4  A    between atoms: C_9  and  C_10
REMARK                            x       y       z     vdW  Elec       q    Type
REMARK                         _______ _______ _______ _____ _____    ______ ____
ROOT
ATOM      1  C   UNL     1      86.197  64.361  92.130  0.00  0.00    +0.000 C 
ENDROOT
BRANCH   1   5
ATOM      2  C   UNL     1      88.384  64.830  88.445  0.00  0.00    +0.000 A 
ATOM      3  C   UNL     1      88.851  63.957  89.426  0.00  0.00    +0.000 A 
ATOM      4  C   UNL     1      88.141  63.801  90.618  0.00  0.00    +0.000 A 
ATOM      5  C   UNL     1      86.954  64.514  90.836  0.00  0.00    +0.000 A 
ATOM      6  C   UNL     1      86.498  65.394  89.846  0.00  0.00    +0.000 A 
ATOM      7  C   UNL     1      87.209  65.549  88.654  0.00  0.00    +0.000 A 
ENDBRANCH   1   5
BRANCH   1   8
ATOM      8  C   UNL     1      84.859  63.647  91.922  0.00  0.00    +0.000 C 
BRANCH   8   9
ATOM      9  C   UNL     1      85.053  62.130  91.819  0.00  0.00    +0.000 C 
BRANCH   9  10
ATOM     10  C   UNL     1      84.627  61.571  90.455  0.00  0.00    +0.000 C 
ATOM     11  C   UNL     1      85.822  61.206  89.608  0.00  0.00    +0.000 C 
ATOM     12  C   UNL     1      85.803  61.902  88.461  0.00  0.00    +0.000 C 
ATOM     13  C   UNL     1      84.641  62.752  88.438  0.00  0.00    +0.000 C 
ATOM     14  C   UNL     1      83.942  62.584  89.569  0.00  0.00    +0.000 C 
ENDBRANCH   9  10
ENDBRANCH   8   9
ENDBRANCH   1   8
TORSDOF 4
ENDMDL
