MODEL 1
REMARK VINA RESULT:      -4.5      0.000      0.000
REMARK  Name = *****
REMARK  3 active torsions:
REMARK  status: ('A' for Active; 'I' for Inactive)
REMARK    1  A    between atoms: C_4  and  C_7
REMARK    2  A    between atoms: C_7  and  C_9
REMARK    3  A    between atoms: C_10  and  C_11
REMARK                            x       y       z     vdW  Elec       q    Type
REMARK                         _______ _______ _______ _____ _____    ______ ____
ROOT
ATOM      1  C   UNL     1     101.069 126.463  83.334  0.00  0.00    +0.000 C 
ATOM      2  O   UNL     1     100.909 126.007  84.466  0.00  0.00    +0.000 OA
ENDROOT
BRANCH   1   6
ATOM      3  C   UNL     1     104.150 128.168  80.784  0.00  0.00    +0.000 C 
ATOM      4  C   UNL     1     104.051 128.652  82.228  0.00  0.00    +0.000 C 
ATOM      5  C   UNL     1     102.714 128.274  82.860  0.00  0.00    +0.000 C 
ATOM      6  C   UNL     1     102.446 126.768  82.752  0.00  0.00    +0.000 C 
ATOM      7  C   UNL     1     102.535 126.298  81.296  0.00  0.00    +0.000 C 
ATOM      8  C   UNL     1     103.878 126.671  80.672  0.00  0.00    +0.000 C 
ENDBRANCH   1   6
BRANCH   1   9
ATOM      9  C   UNL     1      99.883 126.577  82.446  0.00  0.00    +0.000 C 
ATOM     10  C   UNL     1      98.936 127.523  82.536  0.00  0.00    +0.000 C 
BRANCH  10  11
ATOM     11  C   UNL     1      98.863 128.583  83.546  0.00  0.00    +0.000 A 
ATOM     12  C   UNL     1      98.266 128.317  84.783  0.00  0.00    +0.000 A 
ATOM     13  C   UNL     1      98.199 129.312  85.760  0.00  0.00    +0.000 A 
ATOM     14  C   UNL     1      98.738 130.574  85.511  0.00  0.00    +0.000 A 
ATOM     15  C   UNL     1      99.349 130.840  84.288  0.00  0.00    +0.000 A 
ATOM     16  C   UNL     1      99.416 129.847  83.309  0.00  0.00    +0.000 A 
ENDBRANCH  10  11
ENDBRANCH   1   9
TORSDOF 3
ENDMDL
