MODEL 1
REMARK VINA RESULT:      -4.7      0.000      0.000
REMARK  Name = *****
REMARK  4 active torsions:
REMARK  status: ('A' for Active; 'I' for Inactive)
REMARK    1  A    between atoms: C_1  and  C_2
REMARK    2  A    between atoms: C_2  and  C_12
REMARK    3  A    between atoms: C_4  and  C_5
REMARK    4  A    between atoms: C_8  and  O_11
REMARK                            x       y       z     vdW  Elec       q    Type
REMARK                         _______ _______ _______ _____ _____    ______ ____
ROOT
ATOM      1  C   UNL     1      88.897  70.988  85.530  0.00  0.00    +0.000 C 
ATOM      2  C   UNL     1      87.977  70.415  86.586  0.00  0.00    +0.000 C 
ATOM      3  C   UNL     1      88.638  69.832  87.818  0.00  0.00    +0.000 C 
ATOM      4  C   UNL     1      87.947  68.902  86.854  0.00  0.00    +0.000 C 
ENDROOT
BRANCH   4   5
ATOM      5  C   UNL     1      88.730  67.933  85.998  0.00  0.00    +0.000 A 
ATOM      6  C   UNL     1      89.978  67.427  86.400  0.00  0.00    +0.000 A 
ATOM      7  C   UNL     1      90.689  66.518  85.610  0.00  0.00    +0.000 A 
ATOM      8  C   UNL     1      90.146  66.093  84.405  0.00  0.00    +0.000 A 
ATOM      9  C   UNL     1      88.909  66.559  83.983  0.00  0.00    +0.000 A 
ATOM     10  C   UNL     1      88.207  67.469  84.778  0.00  0.00    +0.000 A 
BRANCH   8  11
ATOM     11  O   UNL     1      90.800  65.207  83.601  0.00  0.00    +0.000 OA
ATOM     12  H   UNL     1      91.436  64.624  83.967  0.00  0.00    +0.000 HD
ENDBRANCH   8  11
ENDBRANCH   4   5
BRANCH   2  13
ATOM     13  C   UNL     1      86.666  71.177  86.747  0.00  0.00    +0.000 A 
ATOM     14  C   UNL     1      86.137  71.454  88.019  0.00  0.00    +0.000 A 
ATOM     15  C   UNL     1      84.929  72.140  88.175  0.00  0.00    +0.000 A 
ATOM     16  C   UNL     1      84.218  72.559  87.054  0.00  0.00    +0.000 A 
ATOM     17  C   UNL     1      84.715  72.291  85.781  0.00  0.00    +0.000 A 
ATOM     18  C   UNL     1      85.923  71.606  85.633  0.00  0.00    +0.000 A 
ENDBRANCH   2  13
TORSDOF 3
ENDMDL
