MODEL 1
REMARK VINA RESULT:      -4.6      0.000      0.000
REMARK  Name = *****
REMARK  4 active torsions:
REMARK  status: ('A' for Active; 'I' for Inactive)
REMARK    1  A    between atoms: C_1  and  C_2
REMARK    2  A    between atoms: C_5  and  S_8
REMARK    3  A    between atoms: S_8  and  S_11
REMARK    4  A    between atoms: S_11  and  C_12
REMARK                            x       y       z     vdW  Elec       q    Type
REMARK                         _______ _______ _______ _____ _____    ______ ____
ROOT
ATOM      1  S   UNL     1      88.008  70.750  85.227  0.00  0.00    +0.000 S 
ATOM      2  O   UNL     1      87.615  69.536  84.539  0.00  0.00    +0.000 OA
ATOM      3  O   UNL     1      88.605  71.862  84.511  0.00  0.00    +0.000 OA
ENDROOT
BRANCH   1   8
ATOM      4  C   UNL     1      83.155  72.897  88.178  0.00  0.00    +0.000 C 
ATOM      5  C   UNL     1      84.365  72.389  87.449  0.00  0.00    +0.000 A 
ATOM      6  C   UNL     1      84.418  72.436  86.049  0.00  0.00    +0.000 A 
ATOM      7  C   UNL     1      85.528  71.937  85.367  0.00  0.00    +0.000 A 
ATOM      8  C   UNL     1      86.582  71.369  86.088  0.00  0.00    +0.000 A 
ATOM      9  C   UNL     1      86.543  71.315  87.484  0.00  0.00    +0.000 A 
ATOM     10  C   UNL     1      85.428  71.817  88.160  0.00  0.00    +0.000 A 
ENDBRANCH   1   8
BRANCH   1  11
ATOM     11  S   UNL     1      89.295  70.221  86.793  0.00  0.00    +0.000 S 
BRANCH  11  12
ATOM     12  C   UNL     1      89.092  68.453  86.835  0.00  0.00    +0.000 A 
ATOM     13  C   UNL     1      90.054  67.603  86.275  0.00  0.00    +0.000 A 
ATOM     14  C   UNL     1      89.888  66.217  86.334  0.00  0.00    +0.000 A 
ATOM     15  C   UNL     1      88.765  65.687  86.958  0.00  0.00    +0.000 A 
ATOM     16  C   UNL     1      87.807  66.516  87.528  0.00  0.00    +0.000 A 
ATOM     17  C   UNL     1      87.971  67.901  87.470  0.00  0.00    +0.000 A 
ATOM     18  F   UNL     1      88.609  64.358  87.016  0.00  0.00    +0.000 F 
ENDBRANCH  11  12
ENDBRANCH   1  11
TORSDOF 3
ENDMDL
