MODEL 1
REMARK VINA RESULT:      -4.5      0.000      0.000
REMARK  Name = *****
REMARK  4 active torsions:
REMARK  status: ('A' for Active; 'I' for Inactive)
REMARK    1  A    between atoms: C_1  and  C_2
REMARK    2  A    between atoms: C_3  and  C_9
REMARK    3  A    between atoms: N_11  and  C_12
REMARK    4  A    between atoms: N_11  and  C_13
REMARK                            x       y       z     vdW  Elec       q    Type
REMARK                         _______ _______ _______ _____ _____    ______ ____
ROOT
ATOM      1  C   UNL     1     103.345 126.604  81.549  0.00  0.00    +0.000 C 
ATOM      2  O   UNL     1     103.314 127.518  80.729  0.00  0.00    +0.000 OA
ATOM      3  N   UNL     1     102.500 126.434  82.664  0.00  0.00    +0.000 N 
ATOM      4  C   UNL     1     102.888 125.555  83.773  0.00  0.00    +0.000 C 
ENDROOT
BRANCH   1   7
ATOM      5  C   UNL     1     106.114 127.000  82.519  0.00  0.00    +0.000 C 
ATOM      6  C   UNL     1     105.708 125.766  81.762  0.00  0.00    +0.000 A 
ATOM      7  C   UNL     1     104.390 125.581  81.306  0.00  0.00    +0.000 A 
ATOM      8  C   UNL     1     104.038 124.445  80.561  0.00  0.00    +0.000 A 
ATOM      9  C   UNL     1     104.997 123.473  80.283  0.00  0.00    +0.000 A 
ATOM     10  C   UNL     1     106.304 123.644  80.737  0.00  0.00    +0.000 A 
ATOM     11  C   UNL     1     106.663 124.781  81.465  0.00  0.00    +0.000 A 
ATOM     12 CL   UNL     1     107.489 122.445  80.390  0.00  0.00    +0.000 Cl
ENDBRANCH   1   7
BRANCH   3  13
ATOM     13  C   UNL     1     101.274 127.192  82.819  0.00  0.00    +0.000 A 
ATOM     14  C   UNL     1     100.034 126.703  82.383  0.00  0.00    +0.000 A 
ATOM     15  C   UNL     1      98.851 127.435  82.555  0.00  0.00    +0.000 A 
ATOM     16  C   UNL     1      98.878 128.675  83.178  0.00  0.00    +0.000 A 
ATOM     17  C   UNL     1     100.087 129.180  83.635  0.00  0.00    +0.000 A 
ATOM     18  C   UNL     1     101.268 128.445  83.462  0.00  0.00    +0.000 A 
ENDBRANCH   3  13
TORSDOF 2
ENDMDL
