MODEL 1
REMARK VINA RESULT:      -4.8      0.000      0.000
REMARK  Name = *****
REMARK  6 active torsions:
REMARK  status: ('A' for Active; 'I' for Inactive)
REMARK    1  A    between atoms: C_1  and  C_2
REMARK    2  A    between atoms: C_5  and  C_8
REMARK    3  A    between atoms: C_8  and  O_10
REMARK    4  A    between atoms: O_10  and  C_11
REMARK    5  A    between atoms: C_12  and  C_18
REMARK    6  A    between atoms: C_16  and  C_17
REMARK                            x       y       z     vdW  Elec       q    Type
REMARK                         _______ _______ _______ _____ _____    ______ ____
ROOT
ATOM      1  C   UNL     1     101.960 125.964  83.073  0.00  0.00    +0.000 C 
ATOM      2  O   UNL     1     101.577 125.611  84.179  0.00  0.00    +0.000 OA
ENDROOT
BRANCH   1   7
ATOM      3  C   UNL     1     105.990 123.211  79.933  0.00  0.00    +0.000 C 
ATOM      4  C   UNL     1     104.973 123.936  80.764  0.00  0.00    +0.000 A 
ATOM      5  C   UNL     1     104.784 123.594  82.109  0.00  0.00    +0.000 A 
ATOM      6  C   UNL     1     103.814 124.243  82.879  0.00  0.00    +0.000 A 
ATOM      7  C   UNL     1     103.011 125.238  82.307  0.00  0.00    +0.000 A 
ATOM      8  C   UNL     1     103.191 125.572  80.958  0.00  0.00    +0.000 A 
ATOM      9  C   UNL     1     104.160 124.921  80.191  0.00  0.00    +0.000 A 
ENDBRANCH   1   7
BRANCH   1  10
ATOM     10  O   UNL     1     101.532 127.060  82.347  0.00  0.00    +0.000 OA
BRANCH  10  11
ATOM     11  C   UNL     1     101.060 128.112  83.144  0.00  0.00    +0.000 A 
ATOM     12  C   UNL     1     101.983 128.984  83.744  0.00  0.00    +0.000 A 
ATOM     13  C   UNL     1     101.491 130.041  84.517  0.00  0.00    +0.000 A 
ATOM     14  C   UNL     1     100.117 130.238  84.656  0.00  0.00    +0.000 A 
ATOM     15  C   UNL     1      99.213 129.381  84.024  0.00  0.00    +0.000 A 
ATOM     16  C   UNL     1      99.674 128.313  83.245  0.00  0.00    +0.000 A 
ATOM     17  C   UNL     1      98.698 127.386  82.582  0.00  0.00    +0.000 C 
ATOM     18  C   UNL     1     103.462 128.769  83.616  0.00  0.00    +0.000 C 
ENDBRANCH  10  11
ENDBRANCH   1  10
TORSDOF 3
ENDMDL
