MODEL 1
REMARK VINA RESULT:      -4.7      0.000      0.000
REMARK  Name = *****
REMARK  2 active torsions:
REMARK  status: ('A' for Active; 'I' for Inactive)
REMARK    1  A    between atoms: C_4  and  C_9
REMARK    2  A    between atoms: C_10  and  C_11
REMARK                            x       y       z     vdW  Elec       q    Type
REMARK                         _______ _______ _______ _____ _____    ______ ____
ROOT
ATOM      1  C   UNL     1      98.908 128.959  83.573  0.00  0.00    +0.000 C 
ATOM      2  C   UNL     1      98.650 127.745  82.668  0.00  0.00    +0.000 C 
ATOM      3  C   UNL     1      99.741 126.718  82.811  0.00  0.00    +0.000 C 
ATOM      4  C   UNL     1     101.132 127.177  82.515  0.00  0.00    +0.000 C 
ATOM      5  C   UNL     1     100.712 126.866  83.935  0.00  0.00    +0.000 C 
ATOM      6  C   UNL     1     101.298 128.196  83.595  0.00  0.00    +0.000 C 
ATOM      7  C   UNL     1     100.382 129.389  83.540  0.00  0.00    +0.000 C 
ATOM      8 CL   UNL     1     101.466 125.607  84.812  0.00  0.00    +0.000 Cl
ENDROOT
BRANCH   4   9
ATOM      9  C   UNL     1     102.159 126.425  81.893  0.00  0.00    +0.000 C 
ATOM     10  C   UNL     1     103.033 125.782  81.377  0.00  0.00    +0.000 C 
BRANCH  10  11
ATOM     11  C   UNL     1     104.075 125.018  80.763  0.00  0.00    +0.000 A 
ATOM     12  C   UNL     1     104.882 125.597  79.781  0.00  0.00    +0.000 A 
ATOM     13  C   UNL     1     105.900 124.852  79.184  0.00  0.00    +0.000 A 
ATOM     14  C   UNL     1     106.112 123.528  79.568  0.00  0.00    +0.000 A 
ATOM     15  C   UNL     1     105.306 122.947  80.548  0.00  0.00    +0.000 A 
ATOM     16  C   UNL     1     104.288 123.692  81.146  0.00  0.00    +0.000 A 
ENDBRANCH  10  11
ENDBRANCH   4   9
TORSDOF 2
ENDMDL
