MODEL 1
REMARK VINA RESULT:      -5.2      0.000      0.000
REMARK  Name = *****
REMARK  5 active torsions:
REMARK  status: ('A' for Active; 'I' for Inactive)
REMARK    1  A    between atoms: C_1  and  C_2
REMARK    2  A    between atoms: C_2  and  O_4
REMARK    3  A    between atoms: O_4  and  C_5
REMARK    4  A    between atoms: C_9  and  C_11
REMARK    5  A    between atoms: C_12  and  C_13
REMARK                            x       y       z     vdW  Elec       q    Type
REMARK                         _______ _______ _______ _____ _____    ______ ____
ROOT
ATOM      1  C   UNL     1      98.806 127.719  82.840  0.00  0.00    +0.000 A 
ATOM      2  C   UNL     1      99.219 128.886  83.477  0.00  0.00    +0.000 A 
ATOM      3  C   UNL     1     100.582 129.112  83.663  0.00  0.00    +0.000 A 
ATOM      4  C   UNL     1     101.514 128.162  83.232  0.00  0.00    +0.000 A 
ATOM      5  C   UNL     1     101.096 126.968  82.626  0.00  0.00    +0.000 A 
ATOM      6  C   UNL     1      99.727 126.756  82.425  0.00  0.00    +0.000 A 
ENDROOT
BRANCH   5   7
ATOM      7  C   UNL     1     102.050 125.959  82.143  0.00  0.00    +0.000 C 
ATOM      8  C   UNL     1     102.999 126.210  81.226  0.00  0.00    +0.000 C 
BRANCH   8   9
ATOM      9  C   UNL     1     103.964 125.207  80.754  0.00  0.00    +0.000 A 
ATOM     10  C   UNL     1     104.847 125.457  79.695  0.00  0.00    +0.000 A 
ATOM     11  C   UNL     1     105.774 124.488  79.297  0.00  0.00    +0.000 A 
ATOM     12  C   UNL     1     105.834 123.265  79.962  0.00  0.00    +0.000 A 
ATOM     13  C   UNL     1     104.973 123.011  81.026  0.00  0.00    +0.000 A 
ATOM     14  C   UNL     1     104.047 123.979  81.424  0.00  0.00    +0.000 A 
ENDBRANCH   8   9
ENDBRANCH   5   7
BRANCH   1  15
ATOM     15  O   UNL     1      97.446 127.425  82.677  0.00  0.00    +0.000 OA
BRANCH  15  17
ATOM     16  C   UNL     1      96.963 126.550  84.803  0.00  0.00    +0.000 C 
ATOM     17  C   UNL     1      96.996 126.280  83.328  0.00  0.00    +0.000 C 
ATOM     18  O   UNL     1      96.687 125.213  82.817  0.00  0.00    +0.000 OA
ENDBRANCH  15  17
ENDBRANCH   1  15
TORSDOF 4
ENDMDL
