REMARK  Name = *****
REMARK  1 active torsions:
REMARK  status: ('A' for Active; 'I' for Inactive)
REMARK    1  A    between atoms: C_4  and  N_7
REMARK                            x       y       z     vdW  Elec       q    Type
REMARK                         _______ _______ _______ _____ _____    ______ ____
ROOT
ATOM      1  N   UNL     1       2.726  -0.536  -0.471  0.00  0.00    +0.000 NA
ATOM      2  C   UNL     1       3.544  -1.366   0.072  0.00  0.00    +0.000 A 
ATOM      3  O   UNL     1       3.261  -2.076   1.231  0.00  0.00    +0.000 OA
ATOM      4  C   UNL     1       4.375  -2.868   1.495  0.00  0.00    +0.000 A 
ATOM      5  C   UNL     1       4.405  -3.708   2.598  0.00  0.00    +0.000 A 
ATOM      6  C   UNL     1       5.549  -4.480   2.812  0.00  0.00    +0.000 A 
ATOM      7  C   UNL     1       6.636  -4.402   1.927  0.00  0.00    +0.000 A 
ATOM      8  C   UNL     1       6.590  -3.551   0.819  0.00  0.00    +0.000 A 
ATOM      9  C   UNL     1       5.451  -2.789   0.617  0.00  0.00    +0.000 A 
ATOM     10  S   UNL     1       5.114  -1.650  -0.670  0.00  0.00    +0.000 S 
ENDROOT
BRANCH   1  14
ATOM     11  C   UNL     1      -1.448   0.284  -0.110  0.00  0.00    +0.000 C 
ATOM     12  C   UNL     1      -0.971  -1.126   0.228  0.00  0.00    +0.000 C 
ATOM     13  C   UNL     1       0.435  -1.388  -0.306  0.00  0.00    +0.000 C 
ATOM     14  C   UNL     1       1.433  -0.333   0.188  0.00  0.00    +0.000 C 
ATOM     15  C   UNL     1       0.947   1.078  -0.167  0.00  0.00    +0.000 C 
ATOM     16  C   UNL     1      -0.458   1.342   0.367  0.00  0.00    +0.000 C 
ENDBRANCH   1  14
TORSDOF 1
