MODEL 1
REMARK VINA RESULT:      -4.6      0.000      0.000
REMARK  Name = *****
REMARK  2 active torsions:
REMARK  status: ('A' for Active; 'I' for Inactive)
REMARK    1  A    between atoms: C_2  and  C_10
REMARK    2  A    between atoms: N_3  and  C_4
REMARK                            x       y       z     vdW  Elec       q    Type
REMARK                         _______ _______ _______ _____ _____    ______ ____
ROOT
ATOM      1  C   UNL     1     103.531 127.484  81.945  0.00  0.00    +0.000 C 
ATOM      2  C   UNL     1     102.897 126.174  81.500  0.00  0.00    +0.000 C 
ATOM      3  N   UNL     1     102.543 126.810  82.772  0.00  0.00    +0.000 N 
ENDROOT
BRANCH   2   4
ATOM      4  C   UNL     1     103.702 124.902  81.548  0.00  0.00    +0.000 A 
ATOM      5  C   UNL     1     103.866 124.175  82.740  0.00  0.00    +0.000 A 
ATOM      6  C   UNL     1     104.603 122.988  82.776  0.00  0.00    +0.000 A 
ATOM      7  C   UNL     1     105.188 122.504  81.611  0.00  0.00    +0.000 A 
ATOM      8  C   UNL     1     105.040 123.197  80.413  0.00  0.00    +0.000 A 
ATOM      9  C   UNL     1     104.302 124.384  80.386  0.00  0.00    +0.000 A 
ATOM     10 CL   UNL     1     106.095 121.043  81.649  0.00  0.00    +0.000 Cl
ENDBRANCH   2   4
BRANCH   3  11
ATOM     11  C   UNL     1     101.259 127.387  82.927  0.00  0.00    +0.000 A 
ATOM     12  C   UNL     1     101.102 128.649  83.516  0.00  0.00    +0.000 A 
ATOM     13  C   UNL     1      99.838 129.232  83.634  0.00  0.00    +0.000 A 
ATOM     14  C   UNL     1      98.716 128.566  83.145  0.00  0.00    +0.000 A 
ATOM     15  C   UNL     1      98.859 127.324  82.529  0.00  0.00    +0.000 A 
ATOM     16  C   UNL     1     100.125 126.744  82.413  0.00  0.00    +0.000 A 
ENDBRANCH   3  11
TORSDOF 2
ENDMDL
