MODEL 1
REMARK VINA RESULT:      -4.5      0.000      0.000
REMARK  Name = *****
REMARK  2 active torsions:
REMARK  status: ('A' for Active; 'I' for Inactive)
REMARK    1  A    between atoms: C_4  and  N_7
REMARK    2  A    between atoms: C_8  and  C_9
REMARK                            x       y       z     vdW  Elec       q    Type
REMARK                         _______ _______ _______ _____ _____    ______ ____
ROOT
ATOM      1  N   UNL     1     101.769 125.939  82.847  0.00  0.00    +0.000 NA
ATOM      2  C   UNL     1     102.540 126.004  81.807  0.00  0.00    +0.000 C 
ENDROOT
BRANCH   2   3
ATOM      3  C   UNL     1     103.567 124.981  81.533  0.00  0.00    +0.000 A 
ATOM      4  C   UNL     1     104.136 124.860  80.261  0.00  0.00    +0.000 A 
ATOM      5  C   UNL     1     105.107 123.884  80.024  0.00  0.00    +0.000 A 
ATOM      6  C   UNL     1     105.503 123.036  81.057  0.00  0.00    +0.000 A 
ATOM      7  C   UNL     1     104.938 123.155  82.327  0.00  0.00    +0.000 A 
ATOM      8  C   UNL     1     103.966 124.130  82.568  0.00  0.00    +0.000 A 
ATOM      9 CL   UNL     1     106.699 121.835  80.765  0.00  0.00    +0.000 Cl
ENDBRANCH   2   3
BRANCH   1  13
ATOM     10  C   UNL     1      98.985 129.061  83.219  0.00  0.00    +0.000 A 
ATOM     11  C   UNL     1     100.289 129.233  83.684  0.00  0.00    +0.000 A 
ATOM     12  C   UNL     1     101.213 128.194  83.560  0.00  0.00    +0.000 A 
ATOM     13  C   UNL     1     100.839 126.978  82.982  0.00  0.00    +0.000 A 
ATOM     14  C   UNL     1      99.536 126.821  82.505  0.00  0.00    +0.000 A 
ATOM     15  C   UNL     1      98.608 127.857  82.627  0.00  0.00    +0.000 A 
ENDBRANCH   1  13
TORSDOF 2
ENDMDL
