MODEL 1
REMARK VINA RESULT:      -4.7      0.000      0.000
REMARK  Name = *****
REMARK  1 active torsions:
REMARK  status: ('A' for Active; 'I' for Inactive)
REMARK    1  A    between atoms: C_5  and  C_9
REMARK                            x       y       z     vdW  Elec       q    Type
REMARK                         _______ _______ _______ _____ _____    ______ ____
ROOT
ATOM      1  C   UNL     1      89.575  68.515  84.947  0.00  0.00    +0.000 C 
ATOM      2  C   UNL     1      89.796  68.668  86.446  0.00  0.00    +0.000 C 
ATOM      3  C   UNL     1      89.605  70.159  86.756  0.00  0.00    +0.000 C 
ATOM      4  C   UNL     1      88.248  70.502  87.375  0.00  0.00    +0.000 C 
ATOM      5  C   UNL     1      87.321  70.719  86.178  0.00  0.00    +0.000 C 
ATOM      6  C   UNL     1      88.221  71.439  85.168  0.00  0.00    +0.000 C 
ATOM      7  C   UNL     1      89.638  70.887  85.396  0.00  0.00    +0.000 C 
ATOM      8  C   UNL     1      90.070  69.833  84.378  0.00  0.00    +0.000 C 
ENDROOT
BRANCH   5   9
ATOM      9  C   UNL     1      86.037  71.447  86.504  0.00  0.00    +0.000 A 
ATOM     10  C   UNL     1      85.199  71.965  85.504  0.00  0.00    +0.000 A 
ATOM     11  C   UNL     1      84.019  72.634  85.835  0.00  0.00    +0.000 A 
ATOM     12  C   UNL     1      83.658  72.795  87.170  0.00  0.00    +0.000 A 
ATOM     13  C   UNL     1      84.476  72.287  88.175  0.00  0.00    +0.000 A 
ATOM     14  C   UNL     1      85.657  71.618  87.844  0.00  0.00    +0.000 A 
ENDBRANCH   5   9
TORSDOF 1
ENDMDL
