REMARK  Name = *****
REMARK  5 active torsions:
REMARK  status: ('A' for Active; 'I' for Inactive)
REMARK    1  A    between atoms: C_1  and  C_2
REMARK    2  A    between atoms: C_3  and  C_17
REMARK    3  A    between atoms: C_4  and  C_8
REMARK    4  A    between atoms: C_8  and  C_10
REMARK    5  A    between atoms: C_10  and  C_11
REMARK                            x       y       z     vdW  Elec       q    Type
REMARK                         _______ _______ _______ _____ _____    ______ ____
ROOT
ATOM      1  C   UNL     1      -0.608  -2.787   0.206  0.00  0.00    +0.000 C 
ATOM      2  O   UNL     1       0.112  -3.333   1.041  0.00  0.00    +0.000 OA
ENDROOT
BRANCH   1   6
ATOM      3  C   UNL     1       1.843   1.636  -0.273  0.00  0.00    +0.000 C 
ATOM      4  C   UNL     1       0.590   0.810  -0.142  0.00  0.00    +0.000 A 
ATOM      5  C   UNL     1       0.627  -0.602  -0.081  0.00  0.00    +0.000 A 
ATOM      6  C   UNL     1      -0.589  -1.305   0.077  0.00  0.00    +0.000 A 
ATOM      7  C   UNL     1      -1.810  -0.622   0.142  0.00  0.00    +0.000 A 
ATOM      8  C   UNL     1      -1.838   0.766   0.048  0.00  0.00    +0.000 A 
ATOM      9  C   UNL     1      -0.647   1.475  -0.093  0.00  0.00    +0.000 A 
ATOM     10  C   UNL     1       1.940  -1.345  -0.133  0.00  0.00    +0.000 C 
ENDBRANCH   1   6
BRANCH   1  11
ATOM     11  C   UNL     1      -1.510  -3.569  -0.732  0.00  0.00    +0.000 C 
BRANCH  11  12
ATOM     12  C   UNL     1      -2.825  -3.987  -0.121  0.00  0.00    +0.000 A 
ATOM     13  C   UNL     1      -4.031  -3.709  -0.782  0.00  0.00    +0.000 A 
ATOM     14  C   UNL     1      -5.251  -4.104  -0.229  0.00  0.00    +0.000 A 
ATOM     15  C   UNL     1      -5.279  -4.788   0.984  0.00  0.00    +0.000 A 
ATOM     16  C   UNL     1      -4.087  -5.084   1.642  0.00  0.00    +0.000 A 
ATOM     17  C   UNL     1      -2.867  -4.691   1.090  0.00  0.00    +0.000 A 
ENDBRANCH  11  12
ENDBRANCH   1  11
TORSDOF 3
