MODEL 1
REMARK VINA RESULT:      -4.2      0.000      0.000
REMARK  Name = *****
REMARK  2 active torsions:
REMARK  status: ('A' for Active; 'I' for Inactive)
REMARK    1  A    between atoms: C_2  and  C_10
REMARK    2  A    between atoms: N_3  and  C_4
REMARK                            x       y       z     vdW  Elec       q    Type
REMARK                         _______ _______ _______ _____ _____    ______ ____
ROOT
ATOM      1  C   UNL     1      86.259  63.476  86.780  0.00  0.00    +0.000 C 
ATOM      2  C   UNL     1      87.364  62.925  87.638  0.00  0.00    +0.000 C 
ATOM      3  N   UNL     1      87.655  63.755  86.451  0.00  0.00    +0.000 N 
ENDROOT
BRANCH   2   4
ATOM      4  C   UNL     1      87.596  63.393  89.051  0.00  0.00    +0.000 A 
ATOM      5  C   UNL     1      88.897  63.533  89.566  0.00  0.00    +0.000 A 
ATOM      6  C   UNL     1      89.125  63.952  90.881  0.00  0.00    +0.000 A 
ATOM      7  C   UNL     1      88.045  64.224  91.713  0.00  0.00    +0.000 A 
ATOM      8  C   UNL     1      86.744  64.076  91.242  0.00  0.00    +0.000 A 
ATOM      9  C   UNL     1      86.526  63.660  89.924  0.00  0.00    +0.000 A 
ATOM     10 CL   UNL     1      88.316  64.739  93.331  0.00  0.00    +0.000 Cl
ENDBRANCH   2   4
BRANCH   3  11
ATOM     11  C   UNL     1      88.165  65.075  86.543  0.00  0.00    +0.000 A 
ATOM     12  C   UNL     1      89.512  65.247  86.180  0.00  0.00    +0.000 A 
ATOM     13  C   UNL     1      90.126  66.501  86.226  0.00  0.00    +0.000 A 
ATOM     14  C   UNL     1      89.400  67.615  86.634  0.00  0.00    +0.000 A 
ATOM     15  C   UNL     1      88.062  67.470  86.991  0.00  0.00    +0.000 A 
ATOM     16  C   UNL     1      87.450  66.212  86.942  0.00  0.00    +0.000 A 
ENDBRANCH   3  11
TORSDOF 2
ENDMDL
