MODEL 1
REMARK VINA RESULT:      -4.6      0.000      0.000
REMARK  Name = *****
REMARK  3 active torsions:
REMARK  status: ('A' for Active; 'I' for Inactive)
REMARK    1  A    between atoms: C_4  and  C_7
REMARK    2  A    between atoms: C_8  and  C_9
REMARK    3  A    between atoms: C_8  and  C_11
REMARK                            x       y       z     vdW  Elec       q    Type
REMARK                         _______ _______ _______ _____ _____    ______ ____
ROOT
ATOM      1  C   UNL     1     102.013 125.788  82.621  0.00  0.00    +0.000 C 
ATOM      2  C   UNL     1     102.994 125.750  81.696  0.00  0.00    +0.000 C 
ENDROOT
BRANCH   1   6
ATOM      3  C   UNL     1      99.298 129.013  83.298  0.00  0.00    +0.000 A 
ATOM      4  C   UNL     1      98.854 127.865  82.643  0.00  0.00    +0.000 A 
ATOM      5  C   UNL     1      99.735 126.806  82.414  0.00  0.00    +0.000 A 
ATOM      6  C   UNL     1     101.068 126.894  82.829  0.00  0.00    +0.000 A 
ATOM      7  C   UNL     1     101.503 128.045  83.496  0.00  0.00    +0.000 A 
ATOM      8  C   UNL     1     100.621 129.103  83.726  0.00  0.00    +0.000 A 
ENDBRANCH   1   6
BRANCH   2   9
ATOM      9  C   UNL     1     103.869 124.564  81.636  0.00  0.00    +0.000 A 
ATOM     10  C   UNL     1     104.148 123.800  82.768  0.00  0.00    +0.000 A 
ATOM     11  N   UNL     1     104.939 122.701  82.776  0.00  0.00    +0.000 NA
ATOM     12  C   UNL     1     105.476 122.332  81.593  0.00  0.00    +0.000 A 
ATOM     13  C   UNL     1     105.258 123.012  80.407  0.00  0.00    +0.000 A 
ATOM     14  C   UNL     1     104.443 124.142  80.431  0.00  0.00    +0.000 A 
ENDBRANCH   2   9
BRANCH   2  15
ATOM     15  C   UNL     1     103.250 126.835  80.799  0.00  0.00    +0.000 C 
ATOM     16  N   UNL     1     103.480 127.704  80.065  0.00  0.00    +0.000 NA
ENDBRANCH   2  15
TORSDOF 3
ENDMDL
