MODEL 1
REMARK VINA RESULT:      -4.6      0.000      0.000
REMARK  Name = *****
REMARK  2 active torsions:
REMARK  status: ('A' for Active; 'I' for Inactive)
REMARK    1  A    between atoms: C_3  and  N_8
REMARK    2  A    between atoms: C_9  and  C_10
REMARK                            x       y       z     vdW  Elec       q    Type
REMARK                         _______ _______ _______ _____ _____    ______ ____
ROOT
ATOM      1  N   UNL     1     101.865 125.909  82.831  0.00  0.00    +0.000 NA
ATOM      2  C   UNL     1     102.548 125.921  81.730  0.00  0.00    +0.000 C 
ENDROOT
BRANCH   1   5
ATOM      3  C   UNL     1      98.614 127.665  82.574  0.00  0.00    +0.000 A 
ATOM      4  C   UNL     1      99.596 126.677  82.469  0.00  0.00    +0.000 A 
ATOM      5  C   UNL     1     100.886 126.903  82.958  0.00  0.00    +0.000 A 
ATOM      6  C   UNL     1     101.197 128.137  83.532  0.00  0.00    +0.000 A 
ATOM      7  C   UNL     1     100.217 129.121  83.637  0.00  0.00    +0.000 A 
ATOM      8  C   UNL     1      98.925 128.890  83.164  0.00  0.00    +0.000 A 
ATOM      9 CL   UNL     1     100.600 130.637  84.358  0.00  0.00    +0.000 Cl
ENDBRANCH   1   5
BRANCH   2  10
ATOM     10  C   UNL     1     103.610 124.932  81.461  0.00  0.00    +0.000 A 
ATOM     11  C   UNL     1     104.206 124.846  80.198  0.00  0.00    +0.000 A 
ATOM     12  C   UNL     1     105.209 123.903  79.965  0.00  0.00    +0.000 A 
ATOM     13  C   UNL     1     105.611 123.050  80.994  0.00  0.00    +0.000 A 
ATOM     14  C   UNL     1     105.018 123.134  82.255  0.00  0.00    +0.000 A 
ATOM     15  C   UNL     1     104.014 124.077  82.491  0.00  0.00    +0.000 A 
ATOM     16 CL   UNL     1     106.845 121.888  80.708  0.00  0.00    +0.000 Cl
ENDBRANCH   2  10
TORSDOF 2
ENDMDL
