MODEL 1
REMARK VINA RESULT:      -4.4      0.000      0.000
REMARK  Name = *****
REMARK  4 active torsions:
REMARK  status: ('A' for Active; 'I' for Inactive)
REMARK    1  A    between atoms: C_1  and  C_2
REMARK    2  A    between atoms: C_4  and  C_8
REMARK    3  A    between atoms: C_8  and  C_9
REMARK    4  A    between atoms: C_9  and  C_11
REMARK                            x       y       z     vdW  Elec       q    Type
REMARK                         _______ _______ _______ _____ _____    ______ ____
ROOT
ATOM      1  C   UNL     1      87.973  69.275  87.345  0.00  0.00    +0.000 C 
ENDROOT
BRANCH   1   5
ATOM      2  C   UNL     1      90.188  71.935  84.063  0.00  0.00    +0.000 C 
ATOM      3  C   UNL     1      89.932  70.660  84.812  0.00  0.00    +0.000 C 
ATOM      4  C   UNL     1      89.680  70.650  86.133  0.00  0.00    +0.000 C 
ATOM      5  C   UNL     1      89.453  69.397  86.949  0.00  0.00    +0.000 C 
ATOM      6  C   UNL     1      89.926  68.143  86.188  0.00  0.00    +0.000 C 
ATOM      7  C   UNL     1      89.475  68.155  84.730  0.00  0.00    +0.000 C 
ATOM      8  C   UNL     1      89.995  69.393  83.996  0.00  0.00    +0.000 C 
ENDBRANCH   1   5
BRANCH   1   9
ATOM      9  C   UNL     1      87.535  70.352  88.328  0.00  0.00    +0.000 C 
ATOM     10  O   UNL     1      87.925  70.355  89.495  0.00  0.00    +0.000 OA
BRANCH   9  11
ATOM     11  C   UNL     1      86.555  71.398  87.800  0.00  0.00    +0.000 C 
ATOM     12  C   UNL     1      85.324  71.462  88.709  0.00  0.00    +0.000 C 
ATOM     13  C   UNL     1      84.293  72.463  88.192  0.00  0.00    +0.000 C 
ATOM     14  C   UNL     1      83.904  72.180  86.745  0.00  0.00    +0.000 C 
ATOM     15  C   UNL     1      85.128  72.114  85.837  0.00  0.00    +0.000 C 
ATOM     16  C   UNL     1      86.151  71.103  86.350  0.00  0.00    +0.000 C 
ENDBRANCH   9  11
ENDBRANCH   1   9
TORSDOF 3
ENDMDL
