REMARK  Name = *****
REMARK  6 active torsions:
REMARK  status: ('A' for Active; 'I' for Inactive)
REMARK    1  A    between atoms: C_1  and  C_2
REMARK    2  A    between atoms: C_5  and  C_8
REMARK    3  A    between atoms: C_8  and  C_9
REMARK    4  A    between atoms: C_9  and  C_11
REMARK    5  A    between atoms: C_11  and  C_12
REMARK    6  A    between atoms: C_15  and  C_18
REMARK                            x       y       z     vdW  Elec       q    Type
REMARK                         _______ _______ _______ _____ _____    ______ ____
ROOT
ATOM      1  C   UNL     1      -3.854   1.602  -0.440  0.00  0.00    +0.000 C 
ATOM      2  O   UNL     1      -3.056   2.452  -0.839  0.00  0.00    +0.000 OA
ENDROOT
BRANCH   1   3
ATOM      3  C   UNL     1      -3.507   0.127  -0.292  0.00  0.00    +0.000 C 
BRANCH   3   8
ATOM      4  C   UNL     1       1.666  -1.375  -2.511  0.00  0.00    +0.000 C 
ATOM      5  C   UNL     1       0.340  -0.965  -1.946  0.00  0.00    +0.000 A 
ATOM      6  C   UNL     1       0.236  -0.522  -0.623  0.00  0.00    +0.000 A 
ATOM      7  C   UNL     1      -1.004  -0.166  -0.088  0.00  0.00    +0.000 A 
ATOM      8  C   UNL     1      -2.166  -0.262  -0.864  0.00  0.00    +0.000 A 
ATOM      9  C   UNL     1      -2.062  -0.709  -2.188  0.00  0.00    +0.000 A 
ATOM     10  C   UNL     1      -0.821  -1.065  -2.720  0.00  0.00    +0.000 A 
ENDBRANCH   3   8
ENDBRANCH   1   3
BRANCH   1  11
ATOM     11  C   UNL     1      -5.251   2.010  -0.007  0.00  0.00    +0.000 C 
BRANCH  11  12
ATOM     12  C   UNL     1      -6.329   1.448  -0.897  0.00  0.00    +0.000 A 
ATOM     13  C   UNL     1      -7.267   0.537  -0.398  0.00  0.00    +0.000 A 
ATOM     14  C   UNL     1      -8.258   0.012  -1.232  0.00  0.00    +0.000 A 
ATOM     15  C   UNL     1      -8.335   0.399  -2.574  0.00  0.00    +0.000 A 
ATOM     16  C   UNL     1      -7.391   1.301  -3.076  0.00  0.00    +0.000 A 
ATOM     17  C   UNL     1      -6.401   1.827  -2.244  0.00  0.00    +0.000 A 
ATOM     18  C   UNL     1      -9.378  -0.190  -3.477  0.00  0.00    +0.000 C 
ENDBRANCH  11  12
ENDBRANCH   1  11
TORSDOF 4
