MODEL 1
REMARK VINA RESULT:      -4.7      0.000      0.000
REMARK  Name = *****
REMARK  2 active torsions:
REMARK  status: ('A' for Active; 'I' for Inactive)
REMARK    1  A    between atoms: C_5  and  C_7
REMARK    2  A    between atoms: C_8  and  C_9
REMARK                            x       y       z     vdW  Elec       q    Type
REMARK                         _______ _______ _______ _____ _____    ______ ____
ROOT
ATOM      1  C   UNL     1     101.930 126.074  82.368  0.00  0.00    +0.000 C 
ATOM      2  C   UNL     1     102.835 125.611  81.726  0.00  0.00    +0.000 C 
ENDROOT
BRANCH   2   3
ATOM      3  C   UNL     1     103.914 125.062  80.965  0.00  0.00    +0.000 A 
ATOM      4  C   UNL     1     104.596 125.863  80.043  0.00  0.00    +0.000 A 
ATOM      5  C   UNL     1     105.651 125.328  79.302  0.00  0.00    +0.000 A 
ATOM      6  C   UNL     1     106.015 123.998  79.489  0.00  0.00    +0.000 A 
ATOM      7  C   UNL     1     105.344 123.193  80.404  0.00  0.00    +0.000 A 
ATOM      8  C   UNL     1     104.288 123.727  81.145  0.00  0.00    +0.000 A 
ATOM      9  F   UNL     1     107.028 123.485  78.779  0.00  0.00    +0.000 F 
ENDBRANCH   2   3
BRANCH   1  14
ATOM     10  C   UNL     1      98.500 127.635  82.937  0.00  0.00    +0.000 C 
ATOM     11  C   UNL     1      99.039 129.052  83.143  0.00  0.00    +0.000 C 
ATOM     12  C   UNL     1     100.440 129.073  83.680  0.00  0.00    +0.000 C 
ATOM     13  C   UNL     1     101.235 127.992  83.698  0.00  0.00    +0.000 C 
ATOM     14  C   UNL     1     100.822 126.647  83.152  0.00  0.00    +0.000 C 
ATOM     15  C   UNL     1      99.549 126.731  82.293  0.00  0.00    +0.000 C 
ENDBRANCH   1  14
TORSDOF 2
ENDMDL
