MODEL 1
REMARK VINA RESULT:      -3.9      0.000      0.000
REMARK  Name = *****
REMARK  3 active torsions:
REMARK  status: ('A' for Active; 'I' for Inactive)
REMARK    1  A    between atoms: C_4  and  C_7
REMARK    2  A    between atoms: C_7  and  S_9
REMARK    3  A    between atoms: S_9  and  C_10
REMARK                            x       y       z     vdW  Elec       q    Type
REMARK                         _______ _______ _______ _____ _____    ______ ____
ROOT
ATOM      1  C   UNL     1     100.547 127.138  83.065  0.00  0.00    +0.000 C 
ATOM      2  O   UNL     1      99.713 126.694  82.284  0.00  0.00    +0.000 OA
ENDROOT
BRANCH   1   6
ATOM      3  C   UNL     1     100.483 131.201  84.471  0.00  0.00    +0.000 A 
ATOM      4  C   UNL     1      99.360 130.693  83.823  0.00  0.00    +0.000 A 
ATOM      5  C   UNL     1      99.354 129.375  83.354  0.00  0.00    +0.000 A 
ATOM      6  C   UNL     1     100.475 128.553  83.537  0.00  0.00    +0.000 A 
ATOM      7  C   UNL     1     101.605 129.082  84.181  0.00  0.00    +0.000 A 
ATOM      8  C   UNL     1     101.607 130.399  84.649  0.00  0.00    +0.000 A 
ENDBRANCH   1   6
BRANCH   1   9
ATOM      9  S   UNL     1     101.910 126.152  83.590  0.00  0.00    +0.000 S 
BRANCH   9  10
ATOM     10  C   UNL     1     102.825 126.176  82.091  0.00  0.00    +0.000 A 
ATOM     11  C   UNL     1     102.967 127.266  81.259  0.00  0.00    +0.000 A 
ATOM     12  C   UNL     1     103.797 126.982  80.134  0.00  0.00    +0.000 A 
ATOM     13  C   UNL     1     104.267 125.689  80.154  0.00  0.00    +0.000 A 
ATOM     14  S   UNL     1     103.718 124.829  81.527  0.00  0.00    +0.000 S 
ENDBRANCH   9  10
ENDBRANCH   1   9
TORSDOF 3
ENDMDL
