MODEL 1
REMARK VINA RESULT:      -4.9      0.000      0.000
REMARK  Name = *****
REMARK  5 active torsions:
REMARK  status: ('A' for Active; 'I' for Inactive)
REMARK    1  A    between atoms: C_1  and  C_2
REMARK    2  A    between atoms: C_2  and  C_4
REMARK    3  A    between atoms: C_5  and  C_11
REMARK    4  A    between atoms: C_11  and  C_12
REMARK    5  A    between atoms: C_12  and  C_13
REMARK                            x       y       z     vdW  Elec       q    Type
REMARK                         _______ _______ _______ _____ _____    ______ ____
ROOT
ATOM      1  C   UNL     1      99.694 128.294  83.473  0.00  0.00    +0.000 A 
ATOM      2  C   UNL     1     100.998 127.797  83.264  0.00  0.00    +0.000 A 
ATOM      3  C   UNL     1     102.088 128.614  83.623  0.00  0.00    +0.000 A 
ATOM      4  C   UNL     1     101.880 129.875  84.171  0.00  0.00    +0.000 A 
ATOM      5  C   UNL     1     100.597 130.362  84.377  0.00  0.00    +0.000 A 
ATOM      6  C   UNL     1      99.502 129.572  84.030  0.00  0.00    +0.000 A 
ATOM      7  F   UNL     1     102.934 130.632  84.499  0.00  0.00    +0.000 F 
ENDROOT
BRANCH   1   9
ATOM      8  C   UNL     1      97.819 126.738  84.272  0.00  0.00    +0.000 C 
ATOM      9  C   UNL     1      98.478 127.499  83.151  0.00  0.00    +0.000 C 
ATOM     10  O   UNL     1      98.074 127.429  81.995  0.00  0.00    +0.000 OA
ENDBRANCH   1   9
BRANCH   2  11
ATOM     11  C   UNL     1     101.296 126.459  82.619  0.00  0.00    +0.000 C 
BRANCH  11  12
ATOM     12  C   UNL     1     102.448 125.701  83.294  0.00  0.00    +0.000 C 
BRANCH  12  13
ATOM     13  C   UNL     1     103.354 124.975  82.326  0.00  0.00    +0.000 A 
ATOM     14  C   UNL     1     103.453 125.401  80.992  0.00  0.00    +0.000 A 
ATOM     15  C   UNL     1     104.294 124.734  80.100  0.00  0.00    +0.000 A 
ATOM     16  C   UNL     1     105.037 123.646  80.543  0.00  0.00    +0.000 A 
ATOM     17  C   UNL     1     104.956 123.212  81.859  0.00  0.00    +0.000 A 
ATOM     18  C   UNL     1     104.114 123.876  82.753  0.00  0.00    +0.000 A 
ATOM     19  F   UNL     1     105.850 123.012  79.688  0.00  0.00    +0.000 F 
ENDBRANCH  12  13
ENDBRANCH  11  12
ENDBRANCH   2  11
TORSDOF 4
ENDMDL
