MODEL 1
REMARK VINA RESULT:      -4.5      0.000      0.000
REMARK  Name = *****
REMARK  5 active torsions:
REMARK  status: ('A' for Active; 'I' for Inactive)
REMARK    1  A    between atoms: C_1  and  O_2
REMARK    2  A    between atoms: O_2  and  C_3
REMARK    3  A    between atoms: C_7  and  C_9
REMARK    4  A    between atoms: C_9  and  C_10
REMARK    5  A    between atoms: C_10  and  C_11
REMARK                            x       y       z     vdW  Elec       q    Type
REMARK                         _______ _______ _______ _____ _____    ______ ____
ROOT
ATOM      1  C   UNL     1      90.353  65.907  85.921  0.00  0.00    +0.000 A 
ATOM      2  C   UNL     1      89.272  65.230  86.485  0.00  0.00    +0.000 A 
ATOM      3  C   UNL     1      88.220  65.945  87.063  0.00  0.00    +0.000 A 
ATOM      4  C   UNL     1      88.243  67.340  87.080  0.00  0.00    +0.000 A 
ATOM      5  C   UNL     1      89.320  68.035  86.520  0.00  0.00    +0.000 A 
ATOM      6  C   UNL     1      90.373  67.306  85.948  0.00  0.00    +0.000 A 
ENDROOT
BRANCH   1   8
ATOM      7  C   UNL     1      91.410  63.921  85.156  0.00  0.00    +0.000 C 
ATOM      8  O   UNL     1      91.441  65.332  85.325  0.00  0.00    +0.000 OA
ENDBRANCH   1   8
BRANCH   5   9
ATOM      9  C   UNL     1      89.359  69.543  86.544  0.00  0.00    +0.000 C 
BRANCH   9  10
ATOM     10  C   UNL     1      88.701  70.112  87.805  0.00  0.00    +0.000 C 
BRANCH  10  11
ATOM     11  C   UNL     1      87.400  70.807  87.491  0.00  0.00    +0.000 A 
ATOM     12  C   UNL     1      87.053  71.104  86.165  0.00  0.00    +0.000 A 
ATOM     13  C   UNL     1      85.858  71.764  85.878  0.00  0.00    +0.000 A 
ATOM     14  C   UNL     1      84.997  72.133  86.910  0.00  0.00    +0.000 A 
ATOM     15  C   UNL     1      85.333  71.845  88.232  0.00  0.00    +0.000 A 
ATOM     16  C   UNL     1      86.529  71.187  88.522  0.00  0.00    +0.000 A 
ENDBRANCH  10  11
ENDBRANCH   9  10
ENDBRANCH   5   9
TORSDOF 4
ENDMDL
