MODEL 1
REMARK VINA RESULT:      -5.2      0.000      0.000
REMARK  Name = *****
REMARK  5 active torsions:
REMARK  status: ('A' for Active; 'I' for Inactive)
REMARK    1  A    between atoms: C_1  and  C_2
REMARK    2  A    between atoms: C_4  and  C_17
REMARK    3  A    between atoms: C_6  and  C_8
REMARK    4  A    between atoms: C_8  and  C_10
REMARK    5  A    between atoms: C_10  and  C_11
REMARK                            x       y       z     vdW  Elec       q    Type
REMARK                         _______ _______ _______ _____ _____    ______ ____
ROOT
ATOM      1  C   UNL     1      88.856  70.117  86.603  0.00  0.00    +0.000 C 
ATOM      2  O   UNL     1      89.675  70.793  87.229  0.00  0.00    +0.000 OA
ENDROOT
BRANCH   1   8
ATOM      3  C   UNL     1      91.159  65.826  85.471  0.00  0.00    +0.000 C 
ATOM      4  C   UNL     1      90.048  66.546  86.177  0.00  0.00    +0.000 A 
ATOM      5  C   UNL     1      89.070  65.831  86.878  0.00  0.00    +0.000 A 
ATOM      6  C   UNL     1      88.007  66.496  87.503  0.00  0.00    +0.000 A 
ATOM      7  C   UNL     1      87.935  67.896  87.434  0.00  0.00    +0.000 A 
ATOM      8  C   UNL     1      88.895  68.625  86.722  0.00  0.00    +0.000 A 
ATOM      9  C   UNL     1      89.945  67.941  86.094  0.00  0.00    +0.000 A 
ATOM     10  C   UNL     1      86.987  65.724  88.287  0.00  0.00    +0.000 C 
ENDBRANCH   1   8
BRANCH   1  11
ATOM     11  C   UNL     1      87.823  70.785  85.714  0.00  0.00    +0.000 C 
BRANCH  11  12
ATOM     12  C   UNL     1      86.623  71.312  86.464  0.00  0.00    +0.000 A 
ATOM     13  C   UNL     1      86.577  71.257  87.864  0.00  0.00    +0.000 A 
ATOM     14  C   UNL     1      85.473  71.757  88.557  0.00  0.00    +0.000 A 
ATOM     15  C   UNL     1      84.410  72.328  87.860  0.00  0.00    +0.000 A 
ATOM     16  C   UNL     1      84.452  72.406  86.470  0.00  0.00    +0.000 A 
ATOM     17  C   UNL     1      85.555  71.906  85.775  0.00  0.00    +0.000 A 
ENDBRANCH  11  12
ENDBRANCH   1  11
TORSDOF 3
ENDMDL
