REMARK  Name = *****
REMARK  3 active torsions:
REMARK  status: ('A' for Active; 'I' for Inactive)
REMARK    1  A    between atoms: C_1  and  C_2
REMARK    2  A    between atoms: C_2  and  C_3
REMARK    3  A    between atoms: C_2  and  N_9
REMARK                            x       y       z     vdW  Elec       q    Type
REMARK                         _______ _______ _______ _____ _____    ______ ____
ROOT
ATOM      1  C   UNL     1       1.158   0.181   0.146  0.00  0.00    +0.000 C 
ATOM      2  C   UNL     1       2.683   0.081   0.100  0.00  0.00    +0.000 C 
ENDROOT
BRANCH   2   3
ATOM      3  N   UNL     1       3.104  -0.229  -1.269  0.00  0.00    +0.000 NA
ATOM      4  C   UNL     1       3.277   0.682  -2.160  0.00  0.00    +0.000 C 
ATOM      5  C   UNL     1       3.054   2.173  -2.004  0.00  0.00    +0.000 C 
ATOM      6  C   UNL     1       4.338   2.905  -2.383  0.00  0.00    +0.000 C 
ATOM      7  C   UNL     1       4.826   2.509  -3.778  0.00  0.00    +0.000 C 
ATOM      8  C   UNL     1       5.013   0.996  -3.900  0.00  0.00    +0.000 C 
ATOM      9  C   UNL     1       3.740   0.241  -3.536  0.00  0.00    +0.000 C 
ENDBRANCH   2   3
BRANCH   2  10
ATOM     10  C   UNL     1       3.153  -0.987   1.079  0.00  0.00    +0.000 A 
ATOM     11  C   UNL     1       3.195  -2.342   0.718  0.00  0.00    +0.000 A 
ATOM     12  C   UNL     1       3.605  -3.313   1.634  0.00  0.00    +0.000 A 
ATOM     13  C   UNL     1       3.973  -2.942   2.926  0.00  0.00    +0.000 A 
ATOM     14  C   UNL     1       3.931  -1.601   3.302  0.00  0.00    +0.000 A 
ATOM     15  C   UNL     1       3.521  -0.629   2.386  0.00  0.00    +0.000 A 
ENDBRANCH   2  10
TORSDOF 2
