MODEL 1
REMARK VINA RESULT:      -4.8      0.000      0.000
REMARK  Name = *****
REMARK  4 active torsions:
REMARK  status: ('A' for Active; 'I' for Inactive)
REMARK    1  A    between atoms: C_2  and  C_3
REMARK    2  A    between atoms: C_3  and  C_4
REMARK    3  A    between atoms: C_3  and  C_11
REMARK    4  A    between atoms: C_4  and  C_5
REMARK                            x       y       z     vdW  Elec       q    Type
REMARK                         _______ _______ _______ _____ _____    ______ ____
ROOT
ATOM      1  C   UNL     1     103.047 126.238  81.735  0.00  0.00    +0.000 C 
ENDROOT
BRANCH   1   2
ATOM      2  C   UNL     1     103.772 124.892  81.715  0.00  0.00    +0.000 A 
ATOM      3  C   UNL     1     103.939 124.163  82.904  0.00  0.00    +0.000 A 
ATOM      4  C   UNL     1     104.589 122.928  82.894  0.00  0.00    +0.000 A 
ATOM      5  C   UNL     1     105.081 122.405  81.701  0.00  0.00    +0.000 A 
ATOM      6  C   UNL     1     104.924 123.117  80.514  0.00  0.00    +0.000 A 
ATOM      7  C   UNL     1     104.273 124.352  80.520  0.00  0.00    +0.000 A 
ENDBRANCH   1   2
BRANCH   1   9
ATOM      8  C   UNL     1     104.112 128.150  80.375  0.00  0.00    +0.000 C 
ATOM      9  C   UNL     1     103.383 127.030  80.481  0.00  0.00    +0.000 C 
ENDBRANCH   1   9
BRANCH   1  10
ATOM     10  C   UNL     1     101.546 126.014  82.062  0.00  0.00    +0.000 C 
BRANCH  10  11
ATOM     11  C   UNL     1     100.835 127.199  82.687  0.00  0.00    +0.000 A 
ATOM     12  C   UNL     1     101.565 128.187  83.362  0.00  0.00    +0.000 A 
ATOM     13  C   UNL     1     100.920 129.290  83.923  0.00  0.00    +0.000 A 
ATOM     14  C   UNL     1      99.538 129.425  83.806  0.00  0.00    +0.000 A 
ATOM     15  C   UNL     1      98.803 128.459  83.123  0.00  0.00    +0.000 A 
ATOM     16  C   UNL     1      99.447 127.356  82.561  0.00  0.00    +0.000 A 
ENDBRANCH  10  11
ENDBRANCH   1  10
TORSDOF 4
ENDMDL
