MODEL 1
REMARK VINA RESULT:      -4.5      0.000      0.000
REMARK  Name = *****
REMARK  2 active torsions:
REMARK  status: ('A' for Active; 'I' for Inactive)
REMARK    1  A    between atoms: C_1  and  C_2
REMARK    2  A    between atoms: C_9  and  C_11
REMARK                            x       y       z     vdW  Elec       q    Type
REMARK                         _______ _______ _______ _____ _____    ______ ____
ROOT
ATOM      1  C   UNL     1      99.377 131.117  84.617  0.00  0.00    +0.000 C 
ATOM      2  C   UNL     1      99.792 129.805  84.005  0.00  0.00    +0.000 C 
ATOM      3  C   UNL     1     101.140 129.412  84.059  0.00  0.00    +0.000 C 
ATOM      4  C   UNL     1     101.522 128.200  83.459  0.00  0.00    +0.000 C 
ATOM      5  N   UNL     1     100.645 127.425  82.832  0.00  0.00    +0.000 N 
ATOM      6  C   UNL     1      99.204 127.822  82.741  0.00  0.00    +0.000 C 
ATOM      7  C   UNL     1      98.843 129.021  83.340  0.00  0.00    +0.000 C 
ATOM      8  C   UNL     1     101.147 126.263  82.285  0.00  0.00    +0.000 C 
ATOM      9  C   UNL     1     102.501 126.118  82.503  0.00  0.00    +0.000 C 
ATOM     10  S   UNL     1     103.087 127.475  83.384  0.00  0.00    +0.000 S 
ENDROOT
BRANCH   9  11
ATOM     11  C   UNL     1     103.399 125.043  82.077  0.00  0.00    +0.000 A 
ATOM     12  C   UNL     1     103.844 124.090  83.007  0.00  0.00    +0.000 A 
ATOM     13  C   UNL     1     104.715 123.068  82.618  0.00  0.00    +0.000 A 
ATOM     14  C   UNL     1     105.154 122.989  81.299  0.00  0.00    +0.000 A 
ATOM     15  C   UNL     1     104.723 123.929  80.367  0.00  0.00    +0.000 A 
ATOM     16  C   UNL     1     103.852 124.950  80.752  0.00  0.00    +0.000 A 
ENDBRANCH   9  11
TORSDOF 1
ENDMDL
