MODEL 1
REMARK VINA RESULT:      -5.5      0.000      0.000
REMARK  Name = *****
REMARK  2 active torsions:
REMARK  status: ('A' for Active; 'I' for Inactive)
REMARK    1  A    between atoms: C_2  and  C_11
REMARK    2  A    between atoms: C_11  and  C_12
REMARK                            x       y       z     vdW  Elec       q    Type
REMARK                         _______ _______ _______ _____ _____    ______ ____
ROOT
ATOM      1  C   UNL     1     103.917 125.332  82.983  0.00  0.00    +0.000 C 
ATOM      2  C   UNL     1     103.114 126.222  82.004  0.00  0.00    +0.000 C 
ATOM      3  C   UNL     1     103.617 126.070  80.584  0.00  0.00    +0.000 C 
ATOM      4  C   UNL     1     104.229 124.960  80.143  0.00  0.00    +0.000 C 
ATOM      5  C   UNL     1     104.420 123.814  81.036  0.00  0.00    +0.000 A 
ATOM      6  C   UNL     1     104.791 122.568  80.521  0.00  0.00    +0.000 A 
ATOM      7  C   UNL     1     104.975 121.479  81.377  0.00  0.00    +0.000 A 
ATOM      8  C   UNL     1     104.800 121.633  82.751  0.00  0.00    +0.000 A 
ATOM      9  C   UNL     1     104.441 122.875  83.276  0.00  0.00    +0.000 A 
ATOM     10  C   UNL     1     104.240 123.967  82.423  0.00  0.00    +0.000 A 
ENDROOT
BRANCH   2  11
ATOM     11  C   UNL     1     101.601 125.915  82.104  0.00  0.00    +0.000 C 
BRANCH  11  12
ATOM     12  C   UNL     1     100.779 127.068  82.633  0.00  0.00    +0.000 A 
ATOM     13  C   UNL     1      99.389 127.089  82.454  0.00  0.00    +0.000 A 
ATOM     14  C   UNL     1      98.630 128.158  82.931  0.00  0.00    +0.000 A 
ATOM     15  C   UNL     1      99.251 129.216  83.592  0.00  0.00    +0.000 A 
ATOM     16  C   UNL     1     100.633 129.206  83.775  0.00  0.00    +0.000 A 
ATOM     17  C   UNL     1     101.394 128.138  83.298  0.00  0.00    +0.000 A 
ENDBRANCH  11  12
ENDBRANCH   2  11
TORSDOF 2
ENDMDL
