REMARK  Name = *****
REMARK  3 active torsions:
REMARK  status: ('A' for Active; 'I' for Inactive)
REMARK    1  A    between atoms: C_4  and  S_8
REMARK    2  A    between atoms: S_8  and  C_9
REMARK    3  A    between atoms: C_9  and  C_11
REMARK                            x       y       z     vdW  Elec       q    Type
REMARK                         _______ _______ _______ _____ _____    ______ ____
ROOT
ATOM      1  S   UNL     1       1.753  -1.311  -2.098  0.00  0.00    +0.000 S 
ENDROOT
BRANCH   1   5
ATOM      2  C   UNL     1      -0.261  -0.177   1.245  0.00  0.00    +0.000 C 
ATOM      3  C   UNL     1      -0.221   1.017   0.287  0.00  0.00    +0.000 C 
ATOM      4  C   UNL     1       1.162   0.836  -0.378  0.00  0.00    +0.000 C 
ATOM      5  C   UNL     1       1.320  -0.717  -0.431  0.00  0.00    +0.000 C 
ATOM      6  C   UNL     1      -0.047  -1.207   0.126  0.00  0.00    +0.000 C 
ATOM      7  C   UNL     1      -1.175  -0.775  -0.789  0.00  0.00    +0.000 C 
ATOM      8  C   UNL     1      -1.272   0.560  -0.697  0.00  0.00    +0.000 C 
ENDBRANCH   1   5
BRANCH   1   9
ATOM      9  C   UNL     1       1.981  -3.024  -1.760  0.00  0.00    +0.000 C 
ATOM     10  O   UNL     1       2.067  -3.433  -0.609  0.00  0.00    +0.000 OA
BRANCH   9  11
ATOM     11  C   UNL     1       2.084  -3.971  -2.913  0.00  0.00    +0.000 A 
ATOM     12  C   UNL     1       1.950  -3.586  -4.255  0.00  0.00    +0.000 A 
ATOM     13  C   UNL     1       2.059  -4.533  -5.278  0.00  0.00    +0.000 A 
ATOM     14  C   UNL     1       2.302  -5.871  -4.973  0.00  0.00    +0.000 A 
ATOM     15  C   UNL     1       2.436  -6.267  -3.645  0.00  0.00    +0.000 A 
ATOM     16  C   UNL     1       2.327  -5.324  -2.621  0.00  0.00    +0.000 A 
ENDBRANCH   9  11
ENDBRANCH   1   9
TORSDOF 3
