MODEL 1
REMARK VINA RESULT:      -5.0      0.000      0.000
REMARK  Name = *****
REMARK  2 active torsions:
REMARK  status: ('A' for Active; 'I' for Inactive)
REMARK    1  A    between atoms: C_1  and  C_2
REMARK    2  A    between atoms: C_3  and  C_11
REMARK                            x       y       z     vdW  Elec       q    Type
REMARK                         _______ _______ _______ _____ _____    ______ ____
ROOT
ATOM      1  C   UNL     1      99.618 126.756  82.394  0.00  0.00    +0.000 C 
ATOM      2  C   UNL     1     100.313 127.280  83.645  0.00  0.00    +0.000 C 
ATOM      3  C   UNL     1     101.831 126.941  83.784  0.00  0.00    +0.000 C 
ATOM      4  C   UNL     1     102.423 128.065  84.675  0.00  0.00    +0.000 C 
ATOM      5  C   UNL     1     101.493 129.211  84.414  0.00  0.00    +0.000 A 
ATOM      6  C   UNL     1     101.696 130.547  84.722  0.00  0.00    +0.000 A 
ATOM      7  C   UNL     1     100.688 131.460  84.410  0.00  0.00    +0.000 A 
ATOM      8  C   UNL     1      99.495 131.029  83.810  0.00  0.00    +0.000 A 
ATOM      9  C   UNL     1      99.294 129.678  83.516  0.00  0.00    +0.000 A 
ATOM     10  C   UNL     1     100.303 128.777  83.814  0.00  0.00    +0.000 A 
ENDROOT
BRANCH   3  11
ATOM     11  C   UNL     1     102.595 126.757  82.475  0.00  0.00    +0.000 A 
ATOM     12  C   UNL     1     103.083 127.840  81.727  0.00  0.00    +0.000 A 
ATOM     13  C   UNL     1     103.771 127.630  80.530  0.00  0.00    +0.000 A 
ATOM     14  C   UNL     1     103.980 126.335  80.062  0.00  0.00    +0.000 A 
ATOM     15  C   UNL     1     103.500 125.249  80.788  0.00  0.00    +0.000 A 
ATOM     16  C   UNL     1     102.811 125.459  81.985  0.00  0.00    +0.000 A 
ENDBRANCH   3  11
TORSDOF 1
ENDMDL
