MODEL 1
REMARK VINA RESULT:      -5.0      0.000      0.000
REMARK  Name = *****
REMARK  2 active torsions:
REMARK  status: ('A' for Active; 'I' for Inactive)
REMARK    1  A    between atoms: C_3  and  C_8
REMARK    2  A    between atoms: C_9  and  C_10
REMARK                            x       y       z     vdW  Elec       q    Type
REMARK                         _______ _______ _______ _____ _____    ______ ____
ROOT
ATOM      1  C   UNL     1     102.065 126.171  82.150  0.00  0.00    +0.000 C 
ATOM      2  C   UNL     1     102.937 125.457  81.734  0.00  0.00    +0.000 C 
ENDROOT
BRANCH   1   5
ATOM      3  C   UNL     1      98.664 127.586  82.750  0.00  0.00    +0.000 A 
ATOM      4  C   UNL     1      99.682 126.718  82.347  0.00  0.00    +0.000 A 
ATOM      5  C   UNL     1     101.021 127.041  82.594  0.00  0.00    +0.000 A 
ATOM      6  C   UNL     1     101.340 128.229  83.252  0.00  0.00    +0.000 A 
ATOM      7  C   UNL     1     100.318 129.084  83.649  0.00  0.00    +0.000 A 
ATOM      8  C   UNL     1      98.984 128.775  83.402  0.00  0.00    +0.000 A 
ATOM      9  F   UNL     1     100.623 130.229  84.274  0.00  0.00    +0.000 F 
ENDBRANCH   1   5
BRANCH   2  10
ATOM     10  C   UNL     1     103.969 124.629  81.191  0.00  0.00    +0.000 A 
ATOM     11  C   UNL     1     104.589 124.983  79.991  0.00  0.00    +0.000 A 
ATOM     12  C   UNL     1     105.566 124.149  79.450  0.00  0.00    +0.000 A 
ATOM     13  C   UNL     1     105.930 122.968  80.097  0.00  0.00    +0.000 A 
ATOM     14  C   UNL     1     105.315 122.619  81.299  0.00  0.00    +0.000 A 
ATOM     15  C   UNL     1     104.334 123.450  81.846  0.00  0.00    +0.000 A 
ATOM     16 CL   UNL     1     106.325 124.574  77.964  0.00  0.00    +0.000 Cl
ENDBRANCH   2  10
TORSDOF 2
ENDMDL
