MODEL 1
REMARK VINA RESULT:      -5.2      0.000      0.000
REMARK  Name = *****
REMARK  1 active torsions:
REMARK  status: ('A' for Active; 'I' for Inactive)
REMARK    1  A    between atoms: C_1  and  N_2
REMARK                            x       y       z     vdW  Elec       q    Type
REMARK                         _______ _______ _______ _____ _____    ______ ____
ROOT
ATOM      1  C   UNL     1      87.566  65.104  84.548  0.00  0.00    +0.000 C 
ATOM      2  N   UNL     1      88.342  64.435  85.588  0.00  0.00    +0.000 N 
ATOM      3  C   UNL     1      89.386  63.572  85.092  0.00  0.00    +0.000 A 
ATOM      4  C   UNL     1      90.739  64.009  84.990  0.00  0.00    +0.000 A 
ATOM      5  C   UNL     1      91.718  63.162  84.476  0.00  0.00    +0.000 A 
ATOM      6  C   UNL     1      91.348  61.893  84.047  0.00  0.00    +0.000 A 
ATOM      7  C   UNL     1      90.024  61.458  84.112  0.00  0.00    +0.000 A 
ATOM      8  C   UNL     1      89.037  62.301  84.627  0.00  0.00    +0.000 A 
ATOM      9  F   UNL     1      92.280  61.074  83.542  0.00  0.00    +0.000 F 
ATOM     10  C   UNL     1      91.048  65.358  85.352  0.00  0.00    +0.000 C 
ATOM     11  C   UNL     1      90.721  66.419  85.806  0.00  0.00    +0.000 C 
ATOM     12  C   UNL     1      89.708  67.207  86.434  0.00  0.00    +0.000 A 
ATOM     13  C   UNL     1      88.567  66.526  86.924  0.00  0.00    +0.000 A 
ATOM     14  C   UNL     1      88.538  65.035  86.846  0.00  0.00    +0.000 C 
ATOM     15  O   UNL     1      88.805  64.409  87.869  0.00  0.00    +0.000 OA
ATOM     16  C   UNL     1      87.543  67.218  87.570  0.00  0.00    +0.000 A 
ATOM     17  C   UNL     1      87.639  68.607  87.679  0.00  0.00    +0.000 A 
ATOM     18  C   UNL     1      88.755  69.274  87.167  0.00  0.00    +0.000 A 
ATOM     19  C   UNL     1      89.797  68.590  86.546  0.00  0.00    +0.000 A 
ATOM     20  F   UNL     1      88.827  70.607  87.281  0.00  0.00    +0.000 F 
ENDROOT
TORSDOF 0
ENDMDL
