MODEL 1
REMARK VINA RESULT:      -4.6      0.000      0.000
REMARK  Name = *****
REMARK  5 active torsions:
REMARK  status: ('A' for Active; 'I' for Inactive)
REMARK    1  A    between atoms: C_1  and  C_2
REMARK    2  A    between atoms: C_4  and  C_16
REMARK    3  A    between atoms: C_6  and  O_8
REMARK    4  A    between atoms: O_8  and  C_9
REMARK    5  A    between atoms: C_9  and  C_10
REMARK                            x       y       z     vdW  Elec       q    Type
REMARK                         _______ _______ _______ _____ _____    ______ ____
ROOT
ATOM      1  C   UNL     1      87.021  65.295  88.363  0.00  0.00    +0.000 C 
ATOM      2  C   UNL     1      87.962  66.180  87.598  0.00  0.00    +0.000 A 
ATOM      3  C   UNL     1      89.046  65.626  86.905  0.00  0.00    +0.000 A 
ATOM      4  C   UNL     1      89.941  66.445  86.209  0.00  0.00    +0.000 A 
ATOM      5  C   UNL     1      89.760  67.833  86.245  0.00  0.00    +0.000 A 
ATOM      6  C   UNL     1      88.694  68.404  86.945  0.00  0.00    +0.000 A 
ATOM      7  C   UNL     1      87.798  67.574  87.622  0.00  0.00    +0.000 A 
ATOM      8  C   UNL     1      91.116  65.856  85.488  0.00  0.00    +0.000 C 
ENDROOT
BRANCH   6   9
ATOM      9  O   UNL     1      88.646  69.769  86.894  0.00  0.00    +0.000 OA
BRANCH   9  10
ATOM     10  C   UNL     1      87.986  70.440  87.966  0.00  0.00    +0.000 C 
BRANCH  10  11
ATOM     11  C   UNL     1      86.764  71.141  87.422  0.00  0.00    +0.000 A 
ATOM     12  C   UNL     1      86.606  71.344  86.043  0.00  0.00    +0.000 A 
ATOM     13  C   UNL     1      85.464  71.974  85.546  0.00  0.00    +0.000 A 
ATOM     14  C   UNL     1      84.469  72.407  86.420  0.00  0.00    +0.000 A 
ATOM     15  C   UNL     1      84.613  72.211  87.791  0.00  0.00    +0.000 A 
ATOM     16  C   UNL     1      85.754  71.580  88.290  0.00  0.00    +0.000 A 
ENDBRANCH  10  11
ENDBRANCH   9  10
ENDBRANCH   6   9
TORSDOF 3
ENDMDL
