REMARK  Name = *****
REMARK  3 active torsions:
REMARK  status: ('A' for Active; 'I' for Inactive)
REMARK    1  A    between atoms: C_5  and  C_7
REMARK    2  A    between atoms: C_7  and  C_8
REMARK    3  A    between atoms: C_8  and  C_10
REMARK                            x       y       z     vdW  Elec       q    Type
REMARK                         _______ _______ _______ _____ _____    ______ ____
ROOT
ATOM      1  C   UNL     1      -2.586   0.364   0.572  0.00  0.00    +0.000 C 
ENDROOT
BRANCH   1   6
ATOM      2  C   UNL     1       1.158   1.039  -0.308  0.00  0.00    +0.000 C 
ATOM      3  C   UNL     1       1.728  -0.340   0.002  0.00  0.00    +0.000 C 
ATOM      4  C   UNL     1       0.753  -1.452  -0.384  0.00  0.00    +0.000 C 
ATOM      5  C   UNL     1      -0.638  -1.268   0.233  0.00  0.00    +0.000 C 
ATOM      6  C   UNL     1      -1.204   0.135  -0.075  0.00  0.00    +0.000 C 
ATOM      7  C   UNL     1      -0.215   1.246   0.327  0.00  0.00    +0.000 C 
ATOM      8 CL   UNL     1      -0.564  -1.597   1.998  0.00  0.00    +0.000 Cl
ENDBRANCH   1   6
BRANCH   1   9
ATOM      9  C   UNL     1      -3.336   1.530  -0.054  0.00  0.00    +0.000 C 
ATOM     10  O   UNL     1      -3.133   1.891  -1.212  0.00  0.00    +0.000 OA
BRANCH   9  11
ATOM     11  C   UNL     1      -4.362   2.245   0.760  0.00  0.00    +0.000 A 
ATOM     12  C   UNL     1      -4.765   3.522   0.348  0.00  0.00    +0.000 A 
ATOM     13  C   UNL     1      -5.709   4.236   1.088  0.00  0.00    +0.000 A 
ATOM     14  C   UNL     1      -6.261   3.676   2.238  0.00  0.00    +0.000 A 
ATOM     15  C   UNL     1      -5.874   2.400   2.647  0.00  0.00    +0.000 A 
ATOM     16  C   UNL     1      -4.928   1.682   1.910  0.00  0.00    +0.000 A 
ENDBRANCH   9  11
ENDBRANCH   1   9
TORSDOF 3
