MODEL 1
REMARK VINA RESULT:      -4.7      0.000      0.000
REMARK  Name = *****
REMARK  7 active torsions:
REMARK  status: ('A' for Active; 'I' for Inactive)
REMARK    1  A    between atoms: C_1  and  C_2
REMARK    2  A    between atoms: C_5  and  N_8
REMARK    3  A    between atoms: N_8  and  S_9
REMARK    4  A    between atoms: S_9  and  C_11
REMARK    5  A    between atoms: S_9  and  O_18
REMARK    6  A    between atoms: C_14  and  C_17
REMARK    7  A    between atoms: O_18  and  C_19
REMARK                            x       y       z     vdW  Elec       q    Type
REMARK                         _______ _______ _______ _____ _____    ______ ____
ROOT
ATOM      1  S   UNL     1      89.128  70.257  86.287  0.00  0.00    +0.000 S 
ATOM      2  O   UNL     1      89.612  70.888  87.497  0.00  0.00    +0.000 OA
ENDROOT
BRANCH   1   3
ATOM      3  C   UNL     1      89.013  68.510  86.580  0.00  0.00    +0.000 A 
ATOM      4  C   UNL     1      90.002  67.664  86.071  0.00  0.00    +0.000 A 
ATOM      5  C   UNL     1      89.910  66.289  86.293  0.00  0.00    +0.000 A 
ATOM      6  C   UNL     1      88.844  65.758  87.032  0.00  0.00    +0.000 A 
ATOM      7  C   UNL     1      87.857  66.621  87.533  0.00  0.00    +0.000 A 
ATOM      8  C   UNL     1      87.941  67.997  87.313  0.00  0.00    +0.000 A 
ATOM      9  C   UNL     1      88.724  64.279  87.249  0.00  0.00    +0.000 C 
ENDBRANCH   1   3
BRANCH   1  10
ATOM     10  O   UNL     1      90.275  70.390  85.142  0.00  0.00    +0.000 OA
ATOM     11  C   UNL     1      89.924  71.023  83.926  0.00  0.00    +0.000 C 
ENDBRANCH   1  10
BRANCH   1  12
ATOM     12  N   UNL     1      87.926  70.667  85.433  0.00  0.00    +0.000 NA
BRANCH  12  17
ATOM     13  C   UNL     1      83.031  73.082  87.220  0.00  0.00    +0.000 C 
ATOM     14  C   UNL     1      84.307  72.428  86.779  0.00  0.00    +0.000 A 
ATOM     15  C   UNL     1      85.214  71.930  87.722  0.00  0.00    +0.000 A 
ATOM     16  C   UNL     1      86.418  71.345  87.312  0.00  0.00    +0.000 A 
ATOM     17  C   UNL     1      86.735  71.255  85.954  0.00  0.00    +0.000 A 
ATOM     18  C   UNL     1      85.842  71.778  85.018  0.00  0.00    +0.000 A 
ATOM     19  C   UNL     1      84.638  72.362  85.423  0.00  0.00    +0.000 A 
ENDBRANCH  12  17
ENDBRANCH   1  12
TORSDOF 4
ENDMDL
