MODEL 1
REMARK VINA RESULT:      -4.4      0.000      0.000
REMARK  Name = *****
REMARK  6 active torsions:
REMARK  status: ('A' for Active; 'I' for Inactive)
REMARK    1  A    between atoms: C_1  and  C_2
REMARK    2  A    between atoms: C_2  and  O_3
REMARK    3  A    between atoms: O_3  and  C_4
REMARK    4  A    between atoms: C_7  and  C_17
REMARK    5  A    between atoms: C_8  and  C_9
REMARK    6  A    between atoms: C_10  and  C_11
REMARK                            x       y       z     vdW  Elec       q    Type
REMARK                         _______ _______ _______ _____ _____    ______ ____
ROOT
ATOM      1  C   UNL     1      90.100  67.601  85.743  0.00  0.00    +0.000 A 
ATOM      2  N   UNL     1      90.400  67.264  84.486  0.00  0.00    +0.000 NA
ATOM      3  O   UNL     1      90.229  68.422  83.748  0.00  0.00    +0.000 OA
ATOM      4  C   UNL     1      89.829  69.432  84.570  0.00  0.00    +0.000 A 
ATOM      5  C   UNL     1      89.729  68.961  85.862  0.00  0.00    +0.000 A 
ATOM      6  C   UNL     1      89.605  70.740  83.923  0.00  0.00    +0.000 C 
ENDROOT
BRANCH   5   7
ATOM      7  C   UNL     1      89.336  69.746  86.989  0.00  0.00    +0.000 C 
ATOM      8  C   UNL     1      88.074  70.012  87.369  0.00  0.00    +0.000 C 
BRANCH   8   9
ATOM      9  C   UNL     1      87.732  70.820  88.548  0.00  0.00    +0.000 A 
ATOM     10  C   UNL     1      86.433  71.294  88.778  0.00  0.00    +0.000 A 
ATOM     11  C   UNL     1      86.141  72.035  89.927  0.00  0.00    +0.000 A 
ATOM     12  C   UNL     1      87.142  72.299  90.859  0.00  0.00    +0.000 A 
ATOM     13  C   UNL     1      88.433  71.819  90.649  0.00  0.00    +0.000 A 
ATOM     14  C   UNL     1      88.724  71.078  89.502  0.00  0.00    +0.000 A 
ENDBRANCH   8   9
ENDBRANCH   5   7
BRANCH   1  15
ATOM     15  O   UNL     1      90.166  66.692  86.745  0.00  0.00    +0.000 OA
BRANCH  15  17
ATOM     16  C   UNL     1      87.998  66.125  87.548  0.00  0.00    +0.000 C 
ATOM     17  C   UNL     1      89.168  65.673  86.692  0.00  0.00    +0.000 C 
ENDBRANCH  15  17
ENDBRANCH   1  15
TORSDOF 4
ENDMDL
