REMARK  Name = *****
REMARK  3 active torsions:
REMARK  status: ('A' for Active; 'I' for Inactive)
REMARK    1  A    between atoms: C_4  and  N_7
REMARK    2  A    between atoms: N_7  and  P_8
REMARK    3  A    between atoms: P_8  and  C_10
REMARK                            x       y       z     vdW  Elec       q    Type
REMARK                         _______ _______ _______ _____ _____    ______ ____
ROOT
ATOM      1  P   UNL     1      -3.659  -0.489  -1.609  0.00  0.00    +0.000 P 
ATOM      2  S   UNL     1      -5.069   0.726  -1.988  0.00  0.00    +0.000 S 
ENDROOT
BRANCH   1   3
ATOM      3  C   UNL     1      -4.610  -1.976  -1.056  0.00  0.00    +0.000 A 
ATOM      4  C   UNL     1      -4.627  -3.101  -1.900  0.00  0.00    +0.000 A 
ATOM      5  C   UNL     1      -5.319  -4.263  -1.543  0.00  0.00    +0.000 A 
ATOM      6  C   UNL     1      -6.006  -4.322  -0.333  0.00  0.00    +0.000 A 
ATOM      7  C   UNL     1      -6.001  -3.221   0.520  0.00  0.00    +0.000 A 
ATOM      8  C   UNL     1      -5.309  -2.061   0.161  0.00  0.00    +0.000 A 
ENDBRANCH   1   3
BRANCH   1   9
ATOM      9  N   UNL     1      -3.229   0.077  -0.249  0.00  0.00    +0.000 NA
BRANCH   9  13
ATOM     10  C   UNL     1       0.848  -0.261   0.662  0.00  0.00    +0.000 A 
ATOM     11  C   UNL     1      -0.012  -1.326   0.917  0.00  0.00    +0.000 A 
ATOM     12  C   UNL     1      -1.371  -1.219   0.605  0.00  0.00    +0.000 A 
ATOM     13  C   UNL     1      -1.903  -0.060   0.010  0.00  0.00    +0.000 A 
ATOM     14  C   UNL     1      -1.015   1.009  -0.208  0.00  0.00    +0.000 A 
ATOM     15  C   UNL     1       0.345   0.910   0.103  0.00  0.00    +0.000 A 
ENDBRANCH   9  13
ENDBRANCH   1   9
TORSDOF 3
