MODEL 1
REMARK VINA RESULT:      -4.6      0.000      0.000
REMARK  Name = *****
REMARK  3 active torsions:
REMARK  status: ('A' for Active; 'I' for Inactive)
REMARK    1  A    between atoms: C_5  and  C_8
REMARK    2  A    between atoms: C_8  and  C_10
REMARK    3  A    between atoms: C_10  and  C_11
REMARK                            x       y       z     vdW  Elec       q    Type
REMARK                         _______ _______ _______ _____ _____    ______ ____
ROOT
ATOM      1  C   UNL     1     102.711 125.554  83.139  0.00  0.00    +0.000 C 
ATOM      2  O   UNL     1     102.435 125.111  84.257  0.00  0.00    +0.000 OA
ENDROOT
BRANCH   1   7
ATOM      3  C   UNL     1     104.989 123.214  80.541  0.00  0.00    +0.000 C 
ATOM      4  C   UNL     1     105.124 124.544  79.806  0.00  0.00    +0.000 C 
ATOM      5  C   UNL     1     103.994 125.534  80.066  0.00  0.00    +0.000 C 
ATOM      6  C   UNL     1     104.238 126.414  81.294  0.00  0.00    +0.000 C 
ATOM      7  C   UNL     1     104.164 125.735  82.671  0.00  0.00    +0.000 C 
ATOM      8  C   UNL     1     104.979 124.441  82.803  0.00  0.00    +0.000 C 
ATOM      9  C   UNL     1     104.460 123.270  81.971  0.00  0.00    +0.000 C 
ENDBRANCH   1   7
BRANCH   1  10
ATOM     10  C   UNL     1     101.599 125.963  82.187  0.00  0.00    +0.000 C 
BRANCH  10  11
ATOM     11  C   UNL     1     100.787 127.127  82.695  0.00  0.00    +0.000 A 
ATOM     12  C   UNL     1     101.421 128.209  83.322  0.00  0.00    +0.000 A 
ATOM     13  C   UNL     1     100.675 129.285  83.804  0.00  0.00    +0.000 A 
ATOM     14  C   UNL     1      99.289 129.291  83.660  0.00  0.00    +0.000 A 
ATOM     15  C   UNL     1      98.649 128.223  83.035  0.00  0.00    +0.000 A 
ATOM     16  C   UNL     1      99.393 127.146  82.552  0.00  0.00    +0.000 A 
ENDBRANCH  10  11
ENDBRANCH   1  10
TORSDOF 3
ENDMDL
