MODEL 1
REMARK VINA RESULT:      -4.6      0.000      0.000
REMARK  Name = *****
REMARK  6 active torsions:
REMARK  status: ('A' for Active; 'I' for Inactive)
REMARK    1  A    between atoms: C_1  and  C_2
REMARK    2  A    between atoms: C_5  and  C_8
REMARK    3  A    between atoms: C_8  and  C_9
REMARK    4  A    between atoms: C_9  and  C_10
REMARK    5  A    between atoms: C_9  and  O_16
REMARK    6  A    between atoms: O_16  and  C_17
REMARK                            x       y       z     vdW  Elec       q    Type
REMARK                         _______ _______ _______ _____ _____    ______ ____
ROOT
ATOM      1  C   UNL     1      87.980  70.741  85.717  0.00  0.00    +0.000 C 
ENDROOT
BRANCH   1   2
ATOM      2  C   UNL     1      86.682  71.329  86.258  0.00  0.00    +0.000 A 
ATOM      3  C   UNL     1      85.668  71.853  85.446  0.00  0.00    +0.000 A 
ATOM      4  C   UNL     1      84.501  72.381  86.007  0.00  0.00    +0.000 A 
ATOM      5  C   UNL     1      84.328  72.387  87.389  0.00  0.00    +0.000 A 
ATOM      6  C   UNL     1      85.320  71.866  88.213  0.00  0.00    +0.000 A 
ATOM      7  C   UNL     1      86.486  71.342  87.652  0.00  0.00    +0.000 A 
ENDBRANCH   1   2
BRANCH   1   8
ATOM      8  O   UNL     1      88.648  71.703  84.871  0.00  0.00    +0.000 OA
ATOM      9  C   UNL     1      89.982  71.374  84.508  0.00  0.00    +0.000 C 
ENDBRANCH   1   8
BRANCH   1  10
ATOM     10  C   UNL     1      88.974  70.089  86.710  0.00  0.00    +0.000 C 
BRANCH  10  15
ATOM     11  C   UNL     1      88.846  64.261  87.080  0.00  0.00    +0.000 C 
ATOM     12  C   UNL     1      88.889  65.759  87.015  0.00  0.00    +0.000 A 
ATOM     13  C   UNL     1      87.835  66.520  87.528  0.00  0.00    +0.000 A 
ATOM     14  C   UNL     1      87.854  67.916  87.442  0.00  0.00    +0.000 A 
ATOM     15  C   UNL     1      88.932  68.580  86.845  0.00  0.00    +0.000 A 
ATOM     16  C   UNL     1      89.968  67.810  86.298  0.00  0.00    +0.000 A 
ATOM     17  C   UNL     1      89.948  66.415  86.382  0.00  0.00    +0.000 A 
ENDBRANCH  10  15
ENDBRANCH   1  10
TORSDOF 4
ENDMDL
