MODEL 1
REMARK VINA RESULT:      -4.7      0.000      0.000
REMARK  Name = *****
REMARK  2 active torsions:
REMARK  status: ('A' for Active; 'I' for Inactive)
REMARK    1  A    between atoms: C_1  and  C_11
REMARK    2  A    between atoms: C_2  and  C_3
REMARK                            x       y       z     vdW  Elec       q    Type
REMARK                         _______ _______ _______ _____ _____    ______ ____
ROOT
ATOM      1  C   UNL     1     102.379 127.629  82.604  0.00  0.00    +0.000 C 
ATOM      2  C   UNL     1     101.579 128.284  83.214  0.00  0.00    +0.000 C 
ENDROOT
BRANCH   2   3
ATOM      3  C   UNL     1     100.633 129.053  83.932  0.00  0.00    +0.000 C 
ATOM      4  C   UNL     1     100.056 128.677  85.294  0.00  0.00    +0.000 C 
ATOM      5  C   UNL     1      98.650 129.050  84.797  0.00  0.00    +0.000 C 
ATOM      6  C   UNL     1      99.241 129.418  83.426  0.00  0.00    +0.000 C 
ATOM      7  C   UNL     1      99.448 130.863  83.906  0.00  0.00    +0.000 C 
ATOM      8  C   UNL     1      98.862 130.493  85.276  0.00  0.00    +0.000 C 
ATOM      9  C   UNL     1     100.264 130.122  85.777  0.00  0.00    +0.000 C 
ATOM     10  C   UNL     1     100.854 130.488  84.405  0.00  0.00    +0.000 C 
ENDBRANCH   2   3
BRANCH   1  11
ATOM     11  C   UNL     1     103.321 126.853  81.881  0.00  0.00    +0.000 C 
ATOM     12  C   UNL     1     103.276 125.325  81.791  0.00  0.00    +0.000 C 
ATOM     13  C   UNL     1     104.782 125.236  82.082  0.00  0.00    +0.000 C 
ATOM     14  C   UNL     1     104.818 126.836  82.183  0.00  0.00    +0.000 C 
ATOM     15  C   UNL     1     105.129 126.962  80.624  0.00  0.00    +0.000 C 
ATOM     16  C   UNL     1     105.088 125.286  80.520  0.00  0.00    +0.000 C 
ATOM     17  C   UNL     1     103.518 125.379  80.275  0.00  0.00    +0.000 C 
ATOM     18  C   UNL     1     103.554 126.979  80.377  0.00  0.00    +0.000 C 
ENDBRANCH   1  11
TORSDOF 2
ENDMDL
