MODEL 1
REMARK VINA RESULT:      -4.6      0.000      0.000
REMARK  Name = *****
REMARK  5 active torsions:
REMARK  status: ('A' for Active; 'I' for Inactive)
REMARK    1  A    between atoms: C_1  and  C_2
REMARK    2  A    between atoms: C_2  and  O_4
REMARK    3  A    between atoms: O_4  and  C_5
REMARK    4  A    between atoms: C_10  and  C_11
REMARK    5  A    between atoms: C_12  and  C_13
REMARK                            x       y       z     vdW  Elec       q    Type
REMARK                         _______ _______ _______ _____ _____    ______ ____
ROOT
ATOM      1  C   UNL     1     101.560 128.019  83.633  0.00  0.00    +0.000 A 
ATOM      2  C   UNL     1     100.546 128.941  83.908  0.00  0.00    +0.000 A 
ATOM      3  C   UNL     1      99.271 128.729  83.389  0.00  0.00    +0.000 A 
ATOM      4  C   UNL     1      99.013 127.601  82.611  0.00  0.00    +0.000 A 
ATOM      5  C   UNL     1     100.030 126.673  82.356  0.00  0.00    +0.000 A 
ATOM      6  C   UNL     1     101.315 126.860  82.880  0.00  0.00    +0.000 A 
ENDROOT
BRANCH   6   7
ATOM      7  C   UNL     1     102.346 125.857  82.575  0.00  0.00    +0.000 C 
ATOM      8  C   UNL     1     102.886 125.715  81.355  0.00  0.00    +0.000 C 
BRANCH   8   9
ATOM      9  C   UNL     1     103.910 124.716  81.017  0.00  0.00    +0.000 A 
ATOM     10  C   UNL     1     104.729 124.835  79.886  0.00  0.00    +0.000 A 
ATOM     11  C   UNL     1     105.716 123.882  79.618  0.00  0.00    +0.000 A 
ATOM     12  C   UNL     1     105.902 122.807  80.484  0.00  0.00    +0.000 A 
ATOM     13  C   UNL     1     105.106 122.686  81.621  0.00  0.00    +0.000 A 
ATOM     14  C   UNL     1     104.119 123.640  81.889  0.00  0.00    +0.000 A 
ENDBRANCH   8   9
ENDBRANCH   6   7
BRANCH   1  15
ATOM     15  O   UNL     1     102.819 128.265  84.193  0.00  0.00    +0.000 OA
BRANCH  15  17
ATOM     16  C   UNL     1     104.230 129.003  82.468  0.00  0.00    +0.000 C 
ATOM     17  C   UNL     1     103.432 129.400  83.675  0.00  0.00    +0.000 C 
ATOM     18  O   UNL     1     103.370 130.542  84.111  0.00  0.00    +0.000 OA
ENDBRANCH  15  17
ENDBRANCH   1  15
TORSDOF 4
ENDMDL
