MODEL 1
REMARK VINA RESULT:      -4.6      0.000      0.000
REMARK  Name = *****
REMARK  4 active torsions:
REMARK  status: ('A' for Active; 'I' for Inactive)
REMARK    1  A    between atoms: C_1  and  O_2
REMARK    2  A    between atoms: O_2  and  C_3
REMARK    3  A    between atoms: C_6  and  C_9
REMARK    4  A    between atoms: C_10  and  C_11
REMARK                            x       y       z     vdW  Elec       q    Type
REMARK                         _______ _______ _______ _____ _____    ______ ____
ROOT
ATOM      1  C   UNL     1     102.951 126.113  81.694  0.00  0.00    +0.000 C 
ATOM      2  C   UNL     1     101.793 125.988  82.362  0.00  0.00    +0.000 C 
ENDROOT
BRANCH   2   3
ATOM      3  C   UNL     1     100.943 127.125  82.746  0.00  0.00    +0.000 A 
ATOM      4  C   UNL     1      99.556 127.126  82.535  0.00  0.00    +0.000 A 
ATOM      5  C   UNL     1      98.777 128.212  82.943  0.00  0.00    +0.000 A 
ATOM      6  C   UNL     1      99.384 129.293  83.571  0.00  0.00    +0.000 A 
ATOM      7  C   UNL     1     100.753 129.306  83.805  0.00  0.00    +0.000 A 
ATOM      8  C   UNL     1     101.531 128.219  83.398  0.00  0.00    +0.000 A 
ATOM      9  F   UNL     1      98.637 130.333  83.963  0.00  0.00    +0.000 F 
ENDBRANCH   2   3
BRANCH   1  13
ATOM     10  C   UNL     1     105.506 122.805  80.722  0.00  0.00    +0.000 A 
ATOM     11  C   UNL     1     105.295 123.815  79.784  0.00  0.00    +0.000 A 
ATOM     12  C   UNL     1     104.458 124.897  80.088  0.00  0.00    +0.000 A 
ATOM     13  C   UNL     1     103.811 124.978  81.328  0.00  0.00    +0.000 A 
ATOM     14  C   UNL     1     104.042 123.971  82.271  0.00  0.00    +0.000 A 
ATOM     15  C   UNL     1     104.877 122.892  81.966  0.00  0.00    +0.000 A 
BRANCH  10  17
ATOM     16  C   UNL     1     106.585 120.939  81.719  0.00  0.00    +0.000 C 
ATOM     17  O   UNL     1     106.293 121.701  80.555  0.00  0.00    +0.000 OA
ENDBRANCH  10  17
ENDBRANCH   1  13
TORSDOF 3
ENDMDL
