MODEL 1
REMARK VINA RESULT:      -4.8      0.000      0.000
REMARK  Name = *****
REMARK  4 active torsions:
REMARK  status: ('A' for Active; 'I' for Inactive)
REMARK    1  A    between atoms: C_1  and  O_2
REMARK    2  A    between atoms: O_2  and  C_3
REMARK    3  A    between atoms: C_7  and  C_9
REMARK    4  A    between atoms: C_10  and  C_11
REMARK                            x       y       z     vdW  Elec       q    Type
REMARK                         _______ _______ _______ _____ _____    ______ ____
ROOT
ATOM      1  C   UNL     1      90.239  67.566  86.288  0.00  0.00    +0.000 C 
ATOM      2  C   UNL     1      89.668  68.549  85.570  0.00  0.00    +0.000 C 
ENDROOT
BRANCH   2   3
ATOM      3  C   UNL     1      89.676  69.964  85.930  0.00  0.00    +0.000 C 
ATOM      4  C   UNL     1      89.256  70.473  87.288  0.00  0.00    +0.000 C 
ATOM      5  C   UNL     1      88.415  70.788  86.059  0.00  0.00    +0.000 C 
ATOM      6  C   UNL     1      87.003  70.350  86.478  0.00  0.00    +0.000 C 
ATOM      7  C   UNL     1      87.240  69.127  87.378  0.00  0.00    +0.000 C 
ATOM      8  C   UNL     1      88.233  69.883  88.273  0.00  0.00    +0.000 C 
ATOM      9  C   UNL     1      87.274  71.001  88.677  0.00  0.00    +0.000 C 
ATOM     10  C   UNL     1      86.530  71.283  87.589  0.00  0.00    +0.000 C 
ENDBRANCH   2   3
BRANCH   1  15
ATOM     11  C   UNL     1      89.191  63.953  85.795  0.00  0.00    +0.000 A 
ATOM     12  C   UNL     1      90.352  63.437  85.218  0.00  0.00    +0.000 A 
ATOM     13  C   UNL     1      91.457  64.256  84.992  0.00  0.00    +0.000 A 
ATOM     14  C   UNL     1      91.402  65.606  85.340  0.00  0.00    +0.000 A 
ATOM     15  C   UNL     1      90.241  66.147  85.905  0.00  0.00    +0.000 A 
ATOM     16  C   UNL     1      89.141  65.306  86.143  0.00  0.00    +0.000 A 
BRANCH  11  18
ATOM     17  C   UNL     1      87.373  63.191  87.125  0.00  0.00    +0.000 C 
ATOM     18  O   UNL     1      88.187  63.039  85.970  0.00  0.00    +0.000 OA
ENDBRANCH  11  18
ENDBRANCH   1  15
TORSDOF 3
ENDMDL
