MODEL 1
REMARK VINA RESULT:      -5.1      0.000      0.000
REMARK  Name = *****
REMARK  6 active torsions:
REMARK  status: ('A' for Active; 'I' for Inactive)
REMARK    1  A    between atoms: C_1  and  C_2
REMARK    2  A    between atoms: C_4  and  C_10
REMARK    3  A    between atoms: C_6  and  C_9
REMARK    4  A    between atoms: C_7  and  O_8
REMARK    5  A    between atoms: C_10  and  C_11
REMARK    6  A    between atoms: C_11  and  C_12
REMARK                            x       y       z     vdW  Elec       q    Type
REMARK                         _______ _______ _______ _____ _____    ______ ____
ROOT
ATOM      1  C   UNL     1      87.304  64.960  87.739  0.00  0.00    +0.000 C 
ATOM      2  C   UNL     1      88.426  65.664  87.030  0.00  0.00    +0.000 A 
ATOM      3  C   UNL     1      88.462  67.065  86.989  0.00  0.00    +0.000 A 
ATOM      4  C   UNL     1      89.495  67.736  86.324  0.00  0.00    +0.000 A 
ATOM      5  C   UNL     1      90.507  66.988  85.704  0.00  0.00    +0.000 A 
ATOM      6  C   UNL     1      90.494  65.585  85.729  0.00  0.00    +0.000 A 
ATOM      7  C   UNL     1      89.443  64.938  86.395  0.00  0.00    +0.000 A 
ATOM      8  C   UNL     1      91.600  64.833  85.046  0.00  0.00    +0.000 C 
ENDROOT
BRANCH   7   9
ATOM      9  O   UNL     1      89.361  63.573  86.458  0.00  0.00    +0.000 OA
ATOM     10  H   UNL     1      88.938  63.096  85.771  0.00  0.00    +0.000 HD
ENDBRANCH   7   9
BRANCH   4  11
ATOM     11  C   UNL     1      89.540  69.243  86.302  0.00  0.00    +0.000 C 
BRANCH  11  12
ATOM     12  C   UNL     1      89.023  69.843  87.612  0.00  0.00    +0.000 C 
BRANCH  12  13
ATOM     13  C   UNL     1      87.725  70.590  87.409  0.00  0.00    +0.000 A 
ATOM     14  C   UNL     1      87.302  70.939  86.119  0.00  0.00    +0.000 A 
ATOM     15  C   UNL     1      86.112  71.647  85.936  0.00  0.00    +0.000 A 
ATOM     16  C   UNL     1      85.352  72.007  87.042  0.00  0.00    +0.000 A 
ATOM     17  C   UNL     1      85.758  71.675  88.328  0.00  0.00    +0.000 A 
ATOM     18  C   UNL     1      86.946  70.967  88.514  0.00  0.00    +0.000 A 
ATOM     19  F   UNL     1      84.211  72.687  86.865  0.00  0.00    +0.000 F 
ENDBRANCH  12  13
ENDBRANCH  11  12
ENDBRANCH   4  11
TORSDOF 4
ENDMDL
