MODEL 1
REMARK VINA RESULT:      -5.1      0.000      0.000
REMARK  Name = *****
REMARK  3 active torsions:
REMARK  status: ('A' for Active; 'I' for Inactive)
REMARK    1  A    between atoms: C_1  and  C_2
REMARK    2  A    between atoms: C_4  and  N_8
REMARK    3  A    between atoms: C_9  and  C_11
REMARK                            x       y       z     vdW  Elec       q    Type
REMARK                         _______ _______ _______ _____ _____    ______ ____
ROOT
ATOM      1  N   UNL     1     101.761 126.038  82.354  0.00  0.00    +0.000 N 
ATOM      2  C   UNL     1     102.911 126.203  81.604  0.00  0.00    +0.000 C 
ATOM      3  O   UNL     1     103.294 127.252  81.097  0.00  0.00    +0.000 OA
ATOM      4  H   UNL     1     101.592 125.129  82.692  0.00  0.00    +0.000 HD
ENDROOT
BRANCH   2   5
ATOM      5  C   UNL     1     103.756 124.985  81.399  0.00  0.00    +0.000 A 
ATOM      6  C   UNL     1     104.004 124.041  82.402  0.00  0.00    +0.000 A 
ATOM      7  C   UNL     1     104.798 122.922  82.167  0.00  0.00    +0.000 A 
ATOM      8  C   UNL     1     105.354 122.741  80.908  0.00  0.00    +0.000 A 
ATOM      9  C   UNL     1     105.130 123.657  79.888  0.00  0.00    +0.000 A 
ATOM     10  C   UNL     1     104.332 124.778  80.132  0.00  0.00    +0.000 A 
ATOM     11  F   UNL     1     106.119 121.667  80.675  0.00  0.00    +0.000 F 
ATOM     12  F   UNL     1     103.480 124.187  83.630  0.00  0.00    +0.000 F 
ENDBRANCH   2   5
BRANCH   1  16
ATOM     13  C   UNL     1     100.423 130.426  84.347  0.00  0.00    +0.000 C 
ATOM     14  C   UNL     1     100.082 129.132  83.668  0.00  0.00    +0.000 A 
ATOM     15  C   UNL     1     101.096 128.210  83.355  0.00  0.00    +0.000 A 
ATOM     16  C   UNL     1     100.801 127.016  82.695  0.00  0.00    +0.000 A 
ATOM     17  C   UNL     1      99.473 126.753  82.335  0.00  0.00    +0.000 A 
ATOM     18  C   UNL     1      98.461 127.669  82.627  0.00  0.00    +0.000 A 
ATOM     19  C   UNL     1      98.765 128.857  83.286  0.00  0.00    +0.000 A 
ENDBRANCH   1  16
TORSDOF 2
ENDMDL
