MODEL 1
REMARK VINA RESULT:      -4.2      0.000      0.000
REMARK  Name = *****
REMARK  5 active torsions:
REMARK  status: ('A' for Active; 'I' for Inactive)
REMARK    1  A    between atoms: C_1  and  C_2
REMARK    2  A    between atoms: C_4  and  O_8
REMARK    3  A    between atoms: O_8  and  C_9
REMARK    4  A    between atoms: C_9  and  C_11
REMARK    5  A    between atoms: C_11  and  C_12
REMARK                            x       y       z     vdW  Elec       q    Type
REMARK                         _______ _______ _______ _____ _____    ______ ____
ROOT
ATOM      1  O   UNL     1     102.909 127.325  82.976  0.00  0.00    +0.000 OA
ENDROOT
BRANCH   1   5
ATOM      2  C   UNL     1      99.182 130.361  84.139  0.00  0.00    +0.000 C 
ATOM      3  C   UNL     1      99.707 129.093  83.533  0.00  0.00    +0.000 A 
ATOM      4  C   UNL     1     101.082 128.827  83.517  0.00  0.00    +0.000 A 
ATOM      5  C   UNL     1     101.546 127.637  82.957  0.00  0.00    +0.000 A 
ATOM      6  C   UNL     1     100.666 126.679  82.458  0.00  0.00    +0.000 A 
ATOM      7  C   UNL     1      99.297 126.935  82.487  0.00  0.00    +0.000 A 
ATOM      8  C   UNL     1      98.820 128.134  83.023  0.00  0.00    +0.000 A 
ENDBRANCH   1   5
BRANCH   1   9
ATOM      9  C   UNL     1     103.713 128.156  82.199  0.00  0.00    +0.000 C 
ATOM     10  O   UNL     1     104.387 129.101  82.591  0.00  0.00    +0.000 OA
BRANCH   9  11
ATOM     11  C   UNL     1     103.643 127.706  80.759  0.00  0.00    +0.000 C 
BRANCH  11  12
ATOM     12  C   UNL     1     104.291 126.366  80.616  0.00  0.00    +0.000 A 
ATOM     13  C   UNL     1     103.687 125.141  80.409  0.00  0.00    +0.000 A 
ATOM     14  C   UNL     1     104.633 124.079  80.321  0.00  0.00    +0.000 A 
ATOM     15  C   UNL     1     105.927 124.527  80.468  0.00  0.00    +0.000 A 
ATOM     16  S   UNL     1     105.996 126.217  80.712  0.00  0.00    +0.000 S 
ENDBRANCH  11  12
ENDBRANCH   9  11
ENDBRANCH   1   9
TORSDOF 4
ENDMDL
