REMARK  Name = *****
REMARK  5 active torsions:
REMARK  status: ('A' for Active; 'I' for Inactive)
REMARK    1  A    between atoms: C_1  and  O_2
REMARK    2  A    between atoms: O_2  and  C_3
REMARK    3  A    between atoms: C_3  and  C_4
REMARK    4  A    between atoms: C_3  and  C_11
REMARK    5  A    between atoms: C_4  and  C_5
REMARK                            x       y       z     vdW  Elec       q    Type
REMARK                         _______ _______ _______ _____ _____    ______ ____
ROOT
ATOM      1  C   UNL     1       2.827   0.093  -1.372  0.00  0.00    +0.000 C 
ENDROOT
BRANCH   1   2
ATOM      2  C   UNL     1       4.334  -0.090  -1.497  0.00  0.00    +0.000 A 
ATOM      3  C   UNL     1       5.220   0.407  -0.527  0.00  0.00    +0.000 A 
ATOM      4  C   UNL     1       6.601   0.251  -0.672  0.00  0.00    +0.000 A 
ATOM      5  C   UNL     1       7.108  -0.403  -1.791  0.00  0.00    +0.000 A 
ATOM      6  C   UNL     1       6.248  -0.901  -2.766  0.00  0.00    +0.000 A 
ATOM      7  C   UNL     1       4.867  -0.745  -2.620  0.00  0.00    +0.000 A 
ATOM      8 CL   UNL     1       8.809  -0.594  -1.974  0.00  0.00    +0.000 Cl
ENDBRANCH   1   2
BRANCH   1  10
ATOM      9  C   UNL     1       1.158  -0.229   0.302  0.00  0.00    +0.000 C 
ATOM     10  O   UNL     1       2.460   0.252   0.006  0.00  0.00    +0.000 OA
ENDBRANCH   1  10
BRANCH   1  11
ATOM     11  C   UNL     1       2.297   1.255  -2.250  0.00  0.00    +0.000 C 
BRANCH  11  12
ATOM     12  C   UNL     1       2.885   2.629  -1.977  0.00  0.00    +0.000 C 
ATOM     13  C   UNL     1       3.688   3.241  -2.868  0.00  0.00    +0.000 C 
ATOM     14  C   UNL     1       4.314   4.588  -2.646  0.00  0.00    +0.000 C 
ATOM     15  C   UNL     1       4.198   5.077  -1.202  0.00  0.00    +0.000 C 
ATOM     16  C   UNL     1       2.812   4.791  -0.638  0.00  0.00    +0.000 C 
ATOM     17  C   UNL     1       2.503   3.292  -0.673  0.00  0.00    +0.000 C 
ENDBRANCH  11  12
ENDBRANCH   1  11
TORSDOF 4
