MODEL 1
REMARK VINA RESULT:      -4.8      0.000      0.000
REMARK  Name = *****
REMARK  6 active torsions:
REMARK  status: ('A' for Active; 'I' for Inactive)
REMARK    1  A    between atoms: C_1  and  C_2
REMARK    2  A    between atoms: C_4  and  C_18
REMARK    3  A    between atoms: C_5  and  C_9
REMARK    4  A    between atoms: C_6  and  C_8
REMARK    5  A    between atoms: C_9  and  C_11
REMARK    6  A    between atoms: C_11  and  C_12
REMARK                            x       y       z     vdW  Elec       q    Type
REMARK                         _______ _______ _______ _____ _____    ______ ____
ROOT
ATOM      1  C   UNL     1      89.380  70.573  87.225  0.00  0.00    +0.000 C 
ATOM      2  C   UNL     1      89.076  69.116  87.037  0.00  0.00    +0.000 A 
ATOM      3  C   UNL     1      90.008  68.273  86.418  0.00  0.00    +0.000 A 
ATOM      4  C   UNL     1      89.754  66.902  86.266  0.00  0.00    +0.000 A 
ATOM      5  C   UNL     1      88.532  66.385  86.739  0.00  0.00    +0.000 A 
ATOM      6  C   UNL     1      87.601  67.204  87.406  0.00  0.00    +0.000 A 
ATOM      7  C   UNL     1      87.887  68.572  87.538  0.00  0.00    +0.000 A 
ATOM      8  C   UNL     1      86.300  66.672  87.942  0.00  0.00    +0.000 C 
ATOM      9  C   UNL     1      90.782  66.032  85.598  0.00  0.00    +0.000 C 
ENDROOT
BRANCH   5  10
ATOM     10  C   UNL     1      88.227  64.950  86.538  0.00  0.00    +0.000 C 
ATOM     11  O   UNL     1      87.492  64.616  85.613  0.00  0.00    +0.000 OA
BRANCH  10  12
ATOM     12  C   UNL     1      88.852  63.972  87.513  0.00  0.00    +0.000 C 
BRANCH  12  13
ATOM     13  C   UNL     1      87.905  63.526  88.598  0.00  0.00    +0.000 A 
ATOM     14  C   UNL     1      87.924  64.140  89.858  0.00  0.00    +0.000 A 
ATOM     15  C   UNL     1      87.048  63.723  90.862  0.00  0.00    +0.000 A 
ATOM     16  C   UNL     1      86.145  62.692  90.616  0.00  0.00    +0.000 A 
ATOM     17  C   UNL     1      86.115  62.076  89.368  0.00  0.00    +0.000 A 
ATOM     18  C   UNL     1      86.989  62.491  88.362  0.00  0.00    +0.000 A 
ENDBRANCH  12  13
ENDBRANCH  10  12
ENDBRANCH   5  10
TORSDOF 3
ENDMDL
