MODEL 1
REMARK VINA RESULT:      -4.5      0.000      0.000
REMARK  Name = *****
REMARK  7 active torsions:
REMARK  status: ('A' for Active; 'I' for Inactive)
REMARK    1  A    between atoms: C_1  and  C_2
REMARK    2  A    between atoms: C_4  and  C_19
REMARK    3  A    between atoms: C_5  and  N_9
REMARK    4  A    between atoms: C_6  and  C_8
REMARK    5  A    between atoms: C_10  and  C_11
REMARK    6  A    between atoms: C_10  and  O_17
REMARK    7  A    between atoms: O_17  and  C_18
REMARK                            x       y       z     vdW  Elec       q    Type
REMARK                         _______ _______ _______ _____ _____    ______ ____
ROOT
ATOM      1  N   UNL     1      88.385  68.423  87.219  0.00  0.00    +0.000 NA
ATOM      2  C   UNL     1      89.388  68.426  86.398  0.00  0.00    +0.000 C 
ENDROOT
BRANCH   1   7
ATOM      3  C   UNL     1      84.311  72.437  86.896  0.00  0.00    +0.000 C 
ATOM      4  C   UNL     1      85.388  71.395  86.974  0.00  0.00    +0.000 A 
ATOM      5  C   UNL     1      85.334  70.255  86.168  0.00  0.00    +0.000 A 
ATOM      6  C   UNL     1      86.327  69.266  86.253  0.00  0.00    +0.000 A 
ATOM      7  C   UNL     1      87.399  69.423  87.156  0.00  0.00    +0.000 A 
ATOM      8  C   UNL     1      87.414  70.529  88.027  0.00  0.00    +0.000 A 
ATOM      9  C   UNL     1      86.419  71.516  87.909  0.00  0.00    +0.000 A 
ATOM     10  C   UNL     1      88.483  70.709  89.069  0.00  0.00    +0.000 C 
ATOM     11  C   UNL     1      86.225  68.035  85.393  0.00  0.00    +0.000 C 
ENDBRANCH   1   7
BRANCH   2  12
ATOM     12  C   UNL     1      89.718  69.340  85.282  0.00  0.00    +0.000 A 
ATOM     13  C   UNL     1      89.658  68.863  83.966  0.00  0.00    +0.000 A 
ATOM     14  C   UNL     1      89.969  69.709  82.900  0.00  0.00    +0.000 A 
ATOM     15  C   UNL     1      90.334  71.032  83.146  0.00  0.00    +0.000 A 
ATOM     16  C   UNL     1      90.384  71.513  84.455  0.00  0.00    +0.000 A 
ATOM     17  C   UNL     1      90.072  70.670  85.524  0.00  0.00    +0.000 A 
ENDBRANCH   2  12
BRANCH   2  18
ATOM     18  O   UNL     1      90.367  67.483  86.449  0.00  0.00    +0.000 OA
ATOM     19  C   UNL     1      89.930  66.121  86.380  0.00  0.00    +0.000 C 
ENDBRANCH   2  18
TORSDOF 3
ENDMDL
