REMARK  Name = *****
REMARK  2 active torsions:
REMARK  status: ('A' for Active; 'I' for Inactive)
REMARK    1  A    between atoms: C_4  and  C_7
REMARK    2  A    between atoms: C_8  and  C_9
REMARK                            x       y       z     vdW  Elec       q    Type
REMARK                         _______ _______ _______ _____ _____    ______ ____
ROOT
ATOM      1  C   UNL     1       2.797  -0.701  -0.257  0.00  0.00    +0.000 C 
ATOM      2  C   UNL     1       3.851  -0.938   0.541  0.00  0.00    +0.000 C 
ENDROOT
BRANCH   1   6
ATOM      3  C   UNL     1      -1.413   0.364  -0.234  0.00  0.00    +0.000 C 
ATOM      4  C   UNL     1      -1.017  -1.028   0.248  0.00  0.00    +0.000 C 
ATOM      5  C   UNL     1       0.397  -1.397  -0.196  0.00  0.00    +0.000 C 
ATOM      6  C   UNL     1       1.422  -0.343   0.249  0.00  0.00    +0.000 C 
ATOM      7  C   UNL     1       1.017   1.054  -0.245  0.00  0.00    +0.000 C 
ATOM      8  C   UNL     1      -0.398   1.418   0.199  0.00  0.00    +0.000 C 
ENDBRANCH   1   6
BRANCH   2   9
ATOM      9  C   UNL     1       5.184  -1.286   0.086  0.00  0.00    +0.000 C 
ATOM     10  C   UNL     1       6.191  -1.497   0.948  0.00  0.00    +0.000 C 
ATOM     11  C   UNL     1       7.586  -1.800   0.501  0.00  0.00    +0.000 C 
ATOM     12  C   UNL     1       7.750  -1.563  -0.994  0.00  0.00    +0.000 C 
ATOM     13  C   UNL     1       6.510  -2.056  -1.722  0.00  0.00    +0.000 C 
ATOM     14  O   UNL     1       5.330  -1.375  -1.285  0.00  0.00    +0.000 OA
ENDBRANCH   2   9
TORSDOF 2
