MODEL 1
REMARK VINA RESULT:      -4.2      0.000      0.000
REMARK  Name = *****
REMARK  4 active torsions:
REMARK  status: ('A' for Active; 'I' for Inactive)
REMARK    1  A    between atoms: C_1  and  N_2
REMARK    2  A    between atoms: N_2  and  C_3
REMARK    3  A    between atoms: N_2  and  S_9
REMARK    4  A    between atoms: S_9  and  C_10
REMARK                            x       y       z     vdW  Elec       q    Type
REMARK                         _______ _______ _______ _____ _____    ______ ____
ROOT
ATOM      1  C   UNL     1      88.283  71.283  84.432  0.00  0.00    +0.000 C 
ATOM      2  N   UNL     1      87.856  70.863  85.767  0.00  0.00    +0.000 N 
ENDROOT
BRANCH   2   3
ATOM      3  C   UNL     1      86.632  71.369  86.275  0.00  0.00    +0.000 A 
ATOM      4  C   UNL     1      85.643  71.892  85.416  0.00  0.00    +0.000 A 
ATOM      5  C   UNL     1      84.437  72.415  85.899  0.00  0.00    +0.000 A 
ATOM      6  C   UNL     1      84.185  72.438  87.264  0.00  0.00    +0.000 A 
ATOM      7  C   UNL     1      85.142  71.942  88.141  0.00  0.00    +0.000 A 
ATOM      8  C   UNL     1      86.346  71.420  87.652  0.00  0.00    +0.000 A 
ENDBRANCH   2   3
BRANCH   2   9
ATOM      9  S   UNL     1      89.098  70.463  86.835  0.00  0.00    +0.000 S 
BRANCH   9  10
ATOM     10  C   UNL     1      88.926  68.683  86.903  0.00  0.00    +0.000 A 
ATOM     11  C   UNL     1      87.838  68.060  87.528  0.00  0.00    +0.000 A 
ATOM     12  C   UNL     1      87.747  66.666  87.572  0.00  0.00    +0.000 A 
ATOM     13  C   UNL     1      88.748  65.891  86.993  0.00  0.00    +0.000 A 
ATOM     14  C   UNL     1      89.841  66.495  86.375  0.00  0.00    +0.000 A 
ATOM     15  C   UNL     1      89.928  67.889  86.333  0.00  0.00    +0.000 A 
ATOM     16 BR   UNL     1      88.627  64.005  87.051  0.00  0.00    +0.000 Br
ENDBRANCH   9  10
ENDBRANCH   2   9
TORSDOF 3
ENDMDL
