MODEL 1
REMARK VINA RESULT:      -4.3      0.000      0.000
REMARK  Name = *****
REMARK  3 active torsions:
REMARK  status: ('A' for Active; 'I' for Inactive)
REMARK    1  A    between atoms: C_2  and  C_3
REMARK    2  A    between atoms: C_2  and  S_9
REMARK    3  A    between atoms: S_9  and  C_10
REMARK                            x       y       z     vdW  Elec       q    Type
REMARK                         _______ _______ _______ _____ _____    ______ ____
ROOT
ATOM      1  C   UNL     1      87.856  70.518  84.460  0.00  0.00    +0.000 C 
ATOM      2  C   UNL     1      87.780  70.737  85.779  0.00  0.00    +0.000 C 
ENDROOT
BRANCH   2   3
ATOM      3  C   UNL     1      86.573  71.326  86.380  0.00  0.00    +0.000 A 
ATOM      4  C   UNL     1      86.416  71.351  87.773  0.00  0.00    +0.000 A 
ATOM      5  C   UNL     1      85.270  71.905  88.348  0.00  0.00    +0.000 A 
ATOM      6  C   UNL     1      84.269  72.433  87.536  0.00  0.00    +0.000 A 
ATOM      7  C   UNL     1      84.411  72.411  86.149  0.00  0.00    +0.000 A 
ATOM      8  C   UNL     1      85.558  71.859  85.573  0.00  0.00    +0.000 A 
ENDBRANCH   2   3
BRANCH   2   9
ATOM      9  S   UNL     1      89.118  70.402  86.833  0.00  0.00    +0.000 S 
BRANCH   9  10
ATOM     10  C   UNL     1      89.015  68.621  86.853  0.00  0.00    +0.000 A 
ATOM     11  C   UNL     1      90.042  67.848  86.300  0.00  0.00    +0.000 A 
ATOM     12  C   UNL     1      89.964  66.454  86.322  0.00  0.00    +0.000 A 
ATOM     13  C   UNL     1      88.860  65.827  86.901  0.00  0.00    +0.000 A 
ATOM     14  C   UNL     1      87.838  66.591  87.460  0.00  0.00    +0.000 A 
ATOM     15  C   UNL     1      87.916  67.984  87.439  0.00  0.00    +0.000 A 
ENDBRANCH   9  10
ENDBRANCH   2   9
TORSDOF 3
ENDMDL
