REMARK  Name = *****
REMARK  4 active torsions:
REMARK  status: ('A' for Active; 'I' for Inactive)
REMARK    1  A    between atoms: C_1  and  O_2
REMARK    2  A    between atoms: O_2  and  C_3
REMARK    3  A    between atoms: C_3  and  C_11
REMARK    4  A    between atoms: N_4  and  C_5
REMARK                            x       y       z     vdW  Elec       q    Type
REMARK                         _______ _______ _______ _____ _____    ______ ____
ROOT
ATOM      1  C   UNL     1       3.283  -1.411   0.130  0.00  0.00    +0.000 C 
ATOM      2  N   UNL     1       2.576  -2.193  -0.625  0.00  0.00    +0.000 NA
ENDROOT
BRANCH   2   3
ATOM      3  C   UNL     1       1.183  -2.253  -0.512  0.00  0.00    +0.000 A 
ATOM      4  C   UNL     1       0.390  -1.892  -1.605  0.00  0.00    +0.000 A 
ATOM      5  C   UNL     1      -1.002  -1.971  -1.530  0.00  0.00    +0.000 A 
ATOM      6  C   UNL     1      -1.611  -2.429  -0.363  0.00  0.00    +0.000 A 
ATOM      7  C   UNL     1      -0.829  -2.817   0.724  0.00  0.00    +0.000 A 
ATOM      8  C   UNL     1       0.563  -2.736   0.645  0.00  0.00    +0.000 A 
ENDBRANCH   2   3
BRANCH   1   9
ATOM      9  C   UNL     1       4.772  -1.440   0.135  0.00  0.00    +0.000 A 
ATOM     10  C   UNL     1       5.527  -0.700   1.055  0.00  0.00    +0.000 A 
ATOM     11  C   UNL     1       6.923  -0.752   1.026  0.00  0.00    +0.000 A 
ATOM     12  C   UNL     1       7.574  -1.543   0.079  0.00  0.00    +0.000 A 
ATOM     13  C   UNL     1       6.831  -2.285  -0.838  0.00  0.00    +0.000 A 
ATOM     14  C   UNL     1       5.436  -2.235  -0.811  0.00  0.00    +0.000 A 
ENDBRANCH   1   9
BRANCH   1  16
ATOM     15  C   UNL     1       1.924   0.499   0.511  0.00  0.00    +0.000 C 
ATOM     16  O   UNL     1       2.818  -0.498   1.020  0.00  0.00    +0.000 OA
ENDBRANCH   1  16
TORSDOF 3
