REMARK  Name = *****
REMARK  2 active torsions:
REMARK  status: ('A' for Active; 'I' for Inactive)
REMARK    1  A    between atoms: C_6  and  C_7
REMARK    2  A    between atoms: C_8  and  C_9
REMARK                            x       y       z     vdW  Elec       q    Type
REMARK                         _______ _______ _______ _____ _____    ______ ____
ROOT
ATOM      1  C   UNL     1       5.634   1.001  -0.031  0.00  0.00    +0.000 A 
ATOM      2  C   UNL     1       6.332   2.069  -0.612  0.00  0.00    +0.000 A 
ATOM      3  C   UNL     1       7.726   2.105  -0.632  0.00  0.00    +0.000 A 
ATOM      4  C   UNL     1       8.463   1.076  -0.059  0.00  0.00    +0.000 A 
ATOM      5  C   UNL     1       7.790   0.016   0.538  0.00  0.00    +0.000 A 
ATOM      6  C   UNL     1       6.395  -0.018   0.557  0.00  0.00    +0.000 A 
ATOM      7  F   UNL     1       5.795  -1.050   1.171  0.00  0.00    +0.000 F 
ATOM      8  F   UNL     1       8.473  -0.987   1.111  0.00  0.00    +0.000 F 
ATOM      9 BR   UNL     1      10.353   1.121  -0.082  0.00  0.00    +0.000 Br
ATOM     10  F   UNL     1       8.343   3.148  -1.208  0.00  0.00    +0.000 F 
ATOM     11  F   UNL     1       5.655   3.086  -1.170  0.00  0.00    +0.000 F 
ENDROOT
BRANCH   1  13
ATOM     12  C   UNL     1       3.357  -0.039  -0.001  0.00  0.00    +0.000 C 
ATOM     13  C   UNL     1       4.158   1.039  -0.021  0.00  0.00    +0.000 C 
BRANCH  12  19
ATOM     14  C   UNL     1       1.181   1.013   0.687  0.00  0.00    +0.000 A 
ATOM     15  C   UNL     1      -0.215   1.018   0.663  0.00  0.00    +0.000 A 
ATOM     16  N   UNL     1      -0.929   0.062  -0.035  0.00  0.00    +0.000 N 
ATOM     17  C   UNL     1      -0.225  -0.914  -0.715  0.00  0.00    +0.000 A 
ATOM     18  C   UNL     1       1.171  -0.944  -0.709  0.00  0.00    +0.000 A 
ATOM     19  C   UNL     1       1.889   0.034  -0.015  0.00  0.00    +0.000 A 
ATOM     20  O   UNL     1      -2.195   0.078  -0.048  0.00  0.00    +0.000 OA
ENDBRANCH  12  19
ENDBRANCH   1  13
TORSDOF 2
