MODEL 1
REMARK VINA RESULT:      -4.4      0.000      0.000
REMARK  Name = *****
REMARK  3 active torsions:
REMARK  status: ('A' for Active; 'I' for Inactive)
REMARK    1  A    between atoms: C_3  and  C_7
REMARK    2  A    between atoms: C_7  and  C_8
REMARK    3  A    between atoms: C_9  and  C_10
REMARK                            x       y       z     vdW  Elec       q    Type
REMARK                         _______ _______ _______ _____ _____    ______ ____
ROOT
ATOM      1  C   UNL     1      87.033  71.442  85.796  0.00  0.00    +0.000 C 
ATOM      2  C   UNL     1      85.735  71.757  85.655  0.00  0.00    +0.000 C 
ENDROOT
BRANCH   2   3
ATOM      3  C   UNL     1      84.854  72.159  86.760  0.00  0.00    +0.000 A 
ATOM      4  C   UNL     1      85.210  71.987  88.104  0.00  0.00    +0.000 A 
ATOM      5  C   UNL     1      84.357  72.412  89.127  0.00  0.00    +0.000 A 
ATOM      6  C   UNL     1      83.145  73.023  88.816  0.00  0.00    +0.000 A 
ATOM      7  C   UNL     1      82.787  73.216  87.483  0.00  0.00    +0.000 A 
ATOM      8  C   UNL     1      83.639  72.791  86.462  0.00  0.00    +0.000 A 
ENDBRANCH   2   3
BRANCH   1   9
ATOM      9  C   UNL     1      87.919  71.033  84.650  0.00  0.00    +0.000 C 
BRANCH   9  12
ATOM     10  C   UNL     1      89.894  68.595  84.359  0.00  0.00    +0.000 C 
ATOM     11  C   UNL     1      90.261  70.067  84.141  0.00  0.00    +0.000 C 
ATOM     12  C   UNL     1      89.422  71.022  85.011  0.00  0.00    +0.000 C 
ATOM     13  C   UNL     1      89.621  70.657  86.499  0.00  0.00    +0.000 C 
ATOM     14  C   UNL     1      89.568  69.180  86.770  0.00  0.00    +0.000 C 
ATOM     15  C   UNL     1      89.676  68.254  85.805  0.00  0.00    +0.000 C 
ENDBRANCH   9  12
ENDBRANCH   1   9
TORSDOF 3
ENDMDL
