REMARK  Name = *****
REMARK  4 active torsions:
REMARK  status: ('A' for Active; 'I' for Inactive)
REMARK    1  A    between atoms: C_1  and  C_2
REMARK    2  A    between atoms: C_4  and  C_10
REMARK    3  A    between atoms: C_7  and  O_8
REMARK    4  A    between atoms: C_11  and  C_12
REMARK                            x       y       z     vdW  Elec       q    Type
REMARK                         _______ _______ _______ _____ _____    ______ ____
ROOT
ATOM      1  C   UNL     1       1.015   0.079   0.030  0.00  0.00    +0.000 C 
ATOM      2  C   UNL     1       2.514   0.090  -0.021  0.00  0.00    +0.000 A 
ATOM      3  C   UNL     1       3.242  -1.110   0.054  0.00  0.00    +0.000 A 
ATOM      4  C   UNL     1       4.648  -1.116   0.009  0.00  0.00    +0.000 A 
ATOM      5  C   UNL     1       5.331   0.101  -0.080  0.00  0.00    +0.000 A 
ATOM      6  C   UNL     1       4.613   1.289  -0.150  0.00  0.00    +0.000 A 
ATOM      7  C   UNL     1       3.220   1.289  -0.122  0.00  0.00    +0.000 A 
ATOM      8  F   UNL     1       5.267   2.456  -0.242  0.00  0.00    +0.000 F 
ENDROOT
BRANCH   7   9
ATOM      9  O   UNL     1       2.536   2.472  -0.188  0.00  0.00    +0.000 OA
ATOM     10  H   UNL     1       1.599   2.474  -0.169  0.00  0.00    +0.000 HD
ENDBRANCH   7   9
BRANCH   4  11
ATOM     11  C   UNL     1       5.427  -2.360   0.113  0.00  0.00    +0.000 C 
ATOM     12  C   UNL     1       5.089  -3.497  -0.516  0.00  0.00    +0.000 C 
BRANCH  12  13
ATOM     13  C   UNL     1       5.860  -4.694  -0.408  0.00  0.00    +0.000 A 
ATOM     14  C   UNL     1       7.027  -4.973   0.286  0.00  0.00    +0.000 A 
ATOM     15  C   UNL     1       7.475  -6.317   0.125  0.00  0.00    +0.000 A 
ATOM     16  C   UNL     1       6.638  -7.041  -0.690  0.00  0.00    +0.000 A 
ATOM     17  S   UNL     1       5.329  -6.105  -1.254  0.00  0.00    +0.000 S 
ENDBRANCH  12  13
ENDBRANCH   4  11
TORSDOF 3
