MODEL 1
REMARK VINA RESULT:      -4.2      0.000      0.000
REMARK  Name = *****
REMARK  1 active torsions:
REMARK  status: ('A' for Active; 'I' for Inactive)
REMARK    1  A    between atoms: C_4  and  C_7
REMARK                            x       y       z     vdW  Elec       q    Type
REMARK                         _______ _______ _______ _____ _____    ______ ____
ROOT
ATOM      1  C   UNL     1     103.019 125.828  82.098  0.00  0.00    +0.000 C 
ATOM      2  C   UNL     1     103.331 125.826  80.792  0.00  0.00    +0.000 C 
ATOM      3  S   UNL     1     104.587 124.926  80.017  0.00  0.00    +0.000 S 
ATOM      4  C   UNL     1     104.619 123.518  81.064  0.00  0.00    +0.000 A 
ATOM      5  C   UNL     1     105.006 122.271  80.625  0.00  0.00    +0.000 A 
ATOM      6  S   UNL     1     104.957 121.105  81.879  0.00  0.00    +0.000 S 
ATOM      7  C   UNL     1     104.439 122.275  83.016  0.00  0.00    +0.000 A 
ATOM      8  C   UNL     1     104.290 123.520  82.445  0.00  0.00    +0.000 A 
ATOM      9  S   UNL     1     103.793 124.932  83.362  0.00  0.00    +0.000 S 
ENDROOT
BRANCH   1  13
ATOM     10  C   UNL     1      99.842 128.386  83.376  0.00  0.00    +0.000 A 
ATOM     11  C   UNL     1      99.554 127.195  82.712  0.00  0.00    +0.000 A 
ATOM     12  C   UNL     1     100.591 126.356  82.300  0.00  0.00    +0.000 A 
ATOM     13  C   UNL     1     101.926 126.702  82.555  0.00  0.00    +0.000 A 
ATOM     14  C   UNL     1     102.206 127.904  83.220  0.00  0.00    +0.000 A 
ATOM     15  C   UNL     1     101.166 128.741  83.630  0.00  0.00    +0.000 A 
ENDBRANCH   1  13
TORSDOF 1
ENDMDL
