REMARK  Name = *****
REMARK  4 active torsions:
REMARK  status: ('A' for Active; 'I' for Inactive)
REMARK    1  A    between atoms: C_4  and  C_7
REMARK    2  A    between atoms: C_7  and  O_9
REMARK    3  A    between atoms: O_9  and  C_10
REMARK    4  A    between atoms: C_10  and  C_11
REMARK                            x       y       z     vdW  Elec       q    Type
REMARK                         _______ _______ _______ _____ _____    ______ ____
ROOT
ATOM      1  O   UNL     1       3.394  -2.803  -0.135  0.00  0.00    +0.000 OA
ENDROOT
BRANCH   1   2
ATOM      2  C   UNL     1       2.419  -3.033  -1.059  0.00  0.00    +0.000 C 
ATOM      3  O   UNL     1       2.615  -3.159  -2.260  0.00  0.00    +0.000 OA
BRANCH   2   7
ATOM      4  C   UNL     1      -1.373  -4.511   0.521  0.00  0.00    +0.000 C 
ATOM      5  C   UNL     1      -0.341  -3.989   1.514  0.00  0.00    +0.000 C 
ATOM      6  C   UNL     1       1.048  -3.893   0.887  0.00  0.00    +0.000 C 
ATOM      7  C   UNL     1       1.046  -3.050  -0.397  0.00  0.00    +0.000 C 
ATOM      8  C   UNL     1      -0.010  -3.574  -1.383  0.00  0.00    +0.000 C 
ATOM      9  C   UNL     1      -1.395  -3.669  -0.749  0.00  0.00    +0.000 C 
ENDBRANCH   2   7
ENDBRANCH   1   2
BRANCH   1  10
ATOM     10  C   UNL     1       4.744  -2.775  -0.632  0.00  0.00    +0.000 C 
BRANCH  10  11
ATOM     11  C   UNL     1       5.291  -4.194  -0.756  0.00  0.00    +0.000 C 
ATOM     12  C   UNL     1       5.396  -4.944   0.591  0.00  0.00    +0.000 C 
ATOM     13  C   UNL     1       6.842  -5.476   0.574  0.00  0.00    +0.000 C 
ATOM     14  C   UNL     1       7.800  -4.299   0.824  0.00  0.00    +0.000 C 
ATOM     15  C   UNL     1       7.741  -3.519  -0.497  0.00  0.00    +0.000 C 
ATOM     16  C   UNL     1       6.723  -4.320  -1.327  0.00  0.00    +0.000 C 
ATOM     17  C   UNL     1       7.070  -5.753  -0.912  0.00  0.00    +0.000 C 
ENDBRANCH  10  11
ENDBRANCH   1  10
TORSDOF 4
