REMARK  Name = *****
REMARK  3 active torsions:
REMARK  status: ('A' for Active; 'I' for Inactive)
REMARK    1  A    between atoms: C_4  and  C_7
REMARK    2  A    between atoms: C_7  and  C_8
REMARK    3  A    between atoms: C_9  and  C_10
REMARK                            x       y       z     vdW  Elec       q    Type
REMARK                         _______ _______ _______ _____ _____    ______ ____
ROOT
ATOM      1  C   UNL     1      -3.546  -0.924  -0.934  0.00  0.00    +0.000 C 
ATOM      2  C   UNL     1      -4.842  -0.808  -0.606  0.00  0.00    +0.000 C 
ATOM      3  F   UNL     1      -5.509  -1.945  -0.298  0.00  0.00    +0.000 F 
ENDROOT
BRANCH   2   4
ATOM      4  C   UNL     1      -5.610   0.435  -0.492  0.00  0.00    +0.000 A 
ATOM      5  C   UNL     1      -5.714   1.340  -1.558  0.00  0.00    +0.000 A 
ATOM      6  C   UNL     1      -6.472   2.506  -1.426  0.00  0.00    +0.000 A 
ATOM      7  C   UNL     1      -7.142   2.771  -0.233  0.00  0.00    +0.000 A 
ATOM      8  C   UNL     1      -7.062   1.869   0.826  0.00  0.00    +0.000 A 
ATOM      9  C   UNL     1      -6.304   0.703   0.695  0.00  0.00    +0.000 A 
ENDBRANCH   2   4
BRANCH   1  10
ATOM     10  C   UNL     1      -2.564   0.172  -1.229  0.00  0.00    +0.000 C 
BRANCH  10  14
ATOM     11  C   UNL     1       0.921  -0.103   1.303  0.00  0.00    +0.000 A 
ATOM     12  C   UNL     1       0.958  -0.621   0.009  0.00  0.00    +0.000 A 
ATOM     13  C   UNL     1      -0.166  -0.531  -0.813  0.00  0.00    +0.000 A 
ATOM     14  C   UNL     1      -1.337   0.085  -0.350  0.00  0.00    +0.000 A 
ATOM     15  C   UNL     1      -1.366   0.597   0.956  0.00  0.00    +0.000 A 
ATOM     16  C   UNL     1      -0.241   0.505   1.776  0.00  0.00    +0.000 A 
ENDBRANCH  10  14
ENDBRANCH   1  10
TORSDOF 3
