MODEL 1
REMARK VINA RESULT:      -4.4      0.000      0.000
REMARK  Name = *****
REMARK  3 active torsions:
REMARK  status: ('A' for Active; 'I' for Inactive)
REMARK    1  A    between atoms: C_1  and  C_2
REMARK    2  A    between atoms: C_3  and  C_9
REMARK    3  A    between atoms: N_10  and  C_11
REMARK                            x       y       z     vdW  Elec       q    Type
REMARK                         _______ _______ _______ _____ _____    ______ ____
ROOT
ATOM      1  C   UNL     1      98.901 126.762  82.416  0.00  0.00    +0.000 C 
ATOM      2  C   UNL     1      99.637 127.873  83.118  0.00  0.00    +0.000 A 
ATOM      3  C   UNL     1     101.048 127.973  83.148  0.00  0.00    +0.000 A 
ATOM      4  C   UNL     1     101.646 129.061  83.815  0.00  0.00    +0.000 A 
ATOM      5  C   UNL     1     100.858 130.027  84.449  0.00  0.00    +0.000 A 
ATOM      6  C   UNL     1      99.472 129.923  84.430  0.00  0.00    +0.000 A 
ATOM      7  C   UNL     1      98.868 128.854  83.771  0.00  0.00    +0.000 A 
ATOM      8 CL   UNL     1     103.361 129.278  83.934  0.00  0.00    +0.000 Cl
ENDROOT
BRANCH   3   9
ATOM      9  C   UNL     1     101.928 126.971  82.490  0.00  0.00    +0.000 C 
ATOM     10  N   UNL     1     102.456 125.966  83.117  0.00  0.00    +0.000 NA
BRANCH  10  11
ATOM     11  C   UNL     1     103.266 125.120  82.347  0.00  0.00    +0.000 A 
ATOM     12  C   UNL     1     103.458 125.377  80.988  0.00  0.00    +0.000 A 
ATOM     13  C   UNL     1     104.274 124.544  80.220  0.00  0.00    +0.000 A 
ATOM     14  C   UNL     1     104.910 123.453  80.813  0.00  0.00    +0.000 A 
ATOM     15  C   UNL     1     104.734 123.199  82.173  0.00  0.00    +0.000 A 
ATOM     16  C   UNL     1     103.918 124.035  82.937  0.00  0.00    +0.000 A 
ENDBRANCH  10  11
ENDBRANCH   3   9
TORSDOF 2
ENDMDL
