MODEL 1
REMARK VINA RESULT:      -4.2      0.000      0.000
REMARK  Name = *****
REMARK  5 active torsions:
REMARK  status: ('A' for Active; 'I' for Inactive)
REMARK    1  A    between atoms: C_1  and  C_2
REMARK    2  A    between atoms: C_5  and  O_8
REMARK    3  A    between atoms: O_8  and  C_9
REMARK    4  A    between atoms: C_9  and  C_11
REMARK    5  A    between atoms: C_16  and  C_17
REMARK                            x       y       z     vdW  Elec       q    Type
REMARK                         _______ _______ _______ _____ _____    ______ ____
ROOT
ATOM      1  C   UNL     1      87.106  65.652  88.695  0.00  0.00    +0.000 C 
ATOM      2  O   UNL     1      86.170  66.409  88.927  0.00  0.00    +0.000 OA
ENDROOT
BRANCH   1   3
ATOM      3  C   UNL     1      87.133  64.209  89.171  0.00  0.00    +0.000 C 
ATOM      4  C   UNL     1      88.576  63.686  89.175  0.00  0.00    +0.000 C 
ATOM      5  C   UNL     1      89.274  63.795  90.498  0.00  0.00    +0.000 C 
ATOM      6  C   UNL     1      88.653  64.115  91.641  0.00  0.00    +0.000 C 
ATOM      7  C   UNL     1      87.181  64.381  91.740  0.00  0.00    +0.000 C 
ATOM      8  C   UNL     1      86.372  63.966  90.494  0.00  0.00    +0.000 C 
ATOM      9  C   UNL     1      85.960  62.489  90.604  0.00  0.00    +0.000 C 
ENDBRANCH   1   3
BRANCH   1  10
ATOM     10  O   UNL     1      88.189  65.973  87.945  0.00  0.00    +0.000 OA
BRANCH  10  15
ATOM     11  C   UNL     1      91.710  64.819  85.085  0.00  0.00    +0.000 C 
ATOM     12  C   UNL     1      90.362  65.533  85.136  0.00  0.00    +0.000 C 
ATOM     13  C   UNL     1      89.245  64.554  85.522  0.00  0.00    +0.000 C 
ATOM     14  C   UNL     1      87.892  65.258  85.633  0.00  0.00    +0.000 C 
ATOM     15  C   UNL     1      87.933  66.441  86.606  0.00  0.00    +0.000 C 
ATOM     16  C   UNL     1      89.057  67.413  86.232  0.00  0.00    +0.000 C 
ATOM     17  C   UNL     1      90.413  66.718  86.108  0.00  0.00    +0.000 C 
ENDBRANCH  10  15
ENDBRANCH   1  10
TORSDOF 3
ENDMDL
