MODEL 1
REMARK VINA RESULT:      -4.6      0.000      0.000
REMARK  Name = *****
REMARK  1 active torsions:
REMARK  status: ('A' for Active; 'I' for Inactive)
REMARK    1  A    between atoms: C_6  and  C_11
REMARK                            x       y       z     vdW  Elec       q    Type
REMARK                         _______ _______ _______ _____ _____    ______ ____
ROOT
ATOM      1  C   UNL     1      99.471 130.405  84.355  0.00  0.00    +0.000 A 
ATOM      2  C   UNL     1     100.809 130.366  84.482  0.00  0.00    +0.000 A 
ATOM      3  C   UNL     1     101.250 129.135  83.847  0.00  0.00    +0.000 A 
ATOM      4  C   UNL     1     102.525 128.746  83.763  0.00  0.00    +0.000 A 
ATOM      5  C   UNL     1     103.055 127.553  83.137  0.00  0.00    +0.000 A 
ATOM      6  C   UNL     1     102.444 126.526  82.509  0.00  0.00    +0.000 A 
ATOM      7  C   UNL     1     101.002 126.377  82.309  0.00  0.00    +0.000 A 
ATOM      8  C   UNL     1      99.987 127.182  82.651  0.00  0.00    +0.000 A 
ATOM      9  C   UNL     1     100.081 128.439  83.335  0.00  0.00    +0.000 A 
ATOM     10  C   UNL     1      99.026 129.216  83.650  0.00  0.00    +0.000 A 
ENDROOT
BRANCH   6  11
ATOM     11  C   UNL     1     103.271 125.464  81.972  0.00  0.00    +0.000 A 
ATOM     12  C   UNL     1     103.799 124.450  82.746  0.00  0.00    +0.000 A 
ATOM     13  S   UNL     1     104.727 123.348  81.820  0.00  0.00    +0.000 S 
ATOM     14  C   UNL     1     104.424 124.219  80.378  0.00  0.00    +0.000 A 
ATOM     15  C   UNL     1     103.632 125.326  80.596  0.00  0.00    +0.000 A 
ENDBRANCH   6  11
TORSDOF 1
ENDMDL
