MODEL 1
REMARK VINA RESULT:      -4.4      0.000      0.000
REMARK  Name = *****
REMARK  4 active torsions:
REMARK  status: ('A' for Active; 'I' for Inactive)
REMARK    1  A    between atoms: C_3  and  C_8
REMARK    2  A    between atoms: C_8  and  O_9
REMARK    3  A    between atoms: O_9  and  C_10
REMARK    4  A    between atoms: C_14  and  C_16
REMARK                            x       y       z     vdW  Elec       q    Type
REMARK                         _______ _______ _______ _____ _____    ______ ____
ROOT
ATOM      1  O   UNL     1      90.163  68.111  86.656  0.00  0.00    +0.000 OA
ENDROOT
BRANCH   1   2
ATOM      2  C   UNL     1      90.099  66.764  86.375  0.00  0.00    +0.000 A 
ATOM      3  N   UNL     1      91.009  66.202  85.559  0.00  0.00    +0.000 NA
ATOM      4  C   UNL     1      90.879  64.880  85.333  0.00  0.00    +0.000 A 
ATOM      5  C   UNL     1      89.889  64.086  85.876  0.00  0.00    +0.000 A 
ATOM      6  C   UNL     1      88.964  64.699  86.716  0.00  0.00    +0.000 A 
ATOM      7  C   UNL     1      89.065  66.065  86.974  0.00  0.00    +0.000 A 
ATOM      8 CL   UNL     1      92.064  64.218  84.286  0.00  0.00    +0.000 Cl
BRANCH   6   9
ATOM      9  C   UNL     1      87.913  63.931  87.311  0.00  0.00    +0.000 C 
ATOM     10  N   UNL     1      87.065  63.304  87.794  0.00  0.00    +0.000 NA
ENDBRANCH   6   9
ENDBRANCH   1   2
BRANCH   1  11
ATOM     11  C   UNL     1      89.251  68.892  85.881  0.00  0.00    +0.000 C 
BRANCH  11  14
ATOM     12  C   UNL     1      88.091  70.680  89.051  0.00  0.00    +0.000 A 
ATOM     13  C   UNL     1      88.834  69.883  88.177  0.00  0.00    +0.000 A 
ATOM     14  C   UNL     1      88.452  69.751  86.834  0.00  0.00    +0.000 A 
ATOM     15  C   UNL     1      87.315  70.437  86.380  0.00  0.00    +0.000 A 
ATOM     16  C   UNL     1      86.578  71.233  87.258  0.00  0.00    +0.000 A 
ATOM     17  C   UNL     1      86.961  71.356  88.591  0.00  0.00    +0.000 A 
ATOM     18 CL   UNL     1      85.186  72.069  86.688  0.00  0.00    +0.000 Cl
ENDBRANCH  11  14
ENDBRANCH   1  11
TORSDOF 4
ENDMDL
