MODEL 1
REMARK VINA RESULT:      -4.7      0.000      0.000
REMARK  Name = *****
REMARK  3 active torsions:
REMARK  status: ('A' for Active; 'I' for Inactive)
REMARK    1  A    between atoms: C_4  and  S_8
REMARK    2  A    between atoms: S_8  and  C_10
REMARK    3  A    between atoms: C_10  and  C_11
REMARK                            x       y       z     vdW  Elec       q    Type
REMARK                         _______ _______ _______ _____ _____    ______ ____
ROOT
ATOM      1  C   UNL     1      87.994  64.476  86.800  0.00  0.00    +0.000 A 
ATOM      2  C   UNL     1      88.496  65.742  87.118  0.00  0.00    +0.000 A 
ATOM      3  C   UNL     1      89.675  66.211  86.544  0.00  0.00    +0.000 A 
ATOM      4  C   UNL     1      90.368  65.421  85.638  0.00  0.00    +0.000 A 
ATOM      5  C   UNL     1      89.886  64.162  85.308  0.00  0.00    +0.000 A 
ATOM      6  C   UNL     1      88.707  63.697  85.886  0.00  0.00    +0.000 A 
ATOM      7  F   UNL     1      88.251  62.477  85.563  0.00  0.00    +0.000 F 
ATOM      8  F   UNL     1      90.554  63.392  84.439  0.00  0.00    +0.000 F 
ATOM      9  F   UNL     1      91.506  65.868  85.088  0.00  0.00    +0.000 F 
ATOM     10  F   UNL     1      90.146  67.422  86.875  0.00  0.00    +0.000 F 
ATOM     11  F   UNL     1      87.846  66.510  88.003  0.00  0.00    +0.000 F 
ENDROOT
BRANCH   1  12
ATOM     12  C   UNL     1      86.702  63.987  87.389  0.00  0.00    +0.000 C 
BRANCH  12  13
ATOM     13  S   UNL     1      86.964  62.497  88.416  0.00  0.00    +0.000 S 
ATOM     14  O   UNL     1      85.631  61.827  88.595  0.00  0.00    +0.000 OA
BRANCH  13  18
ATOM     15  C   UNL     1      87.891  64.606  92.407  0.00  0.00    +0.000 A 
ATOM     16  C   UNL     1      86.571  64.314  92.066  0.00  0.00    +0.000 A 
ATOM     17  C   UNL     1      86.282  63.678  90.854  0.00  0.00    +0.000 A 
ATOM     18  C   UNL     1      87.313  63.336  89.974  0.00  0.00    +0.000 A 
ATOM     19  C   UNL     1      88.631  63.626  90.334  0.00  0.00    +0.000 A 
ATOM     20  C   UNL     1      88.925  64.260  91.538  0.00  0.00    +0.000 A 
ATOM     21  F   UNL     1      89.644  63.304  89.516  0.00  0.00    +0.000 F 
ENDBRANCH  13  18
ENDBRANCH  12  13
ENDBRANCH   1  12
TORSDOF 3
ENDMDL
