MODEL 1
REMARK VINA RESULT:      -4.3      0.000      0.000
REMARK  Name = *****
REMARK  3 active torsions:
REMARK  status: ('A' for Active; 'I' for Inactive)
REMARK    1  A    between atoms: C_4  and  C_7
REMARK    2  A    between atoms: C_8  and  C_9
REMARK    3  A    between atoms: C_10  and  C_14
REMARK                            x       y       z     vdW  Elec       q    Type
REMARK                         _______ _______ _______ _____ _____    ______ ____
ROOT
ATOM      1  C   UNL     1     102.287 127.034  82.178  0.00  0.00    +0.000 C 
ATOM      2  C   UNL     1     101.792 127.237  83.410  0.00  0.00    +0.000 C 
ENDROOT
BRANCH   1   6
ATOM      3  C   UNL     1     104.654 123.607  81.213  0.00  0.00    +0.000 A 
ATOM      4  C   UNL     1     104.356 124.537  80.218  0.00  0.00    +0.000 A 
ATOM      5  C   UNL     1     103.578 125.658  80.519  0.00  0.00    +0.000 A 
ATOM      6  C   UNL     1     103.084 125.854  81.815  0.00  0.00    +0.000 A 
ATOM      7  C   UNL     1     103.403 124.921  82.810  0.00  0.00    +0.000 A 
ATOM      8  C   UNL     1     104.180 123.800  82.509  0.00  0.00    +0.000 A 
ENDBRANCH   1   6
BRANCH   2   9
ATOM      9  C   UNL     1     101.016 128.391  83.745  0.00  0.00    +0.000 A 
ATOM     10  C   UNL     1      99.634 128.558  83.687  0.00  0.00    +0.000 A 
ATOM     11  C   UNL     1      99.229 129.854  84.158  0.00  0.00    +0.000 A 
ATOM     12  C   UNL     1     100.289 130.626  84.561  0.00  0.00    +0.000 A 
ATOM     13  S   UNL     1     101.771 129.809  84.387  0.00  0.00    +0.000 S 
BRANCH  10  14
ATOM     14  C   UNL     1      98.706 127.548  83.192  0.00  0.00    +0.000 C 
ATOM     15  O   UNL     1      98.393 127.443  82.010  0.00  0.00    +0.000 OA
ENDBRANCH  10  14
ENDBRANCH   2   9
TORSDOF 3
ENDMDL
