MODEL 1
REMARK VINA RESULT:      -4.8      0.000      0.000
REMARK  Name = *****
REMARK  3 active torsions:
REMARK  status: ('A' for Active; 'I' for Inactive)
REMARK    1  A    between atoms: C_6  and  C_7
REMARK    2  A    between atoms: C_7  and  C_8
REMARK    3  A    between atoms: C_8  and  C_10
REMARK                            x       y       z     vdW  Elec       q    Type
REMARK                         _______ _______ _______ _____ _____    ______ ____
ROOT
ATOM      1  C   UNL     1     103.268 126.979  81.547  0.00  0.00    +0.000 C 
ATOM      2  O   UNL     1     103.300 127.608  80.487  0.00  0.00    +0.000 OA
ENDROOT
BRANCH   1   3
ATOM      3  C   UNL     1     103.756 125.565  81.566  0.00  0.00    +0.000 A 
ATOM      4  C   UNL     1     104.199 124.896  80.419  0.00  0.00    +0.000 A 
ATOM      5  C   UNL     1     104.659 123.577  80.505  0.00  0.00    +0.000 A 
ATOM      6  C   UNL     1     104.673 122.921  81.735  0.00  0.00    +0.000 A 
ATOM      7  C   UNL     1     104.227 123.572  82.882  0.00  0.00    +0.000 A 
ATOM      8  C   UNL     1     103.768 124.889  82.796  0.00  0.00    +0.000 A 
ATOM      9  I   UNL     1     105.364 120.965  81.856  0.00  0.00    +0.000 I 
ENDBRANCH   1   3
BRANCH   1  10
ATOM     10  C   UNL     1     102.734 127.619  82.816  0.00  0.00    +0.000 C 
BRANCH  10  16
ATOM     11  C   UNL     1     100.470 126.597  82.325  0.00  0.00    +0.000 A 
ATOM     12  C   UNL     1      99.075 126.624  82.388  0.00  0.00    +0.000 A 
ATOM     13  C   UNL     1      98.436 127.687  83.013  0.00  0.00    +0.000 A 
ATOM     14  C   UNL     1      99.163 128.727  83.575  0.00  0.00    +0.000 A 
ATOM     15  C   UNL     1     100.558 128.701  83.517  0.00  0.00    +0.000 A 
ATOM     16  C   UNL     1     101.227 127.631  82.899  0.00  0.00    +0.000 A 
ATOM     17  F   UNL     1      97.098 127.712  83.066  0.00  0.00    +0.000 F 
ENDBRANCH  10  16
ENDBRANCH   1  10
TORSDOF 3
ENDMDL
