REMARK  Name = *****
REMARK  5 active torsions:
REMARK  status: ('A' for Active; 'I' for Inactive)
REMARK    1  A    between atoms: C_1  and  C_2
REMARK    2  A    between atoms: C_7  and  C_8
REMARK    3  A    between atoms: C_9  and  C_10
REMARK    4  A    between atoms: C_15  and  O_16
REMARK    5  A    between atoms: O_16  and  C_17
REMARK                            x       y       z     vdW  Elec       q    Type
REMARK                         _______ _______ _______ _____ _____    ______ ____
ROOT
ATOM      1  C   UNL     1       0.943  -2.324   0.086  0.00  0.00    +0.000 C 
ATOM      2  C   UNL     1       2.228  -2.466  -0.275  0.00  0.00    +0.000 C 
ENDROOT
BRANCH   1   9
ATOM      3  C   UNL     1       0.056  -1.114  -2.508  0.00  0.00    +0.000 C 
ATOM      4  C   UNL     1      -0.158  -0.439  -1.180  0.00  0.00    +0.000 A 
ATOM      5  C   UNL     1      -0.776   0.821  -1.146  0.00  0.00    +0.000 A 
ATOM      6  C   UNL     1      -0.986   1.483   0.064  0.00  0.00    +0.000 A 
ATOM      7  C   UNL     1      -0.576   0.897   1.258  0.00  0.00    +0.000 A 
ATOM      8  C   UNL     1       0.049  -0.350   1.240  0.00  0.00    +0.000 A 
ATOM      9  C   UNL     1       0.269  -1.023   0.029  0.00  0.00    +0.000 A 
ENDBRANCH   1   9
BRANCH   2  10
ATOM     10  C   UNL     1       2.970  -3.737  -0.215  0.00  0.00    +0.000 A 
ATOM     11  C   UNL     1       2.359  -4.953  -0.556  0.00  0.00    +0.000 A 
ATOM     12  C   UNL     1       3.085  -6.148  -0.548  0.00  0.00    +0.000 A 
ATOM     13  C   UNL     1       4.438  -6.144  -0.216  0.00  0.00    +0.000 A 
ATOM     14  C   UNL     1       5.067  -4.945   0.110  0.00  0.00    +0.000 A 
ATOM     15  C   UNL     1       4.334  -3.755   0.125  0.00  0.00    +0.000 A 
BRANCH  15  16
ATOM     16  O   UNL     1       5.004  -2.592   0.420  0.00  0.00    +0.000 OA
ATOM     17  C   UNL     1       4.987  -2.366   1.830  0.00  0.00    +0.000 C 
ENDBRANCH  15  16
ENDBRANCH   2  10
TORSDOF 3
