MODEL 1
REMARK VINA RESULT:      -4.4      0.000      0.000
REMARK  Name = *****
REMARK  5 active torsions:
REMARK  status: ('A' for Active; 'I' for Inactive)
REMARK    1  A    between atoms: N_2  and  C_3
REMARK    2  A    between atoms: C_3  and  C_4
REMARK    3  A    between atoms: C_6  and  O_10
REMARK    4  A    between atoms: O_10  and  C_11
REMARK    5  A    between atoms: C_11  and  C_12
REMARK                            x       y       z     vdW  Elec       q    Type
REMARK                         _______ _______ _______ _____ _____    ______ ____
ROOT
ATOM      1  C   UNL     1     102.032 127.168  82.736  0.00  0.00    +0.000 A 
ATOM      2  C   UNL     1     102.290 126.080  81.890  0.00  0.00    +0.000 A 
ATOM      3  C   UNL     1     103.346 126.112  80.973  0.00  0.00    +0.000 A 
ATOM      4  C   UNL     1     104.153 127.247  80.899  0.00  0.00    +0.000 A 
ATOM      5  C   UNL     1     103.900 128.341  81.731  0.00  0.00    +0.000 A 
ATOM      6  C   UNL     1     102.845 128.304  82.642  0.00  0.00    +0.000 A 
ENDROOT
BRANCH   1   7
ATOM      7  C   UNL     1     100.883 127.127  83.709  0.00  0.00    +0.000 C 
BRANCH   7   9
ATOM      8  C   UNL     1      98.628 126.811  82.447  0.00  0.00    +0.000 C 
ATOM      9  N   UNL     1      99.636 126.955  83.029  0.00  0.00    +0.000 NA
ENDBRANCH   7   9
ENDBRANCH   1   7
BRANCH   3  10
ATOM     10  O   UNL     1     103.478 124.978  80.221  0.00  0.00    +0.000 OA
BRANCH  10  11
ATOM     11  C   UNL     1     104.745 124.320  80.250  0.00  0.00    +0.000 C 
BRANCH  11  12
ATOM     12  C   UNL     1     104.656 123.127  81.171  0.00  0.00    +0.000 A 
ATOM     13  C   UNL     1     104.586 123.297  82.560  0.00  0.00    +0.000 A 
ATOM     14  C   UNL     1     104.482 122.190  83.405  0.00  0.00    +0.000 A 
ATOM     15  C   UNL     1     104.443 120.904  82.871  0.00  0.00    +0.000 A 
ATOM     16  C   UNL     1     104.509 120.722  81.491  0.00  0.00    +0.000 A 
ATOM     17  C   UNL     1     104.613 121.827  80.645  0.00  0.00    +0.000 A 
ENDBRANCH  11  12
ENDBRANCH  10  11
ENDBRANCH   3  10
TORSDOF 5
ENDMDL
