MODEL 1
REMARK VINA RESULT:      -5.0      0.000      0.000
REMARK  Name = *****
REMARK  2 active torsions:
REMARK  status: ('A' for Active; 'I' for Inactive)
REMARK    1  A    between atoms: C_1  and  C_2
REMARK    2  A    between atoms: C_7  and  C_8
REMARK                            x       y       z     vdW  Elec       q    Type
REMARK                         _______ _______ _______ _____ _____    ______ ____
ROOT
ATOM      1  C   UNL     1     102.123 126.046  82.493  0.00  0.00    +0.000 A 
ATOM      2  N   UNL     1     102.663 125.138  83.289  0.00  0.00    +0.000 NA
ATOM      3  C   UNL     1     103.581 124.500  82.497  0.00  0.00    +0.000 A 
ATOM      4  C   UNL     1     104.465 123.448  82.772  0.00  0.00    +0.000 A 
ATOM      5  C   UNL     1     105.302 123.001  81.738  0.00  0.00    +0.000 A 
ATOM      6  C   UNL     1     105.259 123.588  80.466  0.00  0.00    +0.000 A 
ATOM      7  C   UNL     1     104.380 124.639  80.177  0.00  0.00    +0.000 A 
ATOM      8  C   UNL     1     103.570 125.051  81.228  0.00  0.00    +0.000 A 
ATOM      9  O   UNL     1     102.637 126.043  81.215  0.00  0.00    +0.000 OA
ENDROOT
BRANCH   1  16
ATOM     10  C   UNL     1     102.750 128.702  83.770  0.00  0.00    +0.000 C 
ATOM     11  C   UNL     1     101.356 128.291  83.369  0.00  0.00    +0.000 A 
ATOM     12  C   UNL     1     100.306 129.199  83.611  0.00  0.00    +0.000 A 
ATOM     13  C   UNL     1      98.993 128.887  83.266  0.00  0.00    +0.000 A 
ATOM     14  C   UNL     1      98.706 127.664  82.675  0.00  0.00    +0.000 A 
ATOM     15  C   UNL     1      99.736 126.753  82.432  0.00  0.00    +0.000 A 
ATOM     16  C   UNL     1     101.075 127.042  82.770  0.00  0.00    +0.000 A 
ENDBRANCH   1  16
TORSDOF 1
ENDMDL
