MODEL 1
REMARK VINA RESULT:      -4.6      0.000      0.000
REMARK  Name = *****
REMARK  4 active torsions:
REMARK  status: ('A' for Active; 'I' for Inactive)
REMARK    1  A    between atoms: C_3  and  C_4
REMARK    2  A    between atoms: C_5  and  C_10
REMARK    3  A    between atoms: C_7  and  C_8
REMARK    4  A    between atoms: C_11  and  C_12
REMARK                            x       y       z     vdW  Elec       q    Type
REMARK                         _______ _______ _______ _____ _____    ______ ____
ROOT
ATOM      1  C   UNL     1     104.292 124.000  81.858  0.00  0.00    +0.000 C 
ATOM      2  C   UNL     1     103.708 125.082  81.312  0.00  0.00    +0.000 C 
ATOM      3  C   UNL     1     104.341 124.829  80.056  0.00  0.00    +0.000 C 
ATOM      4  C   UNL     1     104.917 123.754  80.609  0.00  0.00    +0.000 C 
ENDROOT
BRANCH   1   7
ATOM      5  C   UNL     1     104.084 124.167  84.515  0.00  0.00    +0.000 C 
ATOM      6  C   UNL     1     105.388 123.492  84.241  0.00  0.00    +0.000 C 
ATOM      7  C   UNL     1     104.256 123.364  83.246  0.00  0.00    +0.000 C 
ENDBRANCH   1   7
BRANCH   4   8
ATOM      8  C   UNL     1     105.830 122.727  80.124  0.00  0.00    +0.000 C 
ATOM      9  O   UNL     1     107.057 122.782  80.089  0.00  0.00    +0.000 OA
ENDBRANCH   4   8
BRANCH   2  10
ATOM     10  C   UNL     1     102.791 126.167  81.693  0.00  0.00    +0.000 C 
ATOM     11  C   UNL     1     101.661 126.001  82.399  0.00  0.00    +0.000 C 
BRANCH  11  12
ATOM     12  C   UNL     1     100.761 127.100  82.775  0.00  0.00    +0.000 A 
ATOM     13  C   UNL     1      99.397 126.990  82.470  0.00  0.00    +0.000 A 
ATOM     14  C   UNL     1      98.512 128.025  82.784  0.00  0.00    +0.000 A 
ATOM     15  C   UNL     1      98.985 129.186  83.395  0.00  0.00    +0.000 A 
ATOM     16  C   UNL     1     100.341 129.313  83.686  0.00  0.00    +0.000 A 
ATOM     17  C   UNL     1     101.226 128.278  83.373  0.00  0.00    +0.000 A 
ENDBRANCH  11  12
ENDBRANCH   2  10
TORSDOF 4
ENDMDL
