MODEL 1
REMARK VINA RESULT:      -4.7      0.000      0.000
REMARK  Name = *****
REMARK  3 active torsions:
REMARK  status: ('A' for Active; 'I' for Inactive)
REMARK    1  A    between atoms: C_4  and  C_7
REMARK    2  A    between atoms: C_7  and  C_8
REMARK    3  A    between atoms: C_8  and  C_9
REMARK                            x       y       z     vdW  Elec       q    Type
REMARK                         _______ _______ _______ _____ _____    ______ ____
ROOT
ATOM      1  C   UNL     1     102.980 125.288  83.239  0.00  0.00    +0.000 C 
ENDROOT
BRANCH   1   2
ATOM      2  C   UNL     1     103.862 124.322  82.484  0.00  0.00    +0.000 C 
ATOM      3  C   UNL     1     104.150 124.487  81.178  0.00  0.00    +0.000 C 
ATOM      4  C   UNL     1     104.903 123.572  80.249  0.00  0.00    +0.000 C 
ATOM      5  C   UNL     1     104.817 122.082  80.583  0.00  0.00    +0.000 C 
ATOM      6  C   UNL     1     105.684 121.641  81.761  0.00  0.00    +0.000 C 
ATOM      7  C   UNL     1     105.784 122.647  82.894  0.00  0.00    +0.000 C 
ATOM      8  C   UNL     1     104.438 123.201  83.297  0.00  0.00    +0.000 C 
ATOM      9  O   UNL     1     103.850 122.788  84.296  0.00  0.00    +0.000 OA
ENDBRANCH   1   2
BRANCH   1  10
ATOM     10  C   UNL     1     101.921 125.928  82.333  0.00  0.00    +0.000 C 
BRANCH  10  14
ATOM     11  C   UNL     1      99.216 129.257  83.251  0.00  0.00    +0.000 C 
ATOM     12  C   UNL     1      98.609 127.865  83.117  0.00  0.00    +0.000 C 
ATOM     13  C   UNL     1      99.556 126.897  82.410  0.00  0.00    +0.000 C 
ATOM     14  C   UNL     1     100.932 126.835  83.093  0.00  0.00    +0.000 C 
ATOM     15  C   UNL     1     101.528 128.248  83.229  0.00  0.00    +0.000 C 
ATOM     16  C   UNL     1     100.574 129.205  83.940  0.00  0.00    +0.000 C 
ENDBRANCH  10  14
ENDBRANCH   1  10
TORSDOF 3
ENDMDL
