MODEL 1
REMARK VINA RESULT:      -4.9      0.000      0.000
REMARK  Name = *****
REMARK  4 active torsions:
REMARK  status: ('A' for Active; 'I' for Inactive)
REMARK    1  A    between atoms: C_1  and  C_2
REMARK    2  A    between atoms: C_5  and  N_8
REMARK    3  A    between atoms: C_9  and  C_10
REMARK    4  A    between atoms: C_9  and  C_11
REMARK                            x       y       z     vdW  Elec       q    Type
REMARK                         _______ _______ _______ _____ _____    ______ ____
ROOT
ATOM      1  N   UNL     1     102.653 125.856  82.135  0.00  0.00    +0.000 NA
ATOM      2  C   UNL     1     103.417 126.085  81.105  0.00  0.00    +0.000 C 
ATOM      3  C   UNL     1     103.445 127.398  80.343  0.00  0.00    +0.000 C 
ENDROOT
BRANCH   1   8
ATOM      4  C   UNL     1      99.073 129.846  84.111  0.00  0.00    +0.000 C 
ATOM      5  C   UNL     1     100.015 128.816  83.563  0.00  0.00    +0.000 A 
ATOM      6  C   UNL     1      99.522 127.692  82.887  0.00  0.00    +0.000 A 
ATOM      7  C   UNL     1     100.397 126.714  82.409  0.00  0.00    +0.000 A 
ATOM      8  C   UNL     1     101.775 126.846  82.594  0.00  0.00    +0.000 A 
ATOM      9  C   UNL     1     102.265 127.945  83.299  0.00  0.00    +0.000 A 
ATOM     10  C   UNL     1     101.393 128.926  83.780  0.00  0.00    +0.000 A 
ENDBRANCH   1   8
BRANCH   2  11
ATOM     11  C   UNL     1     104.312 124.983  80.637  0.00  0.00    +0.000 A 
ATOM     12  C   UNL     1     104.266 123.710  81.215  0.00  0.00    +0.000 A 
ATOM     13  C   UNL     1     105.125 122.712  80.753  0.00  0.00    +0.000 A 
ATOM     14  C   UNL     1     106.034 122.970  79.727  0.00  0.00    +0.000 A 
ATOM     15  C   UNL     1     106.091 124.242  79.159  0.00  0.00    +0.000 A 
ATOM     16  C   UNL     1     105.235 125.246  79.615  0.00  0.00    +0.000 A 
ATOM     17 CL   UNL     1     105.068 121.144  81.464  0.00  0.00    +0.000 Cl
ENDBRANCH   2  11
TORSDOF 2
ENDMDL
