MODEL 1
REMARK VINA RESULT:      -4.7      0.000      0.000
REMARK  Name = *****
REMARK  2 active torsions:
REMARK  status: ('A' for Active; 'I' for Inactive)
REMARK    1  A    between atoms: C_5  and  C_7
REMARK    2  A    between atoms: C_8  and  C_9
REMARK                            x       y       z     vdW  Elec       q    Type
REMARK                         _______ _______ _______ _____ _____    ______ ____
ROOT
ATOM      1  C   UNL     1     103.132 125.454  82.179  0.00  0.00    +0.000 C 
ATOM      2  C   UNL     1     102.182 126.153  82.407  0.00  0.00    +0.000 C 
ENDROOT
BRANCH   1   7
ATOM      3  C   UNL     1     105.320 123.056  80.191  0.00  0.00    +0.000 C 
ATOM      4  C   UNL     1     104.885 121.829  80.994  0.00  0.00    +0.000 C 
ATOM      5  C   UNL     1     104.519 122.161  82.410  0.00  0.00    +0.000 C 
ATOM      6  C   UNL     1     104.283 123.413  82.831  0.00  0.00    +0.000 C 
ATOM      7  C   UNL     1     104.320 124.619  81.924  0.00  0.00    +0.000 C 
ATOM      8  C   UNL     1     104.381 124.236  80.434  0.00  0.00    +0.000 C 
ENDBRANCH   1   7
BRANCH   2   9
ATOM      9  C   UNL     1     101.075 127.009  82.697  0.00  0.00    +0.000 A 
ATOM     10  C   UNL     1     101.291 128.236  83.331  0.00  0.00    +0.000 A 
ATOM     11  C   UNL     1     100.215 129.083  83.599  0.00  0.00    +0.000 A 
ATOM     12  C   UNL     1      98.923 128.706  83.235  0.00  0.00    +0.000 A 
ATOM     13  C   UNL     1      98.705 127.480  82.604  0.00  0.00    +0.000 A 
ATOM     14  C   UNL     1      99.781 126.632  82.334  0.00  0.00    +0.000 A 
ENDBRANCH   2   9
TORSDOF 2
ENDMDL
