MODEL 1
REMARK VINA RESULT:      -4.5      0.000      0.000
REMARK  Name = *****
REMARK  4 active torsions:
REMARK  status: ('A' for Active; 'I' for Inactive)
REMARK    1  A    between atoms: C_1  and  C_2
REMARK    2  A    between atoms: C_5  and  C_8
REMARK    3  A    between atoms: C_8  and  O_9
REMARK    4  A    between atoms: O_9  and  C_10
REMARK                            x       y       z     vdW  Elec       q    Type
REMARK                         _______ _______ _______ _____ _____    ______ ____
ROOT
ATOM      1  C   UNL     1      87.929  70.712  85.827  0.00  0.00    +0.000 C 
ENDROOT
BRANCH   1   6
ATOM      2  C   UNL     1      82.950  73.105  87.707  0.00  0.00    +0.000 C 
ATOM      3  C   UNL     1      84.227  72.475  87.238  0.00  0.00    +0.000 A 
ATOM      4  C   UNL     1      85.162  71.976  88.150  0.00  0.00    +0.000 A 
ATOM      5  C   UNL     1      86.352  71.396  87.700  0.00  0.00    +0.000 A 
ATOM      6  C   UNL     1      86.626  71.295  86.330  0.00  0.00    +0.000 A 
ATOM      7  C   UNL     1      85.695  71.814  85.420  0.00  0.00    +0.000 A 
ATOM      8  C   UNL     1      84.506  72.394  85.869  0.00  0.00    +0.000 A 
ENDBRANCH   1   6
BRANCH   1   9
ATOM      9  O   UNL     1      88.645  70.103  86.903  0.00  0.00    +0.000 OA
BRANCH   9  10
ATOM     10  C   UNL     1      88.727  68.739  86.905  0.00  0.00    +0.000 A 
ATOM     11  C   UNL     1      87.768  67.858  87.414  0.00  0.00    +0.000 A 
ATOM     12  C   UNL     1      87.984  66.478  87.353  0.00  0.00    +0.000 A 
ATOM     13  C   UNL     1      89.154  65.986  86.785  0.00  0.00    +0.000 A 
ATOM     14  C   UNL     1      90.117  66.849  86.278  0.00  0.00    +0.000 A 
ATOM     15  C   UNL     1      89.900  68.226  86.340  0.00  0.00    +0.000 A 
ATOM     16  F   UNL     1      89.356  64.664  86.730  0.00  0.00    +0.000 F 
ENDBRANCH   9  10
ENDBRANCH   1   9
TORSDOF 3
ENDMDL
