REMARK  Name = *****
REMARK  4 active torsions:
REMARK  status: ('A' for Active; 'I' for Inactive)
REMARK    1  A    between atoms: C_3  and  C_8
REMARK    2  A    between atoms: C_8  and  O_9
REMARK    3  A    between atoms: O_9  and  C_10
REMARK    4  A    between atoms: C_10  and  C_12
REMARK                            x       y       z     vdW  Elec       q    Type
REMARK                         _______ _______ _______ _____ _____    ______ ____
ROOT
ATOM      1  O   UNL     1       1.529   3.618  -0.172  0.00  0.00    +0.000 OA
ENDROOT
BRANCH   1   2
ATOM      2  C   UNL     1       2.114   4.825   0.018  0.00  0.00    +0.000 C 
ATOM      3  O   UNL     1       3.310   5.038   0.136  0.00  0.00    +0.000 OA
BRANCH   2   4
ATOM      4  C   UNL     1       1.085   5.899   0.055  0.00  0.00    +0.000 A 
ATOM      5  C   UNL     1      -0.288   5.624   0.030  0.00  0.00    +0.000 A 
ATOM      6  C   UNL     1      -1.203   6.675   0.071  0.00  0.00    +0.000 A 
ATOM      7  C   UNL     1      -0.767   7.998   0.137  0.00  0.00    +0.000 A 
ATOM      8  C   UNL     1       0.599   8.277   0.165  0.00  0.00    +0.000 A 
ATOM      9  C   UNL     1       1.523   7.231   0.125  0.00  0.00    +0.000 A 
ATOM     10 CL   UNL     1      -2.891   6.338   0.039  0.00  0.00    +0.000 Cl
ENDBRANCH   2   4
ENDBRANCH   1   2
BRANCH   1  11
ATOM     11  C   UNL     1       2.416   2.493  -0.190  0.00  0.00    +0.000 C 
BRANCH  11  14
ATOM     12  C   UNL     1       3.340   1.573   3.390  0.00  0.00    +0.000 A 
ATOM     13  C   UNL     1       3.366   2.164   2.126  0.00  0.00    +0.000 A 
ATOM     14  C   UNL     1       2.401   1.832   1.163  0.00  0.00    +0.000 A 
ATOM     15  C   UNL     1       1.397   0.912   1.496  0.00  0.00    +0.000 A 
ATOM     16  C   UNL     1       1.376   0.324   2.760  0.00  0.00    +0.000 A 
ATOM     17  C   UNL     1       2.345   0.648   3.708  0.00  0.00    +0.000 A 
ATOM     18 CL   UNL     1       0.142  -0.809   3.155  0.00  0.00    +0.000 Cl
ENDBRANCH  11  14
ENDBRANCH   1  11
TORSDOF 4
