MODEL 1
REMARK VINA RESULT:      -4.7      0.000      0.000
REMARK  Name = *****
REMARK  4 active torsions:
REMARK  status: ('A' for Active; 'I' for Inactive)
REMARK    1  A    between atoms: C_1  and  C_2
REMARK    2  A    between atoms: C_4  and  S_8
REMARK    3  A    between atoms: S_8  and  C_10
REMARK    4  A    between atoms: C_10  and  C_11
REMARK                            x       y       z     vdW  Elec       q    Type
REMARK                         _______ _______ _______ _____ _____    ______ ____
ROOT
ATOM      1  S   UNL     1      89.000  70.478  86.739  0.00  0.00    +0.000 S 
ATOM      2  O   UNL     1      90.125  70.860  85.818  0.00  0.00    +0.000 OA
ENDROOT
BRANCH   1   6
ATOM      3  C   UNL     1      91.140  65.807  85.467  0.00  0.00    +0.000 C 
ATOM      4  C   UNL     1      90.046  66.562  86.164  0.00  0.00    +0.000 A 
ATOM      5  C   UNL     1      90.024  67.963  86.144  0.00  0.00    +0.000 A 
ATOM      6  C   UNL     1      88.988  68.670  86.768  0.00  0.00    +0.000 A 
ATOM      7  C   UNL     1      87.952  67.967  87.390  0.00  0.00    +0.000 A 
ATOM      8  C   UNL     1      87.957  66.573  87.400  0.00  0.00    +0.000 A 
ATOM      9  C   UNL     1      88.998  65.874  86.788  0.00  0.00    +0.000 A 
ENDBRANCH   1   6
BRANCH   1  10
ATOM     10  C   UNL     1      87.436  70.688  85.819  0.00  0.00    +0.000 C 
BRANCH  10  11
ATOM     11  C   UNL     1      86.359  71.307  86.674  0.00  0.00    +0.000 A 
ATOM     12  C   UNL     1      86.445  71.252  88.072  0.00  0.00    +0.000 A 
ATOM     13  C   UNL     1      85.446  71.819  88.866  0.00  0.00    +0.000 A 
ATOM     14  C   UNL     1      84.352  72.442  88.272  0.00  0.00    +0.000 A 
ATOM     15  C   UNL     1      84.252  72.497  86.882  0.00  0.00    +0.000 A 
ATOM     16  C   UNL     1      85.249  71.930  86.086  0.00  0.00    +0.000 A 
ENDBRANCH  10  11
ENDBRANCH   1  10
TORSDOF 3
ENDMDL
