MODEL 1
REMARK VINA RESULT:      -4.4      0.000      0.000
REMARK  Name = *****
REMARK  4 active torsions:
REMARK  status: ('A' for Active; 'I' for Inactive)
REMARK    1  A    between atoms: C_1  and  C_2
REMARK    2  A    between atoms: C_1  and  S_8
REMARK    3  A    between atoms: S_8  and  C_9
REMARK    4  A    between atoms: C_12  and  C_15
REMARK                            x       y       z     vdW  Elec       q    Type
REMARK                         _______ _______ _______ _____ _____    ______ ____
ROOT
ATOM      1  S   UNL     1      89.146  70.412  86.714  0.00  0.00    +0.000 S 
ENDROOT
BRANCH   1   2
ATOM      2  C   UNL     1      89.029  68.635  86.783  0.00  0.00    +0.000 A 
ATOM      3  C   UNL     1      90.070  67.861  86.264  0.00  0.00    +0.000 A 
ATOM      4  C   UNL     1      90.005  66.466  86.313  0.00  0.00    +0.000 A 
ATOM      5  C   UNL     1      88.897  65.827  86.881  0.00  0.00    +0.000 A 
ATOM      6  C   UNL     1      87.871  66.605  87.428  0.00  0.00    +0.000 A 
ATOM      7  C   UNL     1      87.936  68.000  87.379  0.00  0.00    +0.000 A 
ATOM      8  C   UNL     1      88.844  64.331  86.968  0.00  0.00    +0.000 C 
ENDBRANCH   1   2
BRANCH   1   9
ATOM      9  C   UNL     1      87.786  70.758  85.549  0.00  0.00    +0.000 C 
BRANCH   9  10
ATOM     10  C   UNL     1      86.586  71.336  86.256  0.00  0.00    +0.000 A 
ATOM     11  C   UNL     1      86.494  71.293  87.656  0.00  0.00    +0.000 A 
ATOM     12  C   UNL     1      85.380  71.821  88.308  0.00  0.00    +0.000 A 
ATOM     13  C   UNL     1      84.344  72.393  87.571  0.00  0.00    +0.000 A 
ATOM     14  C   UNL     1      84.418  72.431  86.181  0.00  0.00    +0.000 A 
ATOM     15  C   UNL     1      85.533  71.904  85.525  0.00  0.00    +0.000 A 
ENDBRANCH   9  10
ENDBRANCH   1   9
TORSDOF 3
ENDMDL
