MODEL 1
REMARK VINA RESULT:      -4.7      0.000      0.000
REMARK  Name = *****
REMARK  4 active torsions:
REMARK  status: ('A' for Active; 'I' for Inactive)
REMARK    1  A    between atoms: C_1  and  C_2
REMARK    2  A    between atoms: C_5  and  C_8
REMARK    3  A    between atoms: C_9  and  C_10
REMARK    4  A    between atoms: C_13  and  C_15
REMARK                            x       y       z     vdW  Elec       q    Type
REMARK                         _______ _______ _______ _____ _____    ______ ____
ROOT
ATOM      1  C   UNL     1      87.866  64.925  88.832  0.00  0.00    +0.000 C 
ATOM      2  C   UNL     1      87.904  65.298  87.544  0.00  0.00    +0.000 C 
ENDROOT
BRANCH   1   7
ATOM      3  C   UNL     1      84.926  60.246  90.561  0.00  0.00    +0.000 C 
ATOM      4  C   UNL     1      85.712  61.451  90.138  0.00  0.00    +0.000 A 
ATOM      5  C   UNL     1      85.789  62.577  90.965  0.00  0.00    +0.000 A 
ATOM      6  C   UNL     1      86.496  63.712  90.557  0.00  0.00    +0.000 A 
ATOM      7  C   UNL     1      87.138  63.742  89.313  0.00  0.00    +0.000 A 
ATOM      8  C   UNL     1      87.032  62.626  88.473  0.00  0.00    +0.000 A 
ATOM      9  C   UNL     1      86.325  61.491  88.883  0.00  0.00    +0.000 A 
ENDBRANCH   1   7
BRANCH   2  10
ATOM     10  C   UNL     1      88.612  66.455  87.122  0.00  0.00    +0.000 A 
ATOM     11  N   UNL     1      89.840  66.476  86.626  0.00  0.00    +0.000 NA
ATOM     12  N   UNL     1      90.167  67.783  86.342  0.00  0.00    +0.000 NA
ATOM     13  C   UNL     1      89.125  68.512  86.676  0.00  0.00    +0.000 A 
ATOM     14  O   UNL     1      88.102  67.742  87.178  0.00  0.00    +0.000 OA
BRANCH  13  15
ATOM     15  C   UNL     1      88.904  69.988  86.594  0.00  0.00    +0.000 C 
ATOM     16 CL   UNL     1      90.113  70.779  85.533  0.00  0.00    +0.000 Cl
ATOM     17 CL   UNL     1      87.272  70.332  85.933  0.00  0.00    +0.000 Cl
ATOM     18 CL   UNL     1      89.028  70.721  88.228  0.00  0.00    +0.000 Cl
ENDBRANCH  13  15
ENDBRANCH   2  10
TORSDOF 3
ENDMDL
