MODEL 1
REMARK VINA RESULT:      -4.8      0.000      0.000
REMARK  Name = *****
REMARK  3 active torsions:
REMARK  status: ('A' for Active; 'I' for Inactive)
REMARK    1  A    between atoms: C_4  and  C_7
REMARK    2  A    between atoms: C_7  and  C_9
REMARK    3  A    between atoms: C_9  and  C_10
REMARK                            x       y       z     vdW  Elec       q    Type
REMARK                         _______ _______ _______ _____ _____    ______ ____
ROOT
ATOM      1  C   UNL     1      88.042  64.502  86.713  0.00  0.00    +0.000 A 
ATOM      2  C   UNL     1      88.523  65.782  87.006  0.00  0.00    +0.000 A 
ATOM      3  C   UNL     1      89.714  66.251  86.453  0.00  0.00    +0.000 A 
ATOM      4  C   UNL     1      90.449  65.440  85.600  0.00  0.00    +0.000 A 
ATOM      5  C   UNL     1      89.996  64.164  85.301  0.00  0.00    +0.000 A 
ATOM      6  C   UNL     1      88.804  63.701  85.855  0.00  0.00    +0.000 A 
ATOM      7  F   UNL     1      88.384  62.463  85.561  0.00  0.00    +0.000 F 
ATOM      8  F   UNL     1      90.703  63.377  84.480  0.00  0.00    +0.000 F 
ATOM      9  F   UNL     1      91.593  65.890  85.068  0.00  0.00    +0.000 F 
ATOM     10  F   UNL     1      90.146  67.485  86.748  0.00  0.00    +0.000 F 
ATOM     11  F   UNL     1      87.824  66.578  87.828  0.00  0.00    +0.000 F 
ENDROOT
BRANCH   1  12
ATOM     12  C   UNL     1      86.759  63.996  87.317  0.00  0.00    +0.000 C 
BRANCH  12  13
ATOM     13  C   UNL     1      86.955  63.018  88.461  0.00  0.00    +0.000 C 
ATOM     14  O   UNL     1      86.716  61.820  88.325  0.00  0.00    +0.000 OA
BRANCH  13  18
ATOM     15  C   UNL     1      88.276  64.462  92.276  0.00  0.00    +0.000 A 
ATOM     16  C   UNL     1      89.224  64.100  91.318  0.00  0.00    +0.000 A 
ATOM     17  C   UNL     1      88.813  63.622  90.070  0.00  0.00    +0.000 A 
ATOM     18  C   UNL     1      87.450  63.512  89.778  0.00  0.00    +0.000 A 
ATOM     19  C   UNL     1      86.504  63.862  90.749  0.00  0.00    +0.000 A 
ATOM     20  C   UNL     1      86.918  64.339  91.994  0.00  0.00    +0.000 A 
ENDBRANCH  13  18
ENDBRANCH  12  13
ENDBRANCH   1  12
TORSDOF 3
ENDMDL
