MODEL 1
REMARK VINA RESULT:      -4.6      0.000      0.000
REMARK  Name = *****
REMARK  5 active torsions:
REMARK  status: ('A' for Active; 'I' for Inactive)
REMARK    1  A    between atoms: C_1  and  C_2
REMARK    2  A    between atoms: C_4  and  C_8
REMARK    3  A    between atoms: C_8  and  O_10
REMARK    4  A    between atoms: O_10  and  C_11
REMARK    5  A    between atoms: C_16  and  C_17
REMARK                            x       y       z     vdW  Elec       q    Type
REMARK                         _______ _______ _______ _____ _____    ______ ____
ROOT
ATOM      1  C   UNL     1     102.030 126.107  84.178  0.00  0.00    +0.000 C 
ATOM      2  O   UNL     1     101.859 125.220  85.001  0.00  0.00    +0.000 OA
ENDROOT
BRANCH   1   6
ATOM      3  C   UNL     1      99.700 130.595  84.028  0.00  0.00    +0.000 C 
ATOM      4  C   UNL     1      99.804 129.159  83.603  0.00  0.00    +0.000 A 
ATOM      5  C   UNL     1     100.851 128.355  84.078  0.00  0.00    +0.000 A 
ATOM      6  C   UNL     1     100.936 127.003  83.709  0.00  0.00    +0.000 A 
ATOM      7  C   UNL     1      99.958 126.459  82.867  0.00  0.00    +0.000 A 
ATOM      8  C   UNL     1      98.906 127.250  82.405  0.00  0.00    +0.000 A 
ATOM      9  C   UNL     1      98.827 128.592  82.777  0.00  0.00    +0.000 A 
ENDBRANCH   1   6
BRANCH   1  10
ATOM     10  O   UNL     1     103.212 126.447  83.546  0.00  0.00    +0.000 OA
BRANCH  10  11
ATOM     11  C   UNL     1     103.604 125.547  82.548  0.00  0.00    +0.000 A 
ATOM     12  C   UNL     1     104.044 124.274  82.916  0.00  0.00    +0.000 A 
ATOM     13  C   UNL     1     104.485 123.393  81.933  0.00  0.00    +0.000 A 
ATOM     14  C   UNL     1     104.497 123.791  80.597  0.00  0.00    +0.000 A 
ATOM     15  C   UNL     1     104.075 125.075  80.238  0.00  0.00    +0.000 A 
ATOM     16  C   UNL     1     103.633 125.978  81.214  0.00  0.00    +0.000 A 
ATOM     17  C   UNL     1     103.176 127.353  80.832  0.00  0.00    +0.000 C 
ENDBRANCH  10  11
ENDBRANCH   1  10
TORSDOF 3
ENDMDL
