MODEL 1
REMARK VINA RESULT:      -4.9      0.000      0.000
REMARK  Name = *****
REMARK  6 active torsions:
REMARK  status: ('A' for Active; 'I' for Inactive)
REMARK    1  A    between atoms: C_1  and  C_2
REMARK    2  A    between atoms: C_5  and  C_8
REMARK    3  A    between atoms: C_8  and  O_10
REMARK    4  A    between atoms: O_10  and  C_11
REMARK    5  A    between atoms: C_11  and  C_12
REMARK    6  A    between atoms: C_17  and  C_18
REMARK                            x       y       z     vdW  Elec       q    Type
REMARK                         _______ _______ _______ _____ _____    ______ ____
ROOT
ATOM      1  C   UNL     1     104.641 124.438  80.081  0.00  0.00    +0.000 C 
ATOM      2  O   UNL     1     105.611 124.648  79.369  0.00  0.00    +0.000 OA
ENDROOT
BRANCH   1   7
ATOM      3  C   UNL     1     104.465 120.069  83.896  0.00  0.00    +0.000 C 
ATOM      4  C   UNL     1     104.514 121.215  82.929  0.00  0.00    +0.000 A 
ATOM      5  C   UNL     1     104.396 122.537  83.373  0.00  0.00    +0.000 A 
ATOM      6  C   UNL     1     104.434 123.598  82.463  0.00  0.00    +0.000 A 
ATOM      7  C   UNL     1     104.586 123.348  81.092  0.00  0.00    +0.000 A 
ATOM      8  C   UNL     1     104.696 122.025  80.646  0.00  0.00    +0.000 A 
ATOM      9  C   UNL     1     104.658 120.966  81.558  0.00  0.00    +0.000 A 
ENDBRANCH   1   7
BRANCH   1  10
ATOM     10  O   UNL     1     103.484 125.143  80.087  0.00  0.00    +0.000 OA
BRANCH  10  11
ATOM     11  C   UNL     1     103.618 126.554  80.289  0.00  0.00    +0.000 C 
BRANCH  11  12
ATOM     12  C   UNL     1     102.891 126.979  81.545  0.00  0.00    +0.000 A 
ATOM     13  C   UNL     1     101.795 126.214  81.978  0.00  0.00    +0.000 A 
ATOM     14  C   UNL     1     101.087 126.560  83.128  0.00  0.00    +0.000 A 
ATOM     15  C   UNL     1     101.471 127.672  83.869  0.00  0.00    +0.000 A 
ATOM     16  C   UNL     1     102.565 128.436  83.461  0.00  0.00    +0.000 A 
ATOM     17  C   UNL     1     103.283 128.105  82.299  0.00  0.00    +0.000 A 
ATOM     18  C   UNL     1     104.474 128.941  81.918  0.00  0.00    +0.000 C 
ENDBRANCH  11  12
ENDBRANCH  10  11
ENDBRANCH   1  10
TORSDOF 4
ENDMDL
