REMARK  Name = *****
REMARK  3 active torsions:
REMARK  status: ('A' for Active; 'I' for Inactive)
REMARK    1  A    between atoms: C_6  and  C_7
REMARK    2  A    between atoms: C_8  and  C_9
REMARK    3  A    between atoms: C_8  and  C_11
REMARK                            x       y       z     vdW  Elec       q    Type
REMARK                         _______ _______ _______ _____ _____    ______ ____
ROOT
ATOM      1  C   UNL     1      -3.392   0.172  -0.111  0.00  0.00    +0.000 C 
ATOM      2  C   UNL     1      -4.105   1.256   0.257  0.00  0.00    +0.000 C 
ENDROOT
BRANCH   1   8
ATOM      3  C   UNL     1      -1.222  -0.195  -1.243  0.00  0.00    +0.000 A 
ATOM      4  C   UNL     1       0.166  -0.339  -1.217  0.00  0.00    +0.000 A 
ATOM      5  C   UNL     1       0.842  -0.252  -0.006  0.00  0.00    +0.000 A 
ATOM      6  C   UNL     1       0.155  -0.026   1.181  0.00  0.00    +0.000 A 
ATOM      7  C   UNL     1      -1.233   0.119   1.158  0.00  0.00    +0.000 A 
ATOM      8  C   UNL     1      -1.930   0.045  -0.057  0.00  0.00    +0.000 A 
ATOM      9  F   UNL     1       2.174  -0.393   0.018  0.00  0.00    +0.000 F 
ENDBRANCH   1   8
BRANCH   2  10
ATOM     10  C   UNL     1      -5.578   1.217   0.118  0.00  0.00    +0.000 A 
ATOM     11  C   UNL     1      -6.336   0.231   0.774  0.00  0.00    +0.000 A 
ATOM     12  C   UNL     1      -7.726   0.203   0.644  0.00  0.00    +0.000 A 
ATOM     13  C   UNL     1      -8.362   1.160  -0.137  0.00  0.00    +0.000 A 
ATOM     14  C   UNL     1      -7.634   2.147  -0.790  0.00  0.00    +0.000 A 
ATOM     15  C   UNL     1      -6.243   2.178  -0.662  0.00  0.00    +0.000 A 
ATOM     16  F   UNL     1      -9.695   1.132  -0.260  0.00  0.00    +0.000 F 
ENDBRANCH   2  10
BRANCH   2  17
ATOM     17  C   UNL     1      -3.491   2.459   0.730  0.00  0.00    +0.000 C 
ATOM     18  N   UNL     1      -3.005   3.439   1.117  0.00  0.00    +0.000 NA
ENDBRANCH   2  17
TORSDOF 3
