MODEL 1
REMARK VINA RESULT:      -4.7      0.000      0.000
REMARK  Name = *****
REMARK  6 active torsions:
REMARK  status: ('A' for Active; 'I' for Inactive)
REMARK    1  A    between atoms: C_1  and  C_2
REMARK    2  A    between atoms: C_2  and  O_4
REMARK    3  A    between atoms: O_4  and  C_5
REMARK    4  A    between atoms: C_5  and  C_6
REMARK    5  A    between atoms: C_5  and  C_13
REMARK    6  A    between atoms: C_6  and  C_7
REMARK                            x       y       z     vdW  Elec       q    Type
REMARK                         _______ _______ _______ _____ _____    ______ ____
ROOT
ATOM      1  C   UNL     1      87.790  69.965  87.790  0.00  0.00    +0.000 C 
ENDROOT
BRANCH   1   2
ATOM      2  C   UNL     1      88.200  68.529  87.407  0.00  0.00    +0.000 C 
ATOM      3  C   UNL     1      89.348  68.348  86.723  0.00  0.00    +0.000 C 
ATOM      4  C   UNL     1      90.020  67.112  86.206  0.00  0.00    +0.000 C 
ATOM      5  C   UNL     1      89.225  65.816  86.148  0.00  0.00    +0.000 C 
ATOM      6  C   UNL     1      88.684  65.381  87.501  0.00  0.00    +0.000 C 
ATOM      7  C   UNL     1      87.483  66.160  87.929  0.00  0.00    +0.000 C 
ATOM      8  C   UNL     1      87.282  67.482  87.836  0.00  0.00    +0.000 C 
ENDBRANCH   1   2
BRANCH   1   9
ATOM      9  O   UNL     1      88.811  70.519  88.648  0.00  0.00    +0.000 OA
BRANCH   9  11
ATOM     10  C   UNL     1      87.271  70.412  90.403  0.00  0.00    +0.000 C 
ATOM     11  C   UNL     1      88.379  71.182  89.753  0.00  0.00    +0.000 C 
ATOM     12  O   UNL     1      88.807  72.250  90.169  0.00  0.00    +0.000 OA
ENDBRANCH   9  11
ENDBRANCH   1   9
BRANCH   1  13
ATOM     13  C   UNL     1      87.631  70.869  86.547  0.00  0.00    +0.000 C 
BRANCH  13  14
ATOM     14  C   UNL     1      86.264  71.506  86.390  0.00  0.00    +0.000 A 
ATOM     15  C   UNL     1      85.501  71.802  87.530  0.00  0.00    +0.000 A 
ATOM     16  C   UNL     1      84.249  72.410  87.414  0.00  0.00    +0.000 A 
ATOM     17  C   UNL     1      83.745  72.733  86.157  0.00  0.00    +0.000 A 
ATOM     18  C   UNL     1      84.497  72.456  85.017  0.00  0.00    +0.000 A 
ATOM     19  C   UNL     1      85.752  71.854  85.132  0.00  0.00    +0.000 A 
ENDBRANCH  13  14
ENDBRANCH   1  13
TORSDOF 5
ENDMDL
