REMARK  Name = *****
REMARK  7 active torsions:
REMARK  status: ('A' for Active; 'I' for Inactive)
REMARK    1  A    between atoms: C_1  and  C_2
REMARK    2  A    between atoms: C_5  and  C_8
REMARK    3  A    between atoms: C_9  and  C_10
REMARK    4  A    between atoms: C_11  and  O_18
REMARK    5  A    between atoms: C_14  and  O_16
REMARK    6  A    between atoms: O_16  and  C_17
REMARK    7  A    between atoms: O_18  and  C_19
REMARK                            x       y       z     vdW  Elec       q    Type
REMARK                         _______ _______ _______ _____ _____    ______ ____
ROOT
ATOM      1  C   UNL     1      -5.486   1.235   0.110  0.00  0.00    +0.000 A 
ATOM      2  C   UNL     1      -6.045   0.034  -0.354  0.00  0.00    +0.000 A 
ATOM      3  C   UNL     1      -7.400  -0.042  -0.684  0.00  0.00    +0.000 A 
ATOM      4  C   UNL     1      -8.227   1.072  -0.525  0.00  0.00    +0.000 A 
ATOM      5  C   UNL     1      -7.696   2.271  -0.054  0.00  0.00    +0.000 A 
ATOM      6  C   UNL     1      -6.331   2.347   0.252  0.00  0.00    +0.000 A 
ENDROOT
BRANCH   1   8
ATOM      7  C   UNL     1      -3.529   1.968   1.444  0.00  0.00    +0.000 C 
ATOM      8  C   UNL     1      -4.042   1.360   0.362  0.00  0.00    +0.000 C 
BRANCH   7  13
ATOM      9  C   UNL     1       2.110   2.437   2.667  0.00  0.00    +0.000 C 
ATOM     10  C   UNL     1       0.656   2.284   2.332  0.00  0.00    +0.000 A 
ATOM     11  C   UNL     1       0.209   2.427   1.015  0.00  0.00    +0.000 A 
ATOM     12  C   UNL     1      -1.152   2.315   0.710  0.00  0.00    +0.000 A 
ATOM     13  C   UNL     1      -2.089   2.061   1.718  0.00  0.00    +0.000 A 
ATOM     14  C   UNL     1      -1.643   1.951   3.040  0.00  0.00    +0.000 A 
ATOM     15  C   UNL     1      -0.282   2.060   3.345  0.00  0.00    +0.000 A 
ENDBRANCH   7  13
ENDBRANCH   1   8
BRANCH   5  16
ATOM     16  O   UNL     1      -8.389   3.436   0.139  0.00  0.00    +0.000 OA
ATOM     17  C   UNL     1      -9.772   3.424  -0.190  0.00  0.00    +0.000 C 
ENDBRANCH   5  16
BRANCH   2  18
ATOM     18  O   UNL     1      -5.303  -1.102  -0.563  0.00  0.00    +0.000 OA
ATOM     19  C   UNL     1      -4.940  -1.717   0.674  0.00  0.00    +0.000 C 
ENDBRANCH   2  18
TORSDOF 4
