MODEL 1
REMARK VINA RESULT:      -3.6      0.000      0.000
REMARK  Name = *****
REMARK  4 active torsions:
REMARK  status: ('A' for Active; 'I' for Inactive)
REMARK    1  A    between atoms: C_4  and  C_7
REMARK    2  A    between atoms: C_7  and  C_8
REMARK    3  A    between atoms: C_8  and  S_9
REMARK    4  A    between atoms: S_9  and  C_10
REMARK                            x       y       z     vdW  Elec       q    Type
REMARK                         _______ _______ _______ _____ _____    ______ ____
ROOT
ATOM      1  C   UNL     1      89.233  70.447  87.326  0.00  0.00    +0.000 C 
ENDROOT
BRANCH   1   2
ATOM      2  C   UNL     1      89.669  69.029  86.936  0.00  0.00    +0.000 C 
BRANCH   2   6
ATOM      3  C   UNL     1      89.600  65.251  86.039  0.00  0.00    +0.000 C 
ATOM      4  C   UNL     1      90.571  66.224  85.387  0.00  0.00    +0.000 C 
ATOM      5  S   UNL     1      89.741  67.571  84.501  0.00  0.00    +0.000 S 
ATOM      6  C   UNL     1      88.803  68.342  85.865  0.00  0.00    +0.000 C 
ATOM      7  S   UNL     1      87.634  67.145  86.602  0.00  0.00    +0.000 S 
ATOM      8  C   UNL     1      88.779  65.857  87.167  0.00  0.00    +0.000 C 
ENDBRANCH   2   6
ENDBRANCH   1   2
BRANCH   1   9
ATOM      9  S   UNL     1      88.078  70.451  88.739  0.00  0.00    +0.000 S 
BRANCH   9  10
ATOM     10  C   UNL     1      86.669  71.211  87.956  0.00  0.00    +0.000 A 
ATOM     11  C   UNL     1      86.616  71.289  86.561  0.00  0.00    +0.000 A 
ATOM     12  C   UNL     1      85.517  71.874  85.930  0.00  0.00    +0.000 A 
ATOM     13  C   UNL     1      84.463  72.378  86.691  0.00  0.00    +0.000 A 
ATOM     14  C   UNL     1      84.504  72.294  88.082  0.00  0.00    +0.000 A 
ATOM     15  C   UNL     1      85.605  71.708  88.713  0.00  0.00    +0.000 A 
ENDBRANCH   9  10
ENDBRANCH   1   9
TORSDOF 4
ENDMDL
