MODEL 1
REMARK VINA RESULT:      -5.1      0.000      0.000
REMARK  Name = *****
REMARK  5 active torsions:
REMARK  status: ('A' for Active; 'I' for Inactive)
REMARK    1  A    between atoms: C_4  and  C_7
REMARK    2  A    between atoms: C_8  and  C_9
REMARK    3  A    between atoms: C_11  and  N_17
REMARK    4  A    between atoms: C_12  and  N_15
REMARK    5  A    between atoms: N_17  and  O_18
REMARK                            x       y       z     vdW  Elec       q    Type
REMARK                         _______ _______ _______ _____ _____    ______ ____
ROOT
ATOM      1  C   UNL     1     103.760 124.981  81.327  0.00  0.00    +0.000 A 
ATOM      2  C   UNL     1     104.411 124.863  80.090  0.00  0.00    +0.000 A 
ATOM      3  C   UNL     1     105.348 123.841  79.844  0.00  0.00    +0.000 A 
ATOM      4  C   UNL     1     105.608 122.895  80.868  0.00  0.00    +0.000 A 
ATOM      5  C   UNL     1     104.960 123.021  82.104  0.00  0.00    +0.000 A 
ATOM      6  C   UNL     1     104.055 124.060  82.336  0.00  0.00    +0.000 A 
ENDROOT
BRANCH   1   8
ATOM      7  C   UNL     1     101.751 125.941  82.427  0.00  0.00    +0.000 C 
ATOM      8  C   UNL     1     102.813 126.068  81.616  0.00  0.00    +0.000 C 
BRANCH   7  12
ATOM      9  C   UNL     1      99.083 129.140  83.400  0.00  0.00    +0.000 A 
ATOM     10  C   UNL     1      98.582 127.991  82.792  0.00  0.00    +0.000 A 
ATOM     11  C   UNL     1      99.444 126.941  82.463  0.00  0.00    +0.000 A 
ATOM     12  C   UNL     1     100.817 127.035  82.728  0.00  0.00    +0.000 A 
ATOM     13  C   UNL     1     101.305 128.189  83.355  0.00  0.00    +0.000 A 
ATOM     14  C   UNL     1     100.443 129.239  83.685  0.00  0.00    +0.000 A 
ENDBRANCH   7  12
ENDBRANCH   1   8
BRANCH   4  15
ATOM     15  N   UNL     1     106.460 121.818  80.698  0.00  0.00    +0.000 NA
ATOM     16  O   UNL     1     107.651 122.153  80.654  0.00  0.00    +0.000 OA
ENDBRANCH   4  15
BRANCH   3  17
ATOM     17  N   UNL     1     105.915 123.698  78.543  0.00  0.00    +0.000 N 
ATOM     18  H   UNL     1     105.333 123.613  77.753  0.00  0.00    +0.000 HD
BRANCH  17  19
ATOM     19  O   UNL     1     107.303 123.680  78.400  0.00  0.00    +0.000 OA
ATOM     20  H   UNL     1     107.530 123.631  77.459  0.00  0.00    +0.000 HD
ENDBRANCH  17  19
ENDBRANCH   3  17
TORSDOF 5
ENDMDL
