MODEL 1
REMARK VINA RESULT:      -4.6      0.000      0.000
REMARK  Name = *****
REMARK  4 active torsions:
REMARK  status: ('A' for Active; 'I' for Inactive)
REMARK    1  A    between atoms: C_6  and  C_8
REMARK    2  A    between atoms: C_8  and  C_10
REMARK    3  A    between atoms: C_10  and  C_11
REMARK    4  A    between atoms: C_11  and  C_12
REMARK                            x       y       z     vdW  Elec       q    Type
REMARK                         _______ _______ _______ _____ _____    ______ ____
ROOT
ATOM      1  C   UNL     1      89.517  69.166  86.281  0.00  0.00    +0.000 C 
ATOM      2  O   UNL     1      90.146  68.189  86.686  0.00  0.00    +0.000 OA
ENDROOT
BRANCH   1   8
ATOM      3  C   UNL     1      88.288  71.130  89.460  0.00  0.00    +0.000 C 
ATOM      4  C   UNL     1      86.879  70.587  89.683  0.00  0.00    +0.000 C 
ATOM      5  C   UNL     1      85.865  71.082  88.663  0.00  0.00    +0.000 C 
ATOM      6  C   UNL     1      86.341  71.137  87.221  0.00  0.00    +0.000 C 
ATOM      7  C   UNL     1      87.140  69.913  86.777  0.00  0.00    +0.000 C 
ATOM      8  C   UNL     1      88.585  69.889  87.234  0.00  0.00    +0.000 C 
ATOM      9  C   UNL     1      89.066  70.461  88.355  0.00  0.00    +0.000 C 
ATOM     10  F   UNL     1      85.496  72.351  89.017  0.00  0.00    +0.000 F 
ENDBRANCH   1   8
BRANCH   1  11
ATOM     11  C   UNL     1      89.668  69.672  84.856  0.00  0.00    +0.000 C 
BRANCH  11  12
ATOM     12  C   UNL     1      90.308  71.059  84.814  0.00  0.00    +0.000 C 
BRANCH  12  13
ATOM     13  C   UNL     1      89.431  72.045  84.082  0.00  0.00    +0.000 A 
ATOM     14  C   UNL     1      88.060  71.797  83.926  0.00  0.00    +0.000 A 
ATOM     15  C   UNL     1      87.254  72.698  83.229  0.00  0.00    +0.000 A 
ATOM     16  C   UNL     1      87.810  73.852  82.680  0.00  0.00    +0.000 A 
ATOM     17  C   UNL     1      89.172  74.105  82.826  0.00  0.00    +0.000 A 
ATOM     18  C   UNL     1      89.980  73.206  83.523  0.00  0.00    +0.000 A 
ENDBRANCH  12  13
ENDBRANCH  11  12
ENDBRANCH   1  11
TORSDOF 4
ENDMDL
