REMARK  Name = *****
REMARK  4 active torsions:
REMARK  status: ('A' for Active; 'I' for Inactive)
REMARK    1  A    between atoms: C_1  and  C_2
REMARK    2  A    between atoms: C_2  and  C_15
REMARK    3  A    between atoms: N_3  and  O_4
REMARK    4  A    between atoms: O_4  and  C_5
REMARK                            x       y       z     vdW  Elec       q    Type
REMARK                         _______ _______ _______ _____ _____    ______ ____
ROOT
ATOM      1  O   UNL     1       2.486  -1.739  -1.576  0.00  0.00    +0.000 OA
ENDROOT
BRANCH   1   2
ATOM      2  C   UNL     1       3.274  -2.602  -2.336  0.00  0.00    +0.000 A 
ATOM      3  N   UNL     1       4.630  -2.502  -2.317  0.00  0.00    +0.000 NA
ATOM      4  C   UNL     1       5.311  -3.379  -3.085  0.00  0.00    +0.000 A 
ATOM      5  C   UNL     1       4.709  -4.348  -3.867  0.00  0.00    +0.000 A 
ATOM      6  C   UNL     1       3.328  -4.421  -3.862  0.00  0.00    +0.000 A 
ATOM      7  C   UNL     1       2.589  -3.542  -3.090  0.00  0.00    +0.000 A 
ATOM      8  F   UNL     1       1.250  -3.605  -3.080  0.00  0.00    +0.000 F 
ATOM      9  F   UNL     1       2.704  -5.345  -4.607  0.00  0.00    +0.000 F 
ATOM     10  F   UNL     1       5.438  -5.192  -4.609  0.00  0.00    +0.000 F 
ATOM     11  F   UNL     1       6.649  -3.293  -3.077  0.00  0.00    +0.000 F 
ENDBRANCH   1   2
BRANCH   1  14
ATOM     12  C   UNL     1       1.074   0.010  -0.097  0.00  0.00    +0.000 C 
ATOM     13  C   UNL     1       2.590   0.005  -0.156  0.00  0.00    +0.000 C 
ATOM     14  N   UNL     1       3.285  -0.835  -0.867  0.00  0.00    +0.000 NA
BRANCH  13  15
ATOM     15  C   UNL     1       3.329   1.027   0.661  0.00  0.00    +0.000 A 
ATOM     16  C   UNL     1       2.662   1.935   1.495  0.00  0.00    +0.000 A 
ATOM     17  C   UNL     1       3.385   2.872   2.240  0.00  0.00    +0.000 A 
ATOM     18  C   UNL     1       4.776   2.909   2.161  0.00  0.00    +0.000 A 
ATOM     19  C   UNL     1       5.449   2.010   1.338  0.00  0.00    +0.000 A 
ATOM     20  C   UNL     1       4.730   1.074   0.592  0.00  0.00    +0.000 A 
ENDBRANCH  13  15
ENDBRANCH   1  14
TORSDOF 3
