REMARK  Name = *****
REMARK  4 active torsions:
REMARK  status: ('A' for Active; 'I' for Inactive)
REMARK    1  A    between atoms: C_1  and  C_2
REMARK    2  A    between atoms: C_2  and  C_3
REMARK    3  A    between atoms: C_2  and  S_10
REMARK    4  A    between atoms: S_10  and  C_12
REMARK                            x       y       z     vdW  Elec       q    Type
REMARK                         _______ _______ _______ _____ _____    ______ ____
ROOT
ATOM      1  C   UNL     1       1.048  -0.056  -0.172  0.00  0.00    +0.000 C 
ATOM      2  C   UNL     1       2.572  -0.178  -0.105  0.00  0.00    +0.000 C 
ENDROOT
BRANCH   2   3
ATOM      3  C   UNL     1       3.017  -0.910   1.151  0.00  0.00    +0.000 A 
ATOM      4  C   UNL     1       2.596  -2.220   1.434  0.00  0.00    +0.000 A 
ATOM      5  C   UNL     1       3.031  -2.874   2.589  0.00  0.00    +0.000 A 
ATOM      6  C   UNL     1       3.887  -2.224   3.473  0.00  0.00    +0.000 A 
ATOM      7  C   UNL     1       4.313  -0.924   3.213  0.00  0.00    +0.000 A 
ATOM      8  C   UNL     1       3.879  -0.270   2.057  0.00  0.00    +0.000 A 
ATOM      9 CL   UNL     1       4.425  -3.032   4.894  0.00  0.00    +0.000 Cl
ENDBRANCH   2   3
BRANCH   2  10
ATOM     10  S   UNL     1       3.192  -1.003  -1.639  0.00  0.00    +0.000 S 
ATOM     11  O   UNL     1       2.679  -0.212  -2.809  0.00  0.00    +0.000 OA
BRANCH  10  12
ATOM     12  C   UNL     1       4.935  -0.545  -1.476  0.00  0.00    +0.000 A 
ATOM     13  C   UNL     1       5.810  -1.389  -0.783  0.00  0.00    +0.000 A 
ATOM     14  C   UNL     1       7.156  -1.045  -0.647  0.00  0.00    +0.000 A 
ATOM     15  C   UNL     1       7.635   0.137  -1.210  0.00  0.00    +0.000 A 
ATOM     16  C   UNL     1       6.771   0.974  -1.914  0.00  0.00    +0.000 A 
ATOM     17  C   UNL     1       5.424   0.633  -2.050  0.00  0.00    +0.000 A 
ENDBRANCH  10  12
ENDBRANCH   2  10
TORSDOF 3
