MODEL 1
REMARK VINA RESULT:      -5.0      0.000      0.000
REMARK  Name = *****
REMARK  4 active torsions:
REMARK  status: ('A' for Active; 'I' for Inactive)
REMARK    1  A    between atoms: C_1  and  C_2
REMARK    2  A    between atoms: C_4  and  O_8
REMARK    3  A    between atoms: O_8  and  C_9
REMARK    4  A    between atoms: C_9  and  C_11
REMARK                            x       y       z     vdW  Elec       q    Type
REMARK                         _______ _______ _______ _____ _____    ______ ____
ROOT
ATOM      1  C   UNL     1     102.676 125.632  83.555  0.00  0.00    +0.000 C 
ATOM      2  O   UNL     1     102.257 125.208  84.622  0.00  0.00    +0.000 OA
ENDROOT
BRANCH   1   3
ATOM      3  C   UNL     1     103.465 124.795  82.609  0.00  0.00    +0.000 A 
ATOM      4  C   UNL     1     104.126 123.625  83.005  0.00  0.00    +0.000 A 
ATOM      5  C   UNL     1     104.847 122.892  82.066  0.00  0.00    +0.000 A 
ATOM      6  C   UNL     1     104.918 123.308  80.742  0.00  0.00    +0.000 A 
ATOM      7  C   UNL     1     104.267 124.466  80.334  0.00  0.00    +0.000 A 
ATOM      8  C   UNL     1     103.541 125.211  81.267  0.00  0.00    +0.000 A 
ATOM      9  F   UNL     1     105.615 122.595  79.847  0.00  0.00    +0.000 F 
ATOM     10  F   UNL     1     105.477 121.775  82.454  0.00  0.00    +0.000 F 
ENDBRANCH   1   3
BRANCH   1  11
ATOM     11  O   UNL     1     102.515 126.900  83.031  0.00  0.00    +0.000 OA
BRANCH  11  15
ATOM     12  C   UNL     1      99.368 130.582  84.083  0.00  0.00    +0.000 C 
ATOM     13  C   UNL     1      99.657 129.211  83.546  0.00  0.00    +0.000 A 
ATOM     14  C   UNL     1     100.960 128.699  83.579  0.00  0.00    +0.000 A 
ATOM     15  C   UNL     1     101.216 127.427  83.065  0.00  0.00    +0.000 A 
ATOM     16  C   UNL     1     100.207 126.673  82.473  0.00  0.00    +0.000 A 
ATOM     17  C   UNL     1      98.912 127.186  82.423  0.00  0.00    +0.000 A 
ATOM     18  C   UNL     1      98.639 128.450  82.954  0.00  0.00    +0.000 A 
ENDBRANCH  11  15
ENDBRANCH   1  11
TORSDOF 3
ENDMDL
