REMARK  Name = *****
REMARK  5 active torsions:
REMARK  status: ('A' for Active; 'I' for Inactive)
REMARK    1  A    between atoms: C_1  and  O_2
REMARK    2  A    between atoms: O_2  and  C_3
REMARK    3  A    between atoms: C_3  and  C_4
REMARK    4  A    between atoms: C_3  and  C_10
REMARK    5  A    between atoms: C_10  and  C_11
REMARK                            x       y       z     vdW  Elec       q    Type
REMARK                         _______ _______ _______ _____ _____    ______ ____
ROOT
ATOM      1  C   UNL     1       3.323  -0.225   1.101  0.00  0.00    +0.000 C 
ENDROOT
BRANCH   1   2
ATOM      2  C   UNL     1       2.763  -1.540   1.631  0.00  0.00    +0.000 A 
ATOM      3  C   UNL     1       2.594  -1.724   3.013  0.00  0.00    +0.000 A 
ATOM      4  C   UNL     1       2.104  -2.931   3.514  0.00  0.00    +0.000 A 
ATOM      5  C   UNL     1       1.781  -3.969   2.642  0.00  0.00    +0.000 A 
ATOM      6  C   UNL     1       1.946  -3.802   1.270  0.00  0.00    +0.000 A 
ATOM      7  C   UNL     1       2.435  -2.595   0.767  0.00  0.00    +0.000 A 
ENDBRANCH   1   2
BRANCH   1   9
ATOM      8  C   UNL     1       1.428   0.742   0.023  0.00  0.00    +0.000 C 
ATOM      9  O   UNL     1       2.705   0.140  -0.146  0.00  0.00    +0.000 OA
ENDBRANCH   1   9
BRANCH   1  10
ATOM     10  C   UNL     1       4.876  -0.282   0.977  0.00  0.00    +0.000 C 
ATOM     11 CL   UNL     1       5.540   1.372   0.684  0.00  0.00    +0.000 Cl
BRANCH  10  12
ATOM     12  C   UNL     1       5.444  -1.245  -0.052  0.00  0.00    +0.000 A 
ATOM     13  C   UNL     1       5.251  -1.059  -1.431  0.00  0.00    +0.000 A 
ATOM     14  C   UNL     1       5.771  -1.968  -2.355  0.00  0.00    +0.000 A 
ATOM     15  C   UNL     1       6.491  -3.076  -1.916  0.00  0.00    +0.000 A 
ATOM     16  C   UNL     1       6.691  -3.277  -0.553  0.00  0.00    +0.000 A 
ATOM     17  C   UNL     1       6.172  -2.369   0.373  0.00  0.00    +0.000 A 
ENDBRANCH  10  12
ENDBRANCH   1  10
TORSDOF 4
