MODEL 1
REMARK VINA RESULT:      -4.5      0.000      0.000
REMARK  Name = *****
REMARK  4 active torsions:
REMARK  status: ('A' for Active; 'I' for Inactive)
REMARK    1  A    between atoms: C_1  and  C_2
REMARK    2  A    between atoms: C_5  and  C_7
REMARK    3  A    between atoms: C_7  and  C_9
REMARK    4  A    between atoms: C_10  and  C_11
REMARK                            x       y       z     vdW  Elec       q    Type
REMARK                         _______ _______ _______ _____ _____    ______ ____
ROOT
ATOM      1  C   UNL     1      99.108 127.534  82.764  0.00  0.00    +0.000 C 
ATOM      2  O   UNL     1      98.107 127.363  82.067  0.00  0.00    +0.000 OA
ENDROOT
BRANCH   1   7
ATOM      3  C   UNL     1      99.741 130.524  87.100  0.00  0.00    +0.000 C 
ATOM      4  C   UNL     1      99.590 130.071  85.688  0.00  0.00    +0.000 A 
ATOM      5  C   UNL     1      99.575 130.832  84.539  0.00  0.00    +0.000 A 
ATOM      6  C   UNL     1      99.403 130.035  83.367  0.00  0.00    +0.000 A 
ATOM      7  C   UNL     1      99.295 128.684  83.647  0.00  0.00    +0.000 A 
ATOM      8  S   UNL     1      99.398 128.410  85.343  0.00  0.00    +0.000 S 
ENDBRANCH   1   7
BRANCH   1   9
ATOM      9  C   UNL     1     100.200 126.508  82.714  0.00  0.00    +0.000 C 
ATOM     10  C   UNL     1     101.383 126.800  82.150  0.00  0.00    +0.000 C 
BRANCH  10  11
ATOM     11  C   UNL     1     102.503 125.854  82.080  0.00  0.00    +0.000 A 
ATOM     12  C   UNL     1     102.963 125.158  83.206  0.00  0.00    +0.000 A 
ATOM     13  C   UNL     1     104.019 124.249  83.094  0.00  0.00    +0.000 A 
ATOM     14  C   UNL     1     104.617 124.020  81.856  0.00  0.00    +0.000 A 
ATOM     15  C   UNL     1     104.156 124.695  80.727  0.00  0.00    +0.000 A 
ATOM     16  C   UNL     1     103.100 125.604  80.839  0.00  0.00    +0.000 A 
ENDBRANCH  10  11
ENDBRANCH   1   9
TORSDOF 3
ENDMDL
