MODEL 1
REMARK VINA RESULT:      -4.1      0.000      0.000
REMARK  Name = *****
REMARK  3 active torsions:
REMARK  status: ('A' for Active; 'I' for Inactive)
REMARK    1  A    between atoms: N_4  and  C_7
REMARK    2  A    between atoms: C_7  and  C_9
REMARK    3  A    between atoms: C_9  and  C_10
REMARK                            x       y       z     vdW  Elec       q    Type
REMARK                         _______ _______ _______ _____ _____    ______ ____
ROOT
ATOM      1  C   UNL     1      88.219  65.253  88.138  0.00  0.00    +0.000 C 
ATOM      2  S   UNL     1      86.843  66.235  88.265  0.00  0.00    +0.000 S 
ENDROOT
BRANCH   1   6
ATOM      3  C   UNL     1      90.976  65.100  84.789  0.00  0.00    +0.000 C 
ATOM      4  C   UNL     1      90.584  63.850  85.563  0.00  0.00    +0.000 C 
ATOM      5  C   UNL     1      89.205  63.998  86.198  0.00  0.00    +0.000 C 
ATOM      6  N   UNL     1      89.078  65.217  87.021  0.00  0.00    +0.000 N 
ATOM      7  C   UNL     1      89.521  66.447  86.344  0.00  0.00    +0.000 C 
ATOM      8  C   UNL     1      90.900  66.313  85.704  0.00  0.00    +0.000 C 
ENDBRANCH   1   6
BRANCH   1   9
ATOM      9  C   UNL     1      88.495  64.302  89.317  0.00  0.00    +0.000 C 
BRANCH   9  10
ATOM     10  C   UNL     1      87.366  63.343  89.655  0.00  0.00    +0.000 A 
ATOM     11  C   UNL     1      86.629  63.453  90.843  0.00  0.00    +0.000 A 
ATOM     12  C   UNL     1      85.578  62.572  91.114  0.00  0.00    +0.000 A 
ATOM     13  C   UNL     1      85.245  61.585  90.190  0.00  0.00    +0.000 A 
ATOM     14  C   UNL     1      85.949  61.476  88.995  0.00  0.00    +0.000 A 
ATOM     15  C   UNL     1      87.000  62.356  88.725  0.00  0.00    +0.000 A 
ATOM     16 CL   UNL     1      83.952  60.500  90.523  0.00  0.00    +0.000 Cl
ENDBRANCH   9  10
ENDBRANCH   1   9
TORSDOF 3
ENDMDL
