MODEL 1
REMARK VINA RESULT:      -4.2      0.000      0.000
REMARK  Name = *****
REMARK  4 active torsions:
REMARK  status: ('A' for Active; 'I' for Inactive)
REMARK    1  A    between atoms: C_4  and  C_7
REMARK    2  A    between atoms: C_7  and  O_8
REMARK    3  A    between atoms: O_8  and  C_9
REMARK    4  A    between atoms: C_9  and  C_10
REMARK                            x       y       z     vdW  Elec       q    Type
REMARK                         _______ _______ _______ _____ _____    ______ ____
ROOT
ATOM      1  O   UNL     1     103.514 125.089  80.201  0.00  0.00    +0.000 OA
ENDROOT
BRANCH   1   2
ATOM      2  C   UNL     1     103.806 126.475  80.363  0.00  0.00    +0.000 C 
BRANCH   2   6
ATOM      3  C   UNL     1     101.643 127.448  84.041  0.00  0.00    +0.000 C 
ATOM      4  C   UNL     1     102.482 128.544  83.390  0.00  0.00    +0.000 C 
ATOM      5  C   UNL     1     103.481 127.971  82.388  0.00  0.00    +0.000 C 
ATOM      6  C   UNL     1     102.788 127.096  81.330  0.00  0.00    +0.000 C 
ATOM      7  C   UNL     1     101.945 126.000  81.995  0.00  0.00    +0.000 C 
ATOM      8  C   UNL     1     100.949 126.581  82.996  0.00  0.00    +0.000 C 
ENDBRANCH   2   6
ENDBRANCH   1   2
BRANCH   1   9
ATOM      9  C   UNL     1     104.702 124.303  80.115  0.00  0.00    +0.000 C 
BRANCH   9  10
ATOM     10  C   UNL     1     104.651 123.179  81.120  0.00  0.00    +0.000 A 
ATOM     11  C   UNL     1     104.510 123.442  82.490  0.00  0.00    +0.000 A 
ATOM     12  C   UNL     1     104.424 122.397  83.412  0.00  0.00    +0.000 A 
ATOM     13  C   UNL     1     104.468 121.076  82.972  0.00  0.00    +0.000 A 
ATOM     14  C   UNL     1     104.595 120.799  81.612  0.00  0.00    +0.000 A 
ATOM     15  C   UNL     1     104.681 121.844  80.690  0.00  0.00    +0.000 A 
ENDBRANCH   9  10
ENDBRANCH   1   9
TORSDOF 4
ENDMDL
