MODEL 1
REMARK VINA RESULT:      -3.9      0.000      0.000
REMARK  Name = *****
REMARK  3 active torsions:
REMARK  status: ('A' for Active; 'I' for Inactive)
REMARK    1  A    between atoms: C_4  and  C_7
REMARK    2  A    between atoms: C_7  and  S_8
REMARK    3  A    between atoms: S_8  and  C_9
REMARK                            x       y       z     vdW  Elec       q    Type
REMARK                         _______ _______ _______ _____ _____    ______ ____
ROOT
ATOM      1  C   UNL     1     102.944 127.318  82.980  0.00  0.00    +0.000 C 
ENDROOT
BRANCH   1   5
ATOM      2  C   UNL     1      98.693 128.052  82.960  0.00  0.00    +0.000 A 
ATOM      3  C   UNL     1      99.560 128.989  83.522  0.00  0.00    +0.000 A 
ATOM      4  C   UNL     1     100.935 128.753  83.527  0.00  0.00    +0.000 A 
ATOM      5  C   UNL     1     101.459 127.579  82.965  0.00  0.00    +0.000 A 
ATOM      6  C   UNL     1     100.575 126.640  82.411  0.00  0.00    +0.000 A 
ATOM      7  C   UNL     1      99.200 126.878  82.406  0.00  0.00    +0.000 A 
ENDBRANCH   1   5
BRANCH   1   8
ATOM      8  S   UNL     1     103.697 127.689  81.366  0.00  0.00    +0.000 S 
BRANCH   8   9
ATOM      9  C   UNL     1     104.328 126.140  80.918  0.00  0.00    +0.000 A 
ATOM     10  C   UNL     1     105.167 126.018  79.882  0.00  0.00    +0.000 A 
ATOM     11  S   UNL     1     105.723 124.429  79.470  0.00  0.00    +0.000 S 
ATOM     12  C   UNL     1     104.816 123.579  80.718  0.00  0.00    +0.000 A 
ATOM     13  S   UNL     1     104.865 121.928  80.937  0.00  0.00    +0.000 S 
ATOM     14  S   UNL     1     103.861 124.668  81.718  0.00  0.00    +0.000 S 
ENDBRANCH   8   9
ENDBRANCH   1   8
TORSDOF 3
ENDMDL
