MODEL 1
REMARK VINA RESULT:      -4.2      0.000      0.000
REMARK  Name = *****
REMARK  3 active torsions:
REMARK  status: ('A' for Active; 'I' for Inactive)
REMARK    1  A    between atoms: C_1  and  C_2
REMARK    2  A    between atoms: C_5  and  C_8
REMARK    3  A    between atoms: C_10  and  C_11
REMARK                            x       y       z     vdW  Elec       q    Type
REMARK                         _______ _______ _______ _____ _____    ______ ____
ROOT
ATOM      1  C   UNL     1      89.432  69.958  86.645  0.00  0.00    +0.000 C 
ATOM      2  C   UNL     1      89.860  69.357  85.343  0.00  0.00    +0.000 C 
ATOM      3  C   UNL     1      89.640  68.454  86.534  0.00  0.00    +0.000 C 
ENDROOT
BRANCH   1   8
ATOM      4  C   UNL     1      84.213  72.520  87.294  0.00  0.00    +0.000 C 
ATOM      5  C   UNL     1      85.536  71.836  87.123  0.00  0.00    +0.000 A 
ATOM      6  C   UNL     1      86.258  71.399  88.236  0.00  0.00    +0.000 A 
ATOM      7  C   UNL     1      87.507  70.792  88.076  0.00  0.00    +0.000 A 
ATOM      8  C   UNL     1      88.074  70.598  86.806  0.00  0.00    +0.000 A 
ATOM      9  C   UNL     1      87.348  71.071  85.701  0.00  0.00    +0.000 A 
ATOM     10  C   UNL     1      86.098  71.681  85.854  0.00  0.00    +0.000 A 
ENDBRANCH   1   8
BRANCH   3  11
ATOM     11  C   UNL     1      88.505  67.442  86.474  0.00  0.00    +0.000 A 
ATOM     12  C   UNL     1      87.710  66.971  87.500  0.00  0.00    +0.000 A 
ATOM     13  C   UNL     1      86.799  66.054  86.920  0.00  0.00    +0.000 A 
ATOM     14  C   UNL     1      87.087  66.029  85.577  0.00  0.00    +0.000 A 
ATOM     15  O   UNL     1      88.115  66.868  85.297  0.00  0.00    +0.000 OA
ENDBRANCH   3  11
TORSDOF 2
ENDMDL
