MODEL 1
REMARK VINA RESULT:      -4.6      0.000      0.000
REMARK  Name = *****
REMARK  4 active torsions:
REMARK  status: ('A' for Active; 'I' for Inactive)
REMARK    1  A    between atoms: C_1  and  C_2
REMARK    2  A    between atoms: C_7  and  C_8
REMARK    3  A    between atoms: C_8  and  O_9
REMARK    4  A    between atoms: O_9  and  C_10
REMARK                            x       y       z     vdW  Elec       q    Type
REMARK                         _______ _______ _______ _____ _____    ______ ____
ROOT
ATOM      1  C   UNL     1     102.877 125.772  82.785  0.00  0.00    +0.000 C 
ENDROOT
BRANCH   1   8
ATOM      2  C   UNL     1     103.679 127.230  80.283  0.00  0.00    +0.000 C 
ATOM      3  C   UNL     1     104.134 125.821  80.555  0.00  0.00    +0.000 A 
ATOM      4  C   UNL     1     104.939 125.170  79.607  0.00  0.00    +0.000 A 
ATOM      5  C   UNL     1     105.364 123.857  79.809  0.00  0.00    +0.000 A 
ATOM      6  C   UNL     1     104.981 123.173  80.958  0.00  0.00    +0.000 A 
ATOM      7  C   UNL     1     104.178 123.804  81.908  0.00  0.00    +0.000 A 
ATOM      8  C   UNL     1     103.749 125.130  81.726  0.00  0.00    +0.000 A 
ENDBRANCH   1   8
BRANCH   1   9
ATOM      9  O   UNL     1     101.538 125.833  82.300  0.00  0.00    +0.000 OA
BRANCH   9  10
ATOM     10  C   UNL     1     100.791 126.916  82.669  0.00  0.00    +0.000 A 
ATOM     11  C   UNL     1     101.264 128.067  83.300  0.00  0.00    +0.000 A 
ATOM     12  C   UNL     1     100.383 129.104  83.623  0.00  0.00    +0.000 A 
ATOM     13  C   UNL     1      99.026 128.994  83.319  0.00  0.00    +0.000 A 
ATOM     14  C   UNL     1      98.549 127.845  82.693  0.00  0.00    +0.000 A 
ATOM     15  C   UNL     1      99.429 126.812  82.372  0.00  0.00    +0.000 A 
ENDBRANCH   9  10
ENDBRANCH   1   9
TORSDOF 3
ENDMDL
