MODEL 1
REMARK VINA RESULT:      -4.9      0.000      0.000
REMARK  Name = *****
REMARK  2 active torsions:
REMARK  status: ('A' for Active; 'I' for Inactive)
REMARK    1  A    between atoms: C_1  and  C_2
REMARK    2  A    between atoms: C_9  and  C_11
REMARK                            x       y       z     vdW  Elec       q    Type
REMARK                         _______ _______ _______ _____ _____    ______ ____
ROOT
ATOM      1  C   UNL     1      99.424 130.954  84.659  0.00  0.00    +0.000 C 
ATOM      2  C   UNL     1      99.729 129.668  83.944  0.00  0.00    +0.000 A 
ATOM      3  C   UNL     1     101.051 129.192  83.884  0.00  0.00    +0.000 A 
ATOM      4  C   UNL     1     101.236 127.986  83.218  0.00  0.00    +0.000 A 
ATOM      5  C   UNL     1     100.226 127.241  82.636  0.00  0.00    +0.000 A 
ATOM      6  C   UNL     1      98.910 127.712  82.708  0.00  0.00    +0.000 A 
ATOM      7  C   UNL     1      98.679 128.928  83.371  0.00  0.00    +0.000 A 
ATOM      8  N   UNL     1     100.751 126.110  82.065  0.00  0.00    +0.000 NA
ATOM      9  C   UNL     1     102.045 126.202  82.317  0.00  0.00    +0.000 A 
ATOM     10  O   UNL     1     102.412 127.325  83.018  0.00  0.00    +0.000 OA
ENDROOT
BRANCH   9  11
ATOM     11  C   UNL     1     103.118 125.281  81.946  0.00  0.00    +0.000 A 
ATOM     12  C   UNL     1     103.538 125.207  80.608  0.00  0.00    +0.000 A 
ATOM     13  C   UNL     1     104.561 124.335  80.222  0.00  0.00    +0.000 A 
ATOM     14  C   UNL     1     105.175 123.528  81.175  0.00  0.00    +0.000 A 
ATOM     15  C   UNL     1     104.775 123.584  82.508  0.00  0.00    +0.000 A 
ATOM     16  C   UNL     1     103.750 124.456  82.891  0.00  0.00    +0.000 A 
ATOM     17 CL   UNL     1     106.435 122.455  80.704  0.00  0.00    +0.000 Cl
ENDBRANCH   9  11
TORSDOF 1
ENDMDL
