MODEL 1
REMARK VINA RESULT:      -4.3      0.000      0.000
REMARK  Name = *****
REMARK  3 active torsions:
REMARK  status: ('A' for Active; 'I' for Inactive)
REMARK    1  A    between atoms: C_1  and  C_2
REMARK    2  A    between atoms: C_2  and  C_10
REMARK    3  A    between atoms: N_3  and  C_4
REMARK                            x       y       z     vdW  Elec       q    Type
REMARK                         _______ _______ _______ _____ _____    ______ ____
ROOT
ATOM      1  C   UNL     1     103.116 127.277  81.020  0.00  0.00    +0.000 C 
ATOM      2  C   UNL     1     102.825 126.020  81.823  0.00  0.00    +0.000 C 
ATOM      3  N   UNL     1     101.829 125.892  82.655  0.00  0.00    +0.000 NA
ENDROOT
BRANCH   3   4
ATOM      4  C   UNL     1     100.928 126.941  82.862  0.00  0.00    +0.000 A 
ATOM      5  C   UNL     1      99.607 126.839  82.419  0.00  0.00    +0.000 A 
ATOM      6  C   UNL     1      98.703 127.879  82.645  0.00  0.00    +0.000 A 
ATOM      7  C   UNL     1      99.115 129.021  83.330  0.00  0.00    +0.000 A 
ATOM      8  C   UNL     1     100.426 129.121  83.796  0.00  0.00    +0.000 A 
ATOM      9  C   UNL     1     101.327 128.078  83.567  0.00  0.00    +0.000 A 
ENDBRANCH   3   4
BRANCH   2  10
ATOM     10  C   UNL     1     103.687 124.850  81.652  0.00  0.00    +0.000 A 
ATOM     11  C   UNL     1     104.202 124.357  80.464  0.00  0.00    +0.000 A 
ATOM     12  C   UNL     1     105.016 123.202  80.646  0.00  0.00    +0.000 A 
ATOM     13  C   UNL     1     105.106 122.846  81.971  0.00  0.00    +0.000 A 
ATOM     14  S   UNL     1     104.215 123.900  82.979  0.00  0.00    +0.000 S 
ENDBRANCH   2  10
TORSDOF 2
ENDMDL
