MODEL 1
REMARK VINA RESULT:      -4.7      0.000      0.000
REMARK  Name = *****
REMARK  2 active torsions:
REMARK  status: ('A' for Active; 'I' for Inactive)
REMARK    1  A    between atoms: C_4  and  C_7
REMARK    2  A    between atoms: C_7  and  N_8
REMARK                            x       y       z     vdW  Elec       q    Type
REMARK                         _______ _______ _______ _____ _____    ______ ____
ROOT
ATOM      1  N   UNL     1     103.372 126.341  82.812  0.00  0.00    +0.000 NA
ATOM      2  S   UNL     1     103.887 125.218  83.944  0.00  0.00    +0.000 S 
ATOM      3  C   UNL     1     104.309 123.971  82.770  0.00  0.00    +0.000 A 
ATOM      4  C   UNL     1     104.457 122.611  83.005  0.00  0.00    +0.000 A 
ATOM      5  C   UNL     1     104.764 121.773  81.932  0.00  0.00    +0.000 A 
ATOM      6  C   UNL     1     104.918 122.300  80.642  0.00  0.00    +0.000 A 
ATOM      7  C   UNL     1     104.772 123.671  80.419  0.00  0.00    +0.000 A 
ATOM      8  C   UNL     1     104.468 124.495  81.496  0.00  0.00    +0.000 A 
ATOM      9  S   UNL     1     104.303 126.275  81.411  0.00  0.00    +0.000 S 
ATOM     10  O   UNL     1     103.538 126.562  80.156  0.00  0.00    +0.000 OA
ENDROOT
BRANCH   1  11
ATOM     11  C   UNL     1     102.840 127.645  83.220  0.00  0.00    +0.000 C 
BRANCH  11  15
ATOM     12  C   UNL     1      98.546 127.925  82.840  0.00  0.00    +0.000 A 
ATOM     13  C   UNL     1      99.258 128.954  83.452  0.00  0.00    +0.000 A 
ATOM     14  C   UNL     1     100.646 128.869  83.577  0.00  0.00    +0.000 A 
ATOM     15  C   UNL     1     101.334 127.749  83.088  0.00  0.00    +0.000 A 
ATOM     16  C   UNL     1     100.606 126.717  82.477  0.00  0.00    +0.000 A 
ATOM     17  C   UNL     1      99.220 126.806  82.353  0.00  0.00    +0.000 A 
ENDBRANCH  11  15
ENDBRANCH   1  11
TORSDOF 2
ENDMDL
