REMARK  Name = *****
REMARK  7 active torsions:
REMARK  status: ('A' for Active; 'I' for Inactive)
REMARK    1  A    between atoms: C_1  and  C_2
REMARK    2  A    between atoms: C_2  and  C_3
REMARK    3  A    between atoms: C_2  and  C_4
REMARK    4  A    between atoms: C_7  and  O_10
REMARK    5  A    between atoms: O_10  and  C_11
REMARK    6  A    between atoms: C_11  and  O_13
REMARK    7  A    between atoms: O_13  and  C_14
REMARK                            x       y       z     vdW  Elec       q    Type
REMARK                         _______ _______ _______ _____ _____    ______ ____
ROOT
ATOM      1  O   UNL     1       3.369  -1.063  -5.432  0.00  0.00    +0.000 OA
ENDROOT
BRANCH   1   5
ATOM      2  C   UNL     1       2.959  -0.533  -1.291  0.00  0.00    +0.000 A 
ATOM      3  C   UNL     1       2.888   0.575  -2.151  0.00  0.00    +0.000 A 
ATOM      4  C   UNL     1       3.036   0.419  -3.531  0.00  0.00    +0.000 A 
ATOM      5  C   UNL     1       3.275  -0.850  -4.052  0.00  0.00    +0.000 A 
ATOM      6  C   UNL     1       3.327  -1.967  -3.224  0.00  0.00    +0.000 A 
ATOM      7  C   UNL     1       3.175  -1.806  -1.845  0.00  0.00    +0.000 A 
BRANCH   2   9
ATOM      8  C   UNL     1       1.530  -1.034   0.723  0.00  0.00    +0.000 C 
ATOM      9  C   UNL     1       2.790  -0.335   0.206  0.00  0.00    +0.000 C 
ATOM     10  C   UNL     1       4.026  -0.794   0.983  0.00  0.00    +0.000 C 
ENDBRANCH   2   9
ENDBRANCH   1   5
BRANCH   1  11
ATOM     11  C   UNL     1       4.428  -0.432  -6.072  0.00  0.00    +0.000 C 
ATOM     12  O   UNL     1       5.288   0.260  -5.542  0.00  0.00    +0.000 OA
BRANCH  11  13
ATOM     13  O   UNL     1       4.329  -0.734  -7.423  0.00  0.00    +0.000 OA
BRANCH  13  14
ATOM     14  C   UNL     1       5.327  -0.139  -8.195  0.00  0.00    +0.000 A 
ATOM     15  C   UNL     1       6.534  -0.808  -8.388  0.00  0.00    +0.000 A 
ATOM     16  C   UNL     1       7.507  -0.230  -9.203  0.00  0.00    +0.000 A 
ATOM     17  C   UNL     1       7.259   0.996  -9.825  0.00  0.00    +0.000 A 
ATOM     18  C   UNL     1       6.037   1.646  -9.639  0.00  0.00    +0.000 A 
ATOM     19  C   UNL     1       5.060   1.074  -8.826  0.00  0.00    +0.000 A 
ENDBRANCH  13  14
ENDBRANCH  11  13
ENDBRANCH   1  11
TORSDOF 5
