MODEL 1
REMARK VINA RESULT:      -4.7      0.000      0.000
REMARK  Name = *****
REMARK  5 active torsions:
REMARK  status: ('A' for Active; 'I' for Inactive)
REMARK    1  A    between atoms: C_1  and  C_2
REMARK    2  A    between atoms: C_5  and  C_8
REMARK    3  A    between atoms: C_8  and  O_9
REMARK    4  A    between atoms: O_9  and  C_10
REMARK    5  A    between atoms: C_10  and  C_12
REMARK                            x       y       z     vdW  Elec       q    Type
REMARK                         _______ _______ _______ _____ _____    ______ ____
ROOT
ATOM      1  O   UNL     1     103.442 125.127  80.129  0.00  0.00    +0.000 OA
ENDROOT
BRANCH   1   2
ATOM      2  C   UNL     1     104.607 124.439  80.109  0.00  0.00    +0.000 C 
ATOM      3  O   UNL     1     105.565 124.655  79.383  0.00  0.00    +0.000 OA
BRANCH   2   4
ATOM      4  C   UNL     1     104.584 123.355  81.127  0.00  0.00    +0.000 A 
ATOM      5  C   UNL     1     104.725 122.005  80.788  0.00  0.00    +0.000 A 
ATOM      6  C   UNL     1     104.697 121.042  81.791  0.00  0.00    +0.000 A 
ATOM      7  C   UNL     1     104.532 121.395  83.126  0.00  0.00    +0.000 A 
ATOM      8  C   UNL     1     104.393 122.737  83.472  0.00  0.00    +0.000 A 
ATOM      9  C   UNL     1     104.421 123.715  82.475  0.00  0.00    +0.000 A 
ATOM     10  F   UNL     1     104.832 119.750  81.464  0.00  0.00    +0.000 F 
ENDBRANCH   2   4
ENDBRANCH   1   2
BRANCH   1  11
ATOM     11  C   UNL     1     103.557 126.545  80.297  0.00  0.00    +0.000 C 
BRANCH  11  16
ATOM     12  C   UNL     1     100.707 128.076  85.140  0.00  0.00    +0.000 C 
ATOM     13  C   UNL     1     101.419 127.701  83.874  0.00  0.00    +0.000 A 
ATOM     14  C   UNL     1     102.499 128.465  83.416  0.00  0.00    +0.000 A 
ATOM     15  C   UNL     1     103.185 128.096  82.256  0.00  0.00    +0.000 A 
ATOM     16  C   UNL     1     102.804 126.958  81.535  0.00  0.00    +0.000 A 
ATOM     17  C   UNL     1     101.741 126.180  82.010  0.00  0.00    +0.000 A 
ATOM     18  C   UNL     1     101.056 126.548  83.171  0.00  0.00    +0.000 A 
ENDBRANCH  11  16
ENDBRANCH   1  11
TORSDOF 4
ENDMDL
