MODEL 1
REMARK VINA RESULT:      -4.7      0.000      0.000
REMARK  Name = *****
REMARK  5 active torsions:
REMARK  status: ('A' for Active; 'I' for Inactive)
REMARK    1  A    between atoms: C_1  and  C_2
REMARK    2  A    between atoms: C_3  and  C_16
REMARK    3  A    between atoms: C_4  and  O_8
REMARK    4  A    between atoms: O_8  and  C_9
REMARK    5  A    between atoms: C_9  and  C_10
REMARK                            x       y       z     vdW  Elec       q    Type
REMARK                         _______ _______ _______ _____ _____    ______ ____
ROOT
ATOM      1  C   UNL     1      99.376 130.566  83.996  0.00  0.00    +0.000 C 
ATOM      2  C   UNL     1      99.693 129.185  83.487  0.00  0.00    +0.000 A 
ATOM      3  C   UNL     1     100.986 128.623  83.608  0.00  0.00    +0.000 A 
ATOM      4  C   UNL     1     101.237 127.335  83.083  0.00  0.00    +0.000 A 
ATOM      5  C   UNL     1     100.198 126.611  82.491  0.00  0.00    +0.000 A 
ATOM      6  C   UNL     1      98.918 127.156  82.404  0.00  0.00    +0.000 A 
ATOM      7  C   UNL     1      98.668 128.432  82.897  0.00  0.00    +0.000 A 
ATOM      8  C   UNL     1     102.114 129.412  84.227  0.00  0.00    +0.000 C 
ENDROOT
BRANCH   4   9
ATOM      9  O   UNL     1     102.527 126.887  83.196  0.00  0.00    +0.000 OA
BRANCH   9  10
ATOM     10  C   UNL     1     102.732 125.518  83.543  0.00  0.00    +0.000 C 
BRANCH  10  11
ATOM     11  C   UNL     1     103.534 124.840  82.455  0.00  0.00    +0.000 A 
ATOM     12  C   UNL     1     104.212 123.639  82.708  0.00  0.00    +0.000 A 
ATOM     13  C   UNL     1     104.922 122.995  81.694  0.00  0.00    +0.000 A 
ATOM     14  C   UNL     1     104.956 123.540  80.412  0.00  0.00    +0.000 A 
ATOM     15  C   UNL     1     104.277 124.727  80.144  0.00  0.00    +0.000 A 
ATOM     16  C   UNL     1     103.566 125.373  81.158  0.00  0.00    +0.000 A 
ENDBRANCH  10  11
ENDBRANCH   9  10
ENDBRANCH   4   9
TORSDOF 3
ENDMDL
