MODEL 1
REMARK VINA RESULT:      -4.6      0.000      0.000
REMARK  Name = *****
REMARK  4 active torsions:
REMARK  status: ('A' for Active; 'I' for Inactive)
REMARK    1  A    between atoms: C_4  and  O_7
REMARK    2  A    between atoms: O_7  and  C_8
REMARK    3  A    between atoms: C_8  and  C_10
REMARK    4  A    between atoms: C_15  and  C_16
REMARK                            x       y       z     vdW  Elec       q    Type
REMARK                         _______ _______ _______ _____ _____    ______ ____
ROOT
ATOM      1  C   UNL     1      87.132  71.037  86.580  0.00  0.00    +0.000 A 
ATOM      2  C   UNL     1      86.357  71.519  85.511  0.00  0.00    +0.000 A 
ATOM      3  C   UNL     1      85.140  72.153  85.753  0.00  0.00    +0.000 A 
ATOM      4  C   UNL     1      84.685  72.306  87.059  0.00  0.00    +0.000 A 
ATOM      5  C   UNL     1      85.449  71.829  88.126  0.00  0.00    +0.000 A 
ATOM      6  C   UNL     1      86.687  71.194  87.905  0.00  0.00    +0.000 A 
ENDROOT
BRANCH   6   7
ATOM      7  C   UNL     1      87.500  70.715  89.083  0.00  0.00    +0.000 C 
ATOM      8  F   UNL     1      88.681  71.375  89.229  0.00  0.00    +0.000 F 
ATOM      9  F   UNL     1      86.847  70.904  90.270  0.00  0.00    +0.000 F 
ATOM     10  F   UNL     1      87.778  69.386  89.041  0.00  0.00    +0.000 F 
ENDBRANCH   6   7
BRANCH   1  11
ATOM     11  C   UNL     1      88.399  70.326  86.284  0.00  0.00    +0.000 C 
ATOM     12  O   UNL     1      89.501  70.825  86.423  0.00  0.00    +0.000 OA
BRANCH  11  13
ATOM     13  O   UNL     1      88.120  69.084  85.819  0.00  0.00    +0.000 OA
BRANCH  13  17
ATOM     14  C   UNL     1      89.726  65.175  86.186  0.00  0.00    +0.000 C 
ATOM     15  C   UNL     1      90.666  66.285  85.721  0.00  0.00    +0.000 C 
ATOM     16  C   UNL     1      89.894  67.519  85.263  0.00  0.00    +0.000 C 
ATOM     17  C   UNL     1      88.934  68.020  86.345  0.00  0.00    +0.000 C 
ATOM     18  C   UNL     1      87.990  66.901  86.792  0.00  0.00    +0.000 C 
ATOM     19  C   UNL     1      88.757  65.667  87.257  0.00  0.00    +0.000 C 
ENDBRANCH  13  17
ENDBRANCH  11  13
ENDBRANCH   1  11
TORSDOF 4
ENDMDL
