MODEL 1
REMARK VINA RESULT:      -4.9      0.000      0.000
REMARK  Name = *****
REMARK  4 active torsions:
REMARK  status: ('A' for Active; 'I' for Inactive)
REMARK    1  A    between atoms: C_1  and  C_2
REMARK    2  A    between atoms: C_4  and  C_8
REMARK    3  A    between atoms: N_9  and  C_10
REMARK    4  A    between atoms: C_14  and  C_16
REMARK                            x       y       z     vdW  Elec       q    Type
REMARK                         _______ _______ _______ _____ _____    ______ ____
ROOT
ATOM      1  C   UNL     1     101.957 126.046  82.141  0.00  0.00    +0.000 C 
ATOM      2  N   UNL     1     102.915 126.383  81.336  0.00  0.00    +0.000 NA
ENDROOT
BRANCH   1   6
ATOM      3  C   UNL     1     100.742 130.335  84.441  0.00  0.00    +0.000 C 
ATOM      4  C   UNL     1     100.341 129.077  83.729  0.00  0.00    +0.000 A 
ATOM      5  C   UNL     1     101.316 128.172  83.292  0.00  0.00    +0.000 A 
ATOM      6  C   UNL     1     100.942 127.015  82.600  0.00  0.00    +0.000 A 
ATOM      7  C   UNL     1      99.596 126.758  82.330  0.00  0.00    +0.000 A 
ATOM      8  C   UNL     1      98.623 127.665  82.749  0.00  0.00    +0.000 A 
ATOM      9  C   UNL     1      98.995 128.821  83.439  0.00  0.00    +0.000 A 
ENDBRANCH   1   6
BRANCH   2  10
ATOM     10  C   UNL     1     103.804 125.358  80.985  0.00  0.00    +0.000 A 
ATOM     11  C   UNL     1     103.880 124.192  81.750  0.00  0.00    +0.000 A 
ATOM     12  C   UNL     1     104.753 123.166  81.387  0.00  0.00    +0.000 A 
ATOM     13  C   UNL     1     105.552 123.300  80.250  0.00  0.00    +0.000 A 
ATOM     14  C   UNL     1     105.487 124.461  79.471  0.00  0.00    +0.000 A 
ATOM     15  C   UNL     1     104.595 125.478  79.839  0.00  0.00    +0.000 A 
ATOM     16  C   UNL     1     106.305 124.585  78.220  0.00  0.00    +0.000 C 
ENDBRANCH   2  10
TORSDOF 2
ENDMDL
