MODEL 1
REMARK VINA RESULT:      -4.6      0.000      0.000
REMARK  Name = *****
REMARK  5 active torsions:
REMARK  status: ('A' for Active; 'I' for Inactive)
REMARK    1  A    between atoms: C_1  and  O_2
REMARK    2  A    between atoms: O_2  and  C_3
REMARK    3  A    between atoms: C_3  and  C_4
REMARK    4  A    between atoms: C_3  and  C_11
REMARK    5  A    between atoms: C_4  and  C_5
REMARK                            x       y       z     vdW  Elec       q    Type
REMARK                         _______ _______ _______ _____ _____    ______ ____
ROOT
ATOM      1  C   UNL     1      88.763  70.260  86.654  0.00  0.00    +0.000 C 
ENDROOT
BRANCH   1   2
ATOM      2  C   UNL     1      88.891  68.747  86.759  0.00  0.00    +0.000 A 
ATOM      3  C   UNL     1      90.006  68.068  86.241  0.00  0.00    +0.000 A 
ATOM      4  C   UNL     1      90.096  66.677  86.322  0.00  0.00    +0.000 A 
ATOM      5  C   UNL     1      89.069  65.960  86.921  0.00  0.00    +0.000 A 
ATOM      6  C   UNL     1      87.953  66.606  87.437  0.00  0.00    +0.000 A 
ATOM      7  C   UNL     1      87.862  67.997  87.357  0.00  0.00    +0.000 A 
ATOM      8  F   UNL     1      89.153  64.626  86.998  0.00  0.00    +0.000 F 
ENDBRANCH   1   2
BRANCH   1  10
ATOM      9  C   UNL     1      89.775  71.442  84.845  0.00  0.00    +0.000 C 
ATOM     10  O   UNL     1      89.967  70.819  86.108  0.00  0.00    +0.000 OA
ENDBRANCH   1  10
BRANCH   1  11
ATOM     11  C   UNL     1      87.513  70.704  85.858  0.00  0.00    +0.000 C 
BRANCH  11  12
ATOM     12  C   UNL     1      86.397  71.323  86.672  0.00  0.00    +0.000 A 
ATOM     13  C   UNL     1      86.446  71.305  88.073  0.00  0.00    +0.000 A 
ATOM     14  C   UNL     1      85.415  71.869  88.826  0.00  0.00    +0.000 A 
ATOM     15  C   UNL     1      84.325  72.457  88.187  0.00  0.00    +0.000 A 
ATOM     16  C   UNL     1      84.264  72.480  86.795  0.00  0.00    +0.000 A 
ATOM     17  C   UNL     1      85.294  71.917  86.041  0.00  0.00    +0.000 A 
ENDBRANCH  11  12
ENDBRANCH   1  11
TORSDOF 4
ENDMDL
