MODEL 1
REMARK VINA RESULT:      -4.2      0.000      0.000
REMARK  Name = *****
REMARK  4 active torsions:
REMARK  status: ('A' for Active; 'I' for Inactive)
REMARK    1  A    between atoms: C_4  and  C_7
REMARK    2  A    between atoms: C_7  and  S_9
REMARK    3  A    between atoms: S_9  and  C_10
REMARK    4  A    between atoms: C_10  and  C_12
REMARK                            x       y       z     vdW  Elec       q    Type
REMARK                         _______ _______ _______ _____ _____    ______ ____
ROOT
ATOM      1  S   UNL     1      88.625  68.387  85.054  0.00  0.00    +0.000 S 
ENDROOT
BRANCH   1   2
ATOM      2  C   UNL     1      89.159  69.881  85.798  0.00  0.00    +0.000 C 
ATOM      3  O   UNL     1      90.106  70.491  85.317  0.00  0.00    +0.000 OA
BRANCH   2   7
ATOM      4  C   UNL     1      86.878  71.452  89.087  0.00  0.00    +0.000 A 
ATOM      5  C   UNL     1      88.182  71.016  89.315  0.00  0.00    +0.000 A 
ATOM      6  C   UNL     1      88.947  70.502  88.265  0.00  0.00    +0.000 A 
ATOM      7  C   UNL     1      88.409  70.416  86.972  0.00  0.00    +0.000 A 
ATOM      8  C   UNL     1      87.097  70.868  86.754  0.00  0.00    +0.000 A 
ATOM      9  C   UNL     1      86.336  71.381  87.807  0.00  0.00    +0.000 A 
ENDBRANCH   2   7
ENDBRANCH   1   2
BRANCH   1  10
ATOM     10  C   UNL     1      89.305  67.386  86.323  0.00  0.00    +0.000 C 
ATOM     11  O   UNL     1      90.521  67.338  86.467  0.00  0.00    +0.000 OA
BRANCH  10  12
ATOM     12  C   UNL     1      88.387  66.655  87.245  0.00  0.00    +0.000 A 
ATOM     13  C   UNL     1      87.248  67.232  87.826  0.00  0.00    +0.000 A 
ATOM     14  C   UNL     1      86.437  66.482  88.683  0.00  0.00    +0.000 A 
ATOM     15  C   UNL     1      86.751  65.153  88.965  0.00  0.00    +0.000 A 
ATOM     16  C   UNL     1      87.874  64.568  88.386  0.00  0.00    +0.000 A 
ATOM     17  C   UNL     1      88.686  65.313  87.530  0.00  0.00    +0.000 A 
ENDBRANCH  10  12
ENDBRANCH   1  10
TORSDOF 4
ENDMDL
