REMARK  Name = *****
REMARK  4 active torsions:
REMARK  status: ('A' for Active; 'I' for Inactive)
REMARK    1  A    between atoms: C_5  and  C_7
REMARK    2  A    between atoms: C_7  and  O_8
REMARK    3  A    between atoms: O_8  and  C_9
REMARK    4  A    between atoms: C_9  and  C_10
REMARK                            x       y       z     vdW  Elec       q    Type
REMARK                         _______ _______ _______ _____ _____    ______ ____
ROOT
ATOM      1  O   UNL     1       2.327  -2.206   0.016  0.00  0.00    +0.000 OA
ENDROOT
BRANCH   1   2
ATOM      2  C   UNL     1       0.915  -2.419   0.039  0.00  0.00    +0.000 C 
BRANCH   2   7
ATOM      3  C   UNL     1       0.005   1.230  -0.657  0.00  0.00    +0.000 A 
ATOM      4  C   UNL     1      -1.265   1.305  -0.087  0.00  0.00    +0.000 A 
ATOM      5  C   UNL     1      -1.817   0.179   0.521  0.00  0.00    +0.000 A 
ATOM      6  C   UNL     1      -1.093  -1.010   0.558  0.00  0.00    +0.000 A 
ATOM      7  C   UNL     1       0.188  -1.102   0.008  0.00  0.00    +0.000 A 
ATOM      8  C   UNL     1       0.726   0.033  -0.616  0.00  0.00    +0.000 A 
ATOM      9  F   UNL     1      -1.650  -2.085   1.134  0.00  0.00    +0.000 F 
ENDBRANCH   2   7
ENDBRANCH   1   2
BRANCH   1  10
ATOM     10  C   UNL     1       3.044  -3.441   0.018  0.00  0.00    +0.000 C 
BRANCH  10  11
ATOM     11  C   UNL     1       4.526  -3.182   0.015  0.00  0.00    +0.000 A 
ATOM     12  C   UNL     1       5.085  -2.045   0.616  0.00  0.00    +0.000 A 
ATOM     13  C   UNL     1       6.470  -1.854   0.627  0.00  0.00    +0.000 A 
ATOM     14  C   UNL     1       7.313  -2.802   0.049  0.00  0.00    +0.000 A 
ATOM     15  C   UNL     1       6.771  -3.945  -0.535  0.00  0.00    +0.000 A 
ATOM     16  C   UNL     1       5.391  -4.128  -0.542  0.00  0.00    +0.000 A 
ATOM     17  F   UNL     1       4.892  -5.243  -1.095  0.00  0.00    +0.000 F 
ENDBRANCH  10  11
ENDBRANCH   1  10
TORSDOF 4
