MODEL 1
REMARK VINA RESULT:      -5.1      0.000      0.000
REMARK  Name = *****
REMARK  5 active torsions:
REMARK  status: ('A' for Active; 'I' for Inactive)
REMARK    1  A    between atoms: C_1  and  C_2
REMARK    2  A    between atoms: C_3  and  C_18
REMARK    3  A    between atoms: C_4  and  O_8
REMARK    4  A    between atoms: O_8  and  C_9
REMARK    5  A    between atoms: C_9  and  C_11
REMARK                            x       y       z     vdW  Elec       q    Type
REMARK                         _______ _______ _______ _____ _____    ______ ____
ROOT
ATOM      1  O   UNL     1     102.584 126.907  82.950  0.00  0.00    +0.000 OA
ENDROOT
BRANCH   1   5
ATOM      2  C   UNL     1      99.335 130.478  84.173  0.00  0.00    +0.000 C 
ATOM      3  C   UNL     1      99.700 129.150  83.567  0.00  0.00    +0.000 A 
ATOM      4  C   UNL     1     101.025 128.666  83.568  0.00  0.00    +0.000 A 
ATOM      5  C   UNL     1     101.282 127.429  82.949  0.00  0.00    +0.000 A 
ATOM      6  C   UNL     1     100.260 126.651  82.400  0.00  0.00    +0.000 A 
ATOM      7  C   UNL     1      98.955 127.127  82.420  0.00  0.00    +0.000 A 
ATOM      8  C   UNL     1      98.679 128.369  82.994  0.00  0.00    +0.000 A 
ATOM      9  C   UNL     1     102.165 129.437  84.175  0.00  0.00    +0.000 C 
ENDBRANCH   1   5
BRANCH   1  10
ATOM     10  C   UNL     1     102.654 125.625  83.454  0.00  0.00    +0.000 C 
ATOM     11  O   UNL     1     102.260 125.207  84.531  0.00  0.00    +0.000 OA
BRANCH  10  12
ATOM     12  C   UNL     1     103.477 124.809  82.542  0.00  0.00    +0.000 A 
ATOM     13  C   UNL     1     103.515 125.214  81.198  0.00  0.00    +0.000 A 
ATOM     14  C   UNL     1     104.262 124.491  80.267  0.00  0.00    +0.000 A 
ATOM     15  C   UNL     1     104.980 123.369  80.676  0.00  0.00    +0.000 A 
ATOM     16  C   UNL     1     104.962 122.976  82.016  0.00  0.00    +0.000 A 
ATOM     17  C   UNL     1     104.216 123.697  82.956  0.00  0.00    +0.000 A 
ATOM     18 CL   UNL     1     104.308 123.189  84.601  0.00  0.00    +0.000 Cl
ENDBRANCH  10  12
ENDBRANCH   1  10
TORSDOF 3
ENDMDL
