REMARK  Name = *****
REMARK  3 active torsions:
REMARK  status: ('A' for Active; 'I' for Inactive)
REMARK    1  A    between atoms: C_5  and  O_7
REMARK    2  A    between atoms: O_7  and  C_8
REMARK    3  A    between atoms: C_8  and  C_10
REMARK                            x       y       z     vdW  Elec       q    Type
REMARK                         _______ _______ _______ _____ _____    ______ ____
ROOT
ATOM      1  C   UNL     1      -2.951  -2.447  -0.285  0.00  0.00    +0.000 C 
ATOM      2  O   UNL     1      -3.452  -2.118   0.778  0.00  0.00    +0.000 OA
ENDROOT
BRANCH   1   3
ATOM      3  C   UNL     1      -3.627  -3.337  -1.267  0.00  0.00    +0.000 A 
ATOM      4  C   UNL     1      -3.056  -3.659  -2.505  0.00  0.00    +0.000 A 
ATOM      5  C   UNL     1      -3.740  -4.499  -3.384  0.00  0.00    +0.000 A 
ATOM      6  C   UNL     1      -4.987  -5.022  -3.044  0.00  0.00    +0.000 A 
ATOM      7  C   UNL     1      -5.561  -4.703  -1.813  0.00  0.00    +0.000 A 
ATOM      8  C   UNL     1      -4.883  -3.863  -0.928  0.00  0.00    +0.000 A 
ATOM      9 CL   UNL     1      -3.039  -4.894  -4.905  0.00  0.00    +0.000 Cl
ENDBRANCH   1   3
BRANCH   1  10
ATOM     10  O   UNL     1      -1.732  -2.078  -0.743  0.00  0.00    +0.000 OA
BRANCH  10  15
ATOM     11  C   UNL     1      -0.429   1.240   0.454  0.00  0.00    +0.000 C 
ATOM     12  C   UNL     1       0.922   1.077  -0.248  0.00  0.00    +0.000 C 
ATOM     13  C   UNL     1       1.321  -0.359  -0.425  0.00  0.00    +0.000 C 
ATOM     14  C   UNL     1       0.471  -1.383  -0.248  0.00  0.00    +0.000 C 
ATOM     15  C   UNL     1      -0.980  -1.208   0.118  0.00  0.00    +0.000 C 
ATOM     16  C   UNL     1      -1.453   0.241  -0.078  0.00  0.00    +0.000 C 
ENDBRANCH  10  15
ENDBRANCH   1  10
TORSDOF 3
