MODEL 1
REMARK VINA RESULT:      -4.4      0.000      0.000
REMARK  Name = *****
REMARK  3 active torsions:
REMARK  status: ('A' for Active; 'I' for Inactive)
REMARK    1  A    between atoms: C_1  and  C_2
REMARK    2  A    between atoms: C_5  and  N_8
REMARK    3  A    between atoms: C_10  and  C_11
REMARK                            x       y       z     vdW  Elec       q    Type
REMARK                         _______ _______ _______ _____ _____    ______ ____
ROOT
ATOM      1  N   UNL     1      87.576  63.698  86.548  0.00  0.00    +0.000 N 
ATOM      2  C   UNL     1      86.185  63.497  86.944  0.00  0.00    +0.000 C 
ATOM      3  C   UNL     1      87.299  62.921  87.773  0.00  0.00    +0.000 C 
ENDROOT
BRANCH   1   8
ATOM      4  C   UNL     1      89.573  69.086  86.789  0.00  0.00    +0.000 C 
ATOM      5  C   UNL     1      89.075  67.675  86.692  0.00  0.00    +0.000 A 
ATOM      6  C   UNL     1      87.743  67.371  86.980  0.00  0.00    +0.000 A 
ATOM      7  C   UNL     1      87.292  66.049  86.917  0.00  0.00    +0.000 A 
ATOM      8  C   UNL     1      88.151  64.994  86.573  0.00  0.00    +0.000 A 
ATOM      9  C   UNL     1      89.490  65.309  86.310  0.00  0.00    +0.000 A 
ATOM     10  C   UNL     1      89.948  66.631  86.370  0.00  0.00    +0.000 A 
ENDBRANCH   1   8
BRANCH   3  11
ATOM     11  C   UNL     1      87.609  63.420  89.159  0.00  0.00    +0.000 A 
ATOM     12  C   UNL     1      86.586  63.758  90.067  0.00  0.00    +0.000 A 
ATOM     13  C   UNL     1      86.877  64.199  91.361  0.00  0.00    +0.000 A 
ATOM     14  C   UNL     1      88.201  64.300  91.768  0.00  0.00    +0.000 A 
ATOM     15  C   UNL     1      89.235  63.962  90.908  0.00  0.00    +0.000 A 
ATOM     16  C   UNL     1      88.938  63.518  89.617  0.00  0.00    +0.000 A 
ATOM     17  F   UNL     1      88.481  64.725  93.006  0.00  0.00    +0.000 F 
ENDBRANCH   3  11
TORSDOF 2
ENDMDL
