MODEL 1
REMARK VINA RESULT:      -4.6      0.000      0.000
REMARK  Name = *****
REMARK  3 active torsions:
REMARK  status: ('A' for Active; 'I' for Inactive)
REMARK    1  A    between atoms: C_1  and  C_2
REMARK    2  A    between atoms: C_3  and  N_9
REMARK    3  A    between atoms: C_10  and  C_11
REMARK                            x       y       z     vdW  Elec       q    Type
REMARK                         _______ _______ _______ _____ _____    ______ ____
ROOT
ATOM      1  C   UNL     1     103.196 128.959  83.633  0.00  0.00    +0.000 C 
ATOM      2  C   UNL     1     101.881 128.314  83.295  0.00  0.00    +0.000 A 
ATOM      3  C   UNL     1     101.842 127.087  82.604  0.00  0.00    +0.000 A 
ATOM      4  C   UNL     1     100.609 126.519  82.273  0.00  0.00    +0.000 A 
ATOM      5  C   UNL     1      99.430 127.150  82.653  0.00  0.00    +0.000 A 
ATOM      6  C   UNL     1      99.454 128.349  83.354  0.00  0.00    +0.000 A 
ATOM      7  C   UNL     1     100.678 128.933  83.675  0.00  0.00    +0.000 A 
ATOM      8  F   UNL     1      98.253 126.593  82.341  0.00  0.00    +0.000 F 
ENDROOT
BRANCH   3   9
ATOM      9  N   UNL     1     103.025 126.446  82.205  0.00  0.00    +0.000 NA
ATOM     10  C   UNL     1     102.928 125.670  81.170  0.00  0.00    +0.000 C 
BRANCH  10  11
ATOM     11  C   UNL     1     104.087 124.928  80.639  0.00  0.00    +0.000 A 
ATOM     12  C   UNL     1     104.368 123.631  81.074  0.00  0.00    +0.000 A 
ATOM     13  C   UNL     1     105.471 122.949  80.555  0.00  0.00    +0.000 A 
ATOM     14  C   UNL     1     106.288 123.564  79.606  0.00  0.00    +0.000 A 
ATOM     15  C   UNL     1     106.007 124.860  79.172  0.00  0.00    +0.000 A 
ATOM     16  C   UNL     1     104.905 125.546  79.688  0.00  0.00    +0.000 A 
ENDBRANCH  10  11
ENDBRANCH   3   9
TORSDOF 2
ENDMDL
