MODEL 1
REMARK VINA RESULT:      -4.8      0.000      0.000
REMARK  Name = *****
REMARK  1 active torsions:
REMARK  status: ('A' for Active; 'I' for Inactive)
REMARK    1  A    between atoms: C_4  and  C_7
REMARK                            x       y       z     vdW  Elec       q    Type
REMARK                         _______ _______ _______ _____ _____    ______ ____
ROOT
ATOM      1  C   UNL     1     102.998 125.897  82.102  0.00  0.00    +0.000 C 
ATOM      2  C   UNL     1     103.274 125.807  80.792  0.00  0.00    +0.000 C 
ATOM      3  S   UNL     1     104.528 124.854  80.081  0.00  0.00    +0.000 S 
ATOM      4  C   UNL     1     104.562 123.460  81.195  0.00  0.00    +0.000 A 
ATOM      5  C   UNL     1     104.924 122.215  80.655  0.00  0.00    +0.000 A 
ATOM      6  C   UNL     1     104.994 121.078  81.461  0.00  0.00    +0.000 A 
ATOM      7  C   UNL     1     104.710 121.174  82.819  0.00  0.00    +0.000 A 
ATOM      8  C   UNL     1     104.357 122.407  83.369  0.00  0.00    +0.000 A 
ATOM      9  C   UNL     1     104.277 123.556  82.566  0.00  0.00    +0.000 A 
ATOM     10  S   UNL     1     103.840 125.086  83.375  0.00  0.00    +0.000 S 
ENDROOT
BRANCH   1  14
ATOM     11  C   UNL     1      99.853 128.468  83.429  0.00  0.00    +0.000 A 
ATOM     12  C   UNL     1     101.183 128.821  83.652  0.00  0.00    +0.000 A 
ATOM     13  C   UNL     1     102.211 127.984  83.213  0.00  0.00    +0.000 A 
ATOM     14  C   UNL     1     101.914 126.789  82.542  0.00  0.00    +0.000 A 
ATOM     15  C   UNL     1     100.572 126.440  82.328  0.00  0.00    +0.000 A 
ATOM     16  C   UNL     1      99.547 127.280  82.768  0.00  0.00    +0.000 A 
ENDBRANCH   1  14
TORSDOF 1
ENDMDL
