REMARK  Name = *****
REMARK  4 active torsions:
REMARK  status: ('A' for Active; 'I' for Inactive)
REMARK    1  A    between atoms: C_4  and  C_17
REMARK    2  A    between atoms: C_5  and  C_7
REMARK    3  A    between atoms: C_8  and  C_9
REMARK    4  A    between atoms: C_13  and  C_15
REMARK                            x       y       z     vdW  Elec       q    Type
REMARK                         _______ _______ _______ _____ _____    ______ ____
ROOT
ATOM      1  C   UNL     1      -0.558   0.024   0.029  0.00  0.00    +0.000 C 
ATOM      2  C   UNL     1       0.643  -0.008   0.006  0.00  0.00    +0.000 C 
ENDROOT
BRANCH   1   7
ATOM      3  C   UNL     1      -4.074  -1.189   0.031  0.00  0.00    +0.000 A 
ATOM      4  C   UNL     1      -4.796  -0.000  -0.042  0.00  0.00    +0.000 A 
ATOM      5  C   UNL     1      -4.122   1.221  -0.064  0.00  0.00    +0.000 A 
ATOM      6  C   UNL     1      -2.719   1.257  -0.002  0.00  0.00    +0.000 A 
ATOM      7  C   UNL     1      -1.989   0.061   0.050  0.00  0.00    +0.000 A 
ATOM      8  C   UNL     1      -2.678  -1.159   0.072  0.00  0.00    +0.000 A 
BRANCH   6   9
ATOM      9  C   UNL     1      -2.076   2.597  -0.009  0.00  0.00    +0.000 C 
ATOM     10  O   UNL     1      -2.462   3.387  -0.870  0.00  0.00    +0.000 OA
ATOM     11 CL   UNL     1      -0.919   2.997   1.238  0.00  0.00    +0.000 Cl
ENDBRANCH   6   9
ENDBRANCH   1   7
BRANCH   2  12
ATOM     12  C   UNL     1       2.072  -0.030  -0.018  0.00  0.00    +0.000 A 
ATOM     13  C   UNL     1       2.789   1.170   0.016  0.00  0.00    +0.000 A 
ATOM     14  C   UNL     1       4.185   1.157  -0.008  0.00  0.00    +0.000 A 
ATOM     15  C   UNL     1       4.871  -0.057  -0.065  0.00  0.00    +0.000 A 
ATOM     16  C   UNL     1       4.151  -1.255  -0.099  0.00  0.00    +0.000 A 
ATOM     17  C   UNL     1       2.753  -1.247  -0.075  0.00  0.00    +0.000 A 
BRANCH  16  18
ATOM     18  C   UNL     1       4.883  -2.536  -0.158  0.00  0.00    +0.000 C 
ATOM     19  O   UNL     1       4.305  -3.615  -0.186  0.00  0.00    +0.000 OA
ENDBRANCH  16  18
ENDBRANCH   2  12
TORSDOF 4
