MODEL 1
REMARK VINA RESULT:      -4.6      0.000      0.000
REMARK  Name = *****
REMARK  3 active torsions:
REMARK  status: ('A' for Active; 'I' for Inactive)
REMARK    1  A    between atoms: C_4  and  C_7
REMARK    2  A    between atoms: C_8  and  C_9
REMARK    3  A    between atoms: C_12  and  C_15
REMARK                            x       y       z     vdW  Elec       q    Type
REMARK                         _______ _______ _______ _____ _____    ______ ____
ROOT
ATOM      1  C   UNL     1     101.960 126.159  82.430  0.00  0.00    +0.000 C 
ATOM      2  C   UNL     1     102.830 125.373  82.165  0.00  0.00    +0.000 C 
ENDROOT
BRANCH   1   6
ATOM      3  C   UNL     1      98.897 129.110  83.066  0.00  0.00    +0.000 C 
ATOM      4  C   UNL     1      98.476 127.645  83.083  0.00  0.00    +0.000 C 
ATOM      5  C   UNL     1      99.507 126.768  82.369  0.00  0.00    +0.000 C 
ATOM      6  C   UNL     1     100.932 127.097  82.740  0.00  0.00    +0.000 C 
ATOM      7  C   UNL     1     101.256 128.240  83.370  0.00  0.00    +0.000 C 
ATOM      8  C   UNL     1     100.259 129.301  83.736  0.00  0.00    +0.000 C 
ENDBRANCH   1   6
BRANCH   2   9
ATOM      9  C   UNL     1     103.864 124.438  81.845  0.00  0.00    +0.000 A 
ATOM     10  C   UNL     1     104.341 124.345  80.535  0.00  0.00    +0.000 A 
ATOM     11  C   UNL     1     105.349 123.428  80.221  0.00  0.00    +0.000 A 
ATOM     12  C   UNL     1     105.883 122.603  81.217  0.00  0.00    +0.000 A 
ATOM     13  C   UNL     1     105.404 122.698  82.528  0.00  0.00    +0.000 A 
ATOM     14  C   UNL     1     104.395 123.615  82.841  0.00  0.00    +0.000 A 
BRANCH  12  15
ATOM     15  C   UNL     1     106.916 121.663  80.896  0.00  0.00    +0.000 C 
ATOM     16  N   UNL     1     107.753 120.900  80.637  0.00  0.00    +0.000 NA
ENDBRANCH  12  15
ENDBRANCH   2   9
TORSDOF 3
ENDMDL
