MODEL 1
REMARK VINA RESULT:      -4.5      0.000      0.000
REMARK  Name = *****
REMARK  5 active torsions:
REMARK  status: ('A' for Active; 'I' for Inactive)
REMARK    1  A    between atoms: C_1  and  C_2
REMARK    2  A    between atoms: C_7  and  C_8
REMARK    3  A    between atoms: C_8  and  N_9
REMARK    4  A    between atoms: N_9  and  C_10
REMARK    5  A    between atoms: C_10  and  C_11
REMARK                            x       y       z     vdW  Elec       q    Type
REMARK                         _______ _______ _______ _____ _____    ______ ____
ROOT
ATOM      1  C   UNL     1     103.640 126.390  80.470  0.00  0.00    +0.000 C 
ENDROOT
BRANCH   1   8
ATOM      2  C   UNL     1     104.481 128.896  81.860  0.00  0.00    +0.000 C 
ATOM      3  C   UNL     1     103.283 128.096  82.288  0.00  0.00    +0.000 A 
ATOM      4  C   UNL     1     102.527 128.542  83.387  0.00  0.00    +0.000 A 
ATOM      5  C   UNL     1     101.409 127.830  83.825  0.00  0.00    +0.000 A 
ATOM      6  C   UNL     1     101.027 126.661  83.174  0.00  0.00    +0.000 A 
ATOM      7  C   UNL     1     101.764 126.202  82.083  0.00  0.00    +0.000 A 
ATOM      8  C   UNL     1     102.887 126.913  81.635  0.00  0.00    +0.000 A 
ENDBRANCH   1   8
BRANCH   1   9
ATOM      9  N   UNL     1     103.538 125.161  80.084  0.00  0.00    +0.000 NA
BRANCH   9  10
ATOM     10  C   UNL     1     104.777 124.382  80.245  0.00  0.00    +0.000 C 
BRANCH  10  11
ATOM     11  C   UNL     1     104.645 123.213  81.194  0.00  0.00    +0.000 A 
ATOM     12  C   UNL     1     104.693 121.895  80.717  0.00  0.00    +0.000 A 
ATOM     13  C   UNL     1     104.595 120.817  81.598  0.00  0.00    +0.000 A 
ATOM     14  C   UNL     1     104.458 121.043  82.965  0.00  0.00    +0.000 A 
ATOM     15  C   UNL     1     104.422 122.348  83.454  0.00  0.00    +0.000 A 
ATOM     16  C   UNL     1     104.520 123.429  82.574  0.00  0.00    +0.000 A 
ENDBRANCH  10  11
ENDBRANCH   9  10
ENDBRANCH   1   9
TORSDOF 4
ENDMDL
