MODEL 1
REMARK VINA RESULT:      -4.8      0.000      0.000
REMARK  Name = *****
REMARK  2 active torsions:
REMARK  status: ('A' for Active; 'I' for Inactive)
REMARK    1  A    between atoms: C_5  and  C_8
REMARK    2  A    between atoms: C_9  and  C_10
REMARK                            x       y       z     vdW  Elec       q    Type
REMARK                         _______ _______ _______ _____ _____    ______ ____
ROOT
ATOM      1  C   UNL     1     102.826 126.830  82.009  0.00  0.00    +0.000 C 
ATOM      2  C   UNL     1     102.848 125.571  81.540  0.00  0.00    +0.000 C 
ENDROOT
BRANCH   1   7
ATOM      3  C   UNL     1      98.609 128.170  83.316  0.00  0.00    +0.000 C 
ATOM      4  C   UNL     1      99.423 129.457  83.433  0.00  0.00    +0.000 C 
ATOM      5  C   UNL     1     100.760 129.288  84.152  0.00  0.00    +0.000 C 
ATOM      6  C   UNL     1     101.819 128.616  83.333  0.00  0.00    +0.000 C 
ATOM      7  C   UNL     1     101.723 127.397  82.771  0.00  0.00    +0.000 C 
ATOM      8  C   UNL     1     100.519 126.500  82.935  0.00  0.00    +0.000 C 
ATOM      9  C   UNL     1      99.218 127.107  82.404  0.00  0.00    +0.000 C 
ENDBRANCH   1   7
BRANCH   2  10
ATOM     10  C   UNL     1     103.962 124.989  80.777  0.00  0.00    +0.000 A 
ATOM     11  C   UNL     1     104.720 125.733  79.864  0.00  0.00    +0.000 A 
ATOM     12  C   UNL     1     105.790 125.148  79.183  0.00  0.00    +0.000 A 
ATOM     13  C   UNL     1     106.123 123.815  79.417  0.00  0.00    +0.000 A 
ATOM     14  C   UNL     1     105.387 123.068  80.335  0.00  0.00    +0.000 A 
ATOM     15  C   UNL     1     104.317 123.654  81.015  0.00  0.00    +0.000 A 
ENDBRANCH   2  10
TORSDOF 2
ENDMDL
