REMARK  Name = *****
REMARK  4 active torsions:
REMARK  status: ('A' for Active; 'I' for Inactive)
REMARK    1  A    between atoms: C_1  and  C_2
REMARK    2  A    between atoms: C_5  and  C_10
REMARK    3  A    between atoms: C_6  and  C_8
REMARK    4  A    between atoms: C_11  and  C_12
REMARK                            x       y       z     vdW  Elec       q    Type
REMARK                         _______ _______ _______ _____ _____    ______ ____
ROOT
ATOM      1  C   UNL     1       0.943   0.129  -0.800  0.00  0.00    +0.000 C 
ATOM      2  C   UNL     1       2.264   0.025  -0.031  0.00  0.00    +0.000 C 
ATOM      3  C   UNL     1       3.182   1.218  -0.311  0.00  0.00    +0.000 C 
ATOM      4  C   UNL     1       3.685   1.239  -1.755  0.00  0.00    +0.000 C 
ATOM      5  C   UNL     1       4.111  -0.116  -2.284  0.00  0.00    +0.000 C 
ATOM      6  C   UNL     1       3.804  -1.255  -1.628  0.00  0.00    +0.000 C 
ATOM      7  C   UNL     1       3.002  -1.286  -0.349  0.00  0.00    +0.000 C 
ENDROOT
BRANCH   6   8
ATOM      8  C   UNL     1       4.242  -2.593  -2.125  0.00  0.00    +0.000 C 
ATOM      9  O   UNL     1       3.993  -3.632  -1.522  0.00  0.00    +0.000 OA
ENDBRANCH   6   8
BRANCH   5  10
ATOM     10  C   UNL     1       4.863  -0.118  -3.501  0.00  0.00    +0.000 C 
ATOM     11  C   UNL     1       5.496  -0.105  -4.521  0.00  0.00    +0.000 C 
BRANCH  11  12
ATOM     12  C   UNL     1       6.254  -0.091  -5.734  0.00  0.00    +0.000 A 
ATOM     13  C   UNL     1       6.631   1.124  -6.310  0.00  0.00    +0.000 A 
ATOM     14  C   UNL     1       7.373   1.136  -7.493  0.00  0.00    +0.000 A 
ATOM     15  C   UNL     1       7.737  -0.065  -8.101  0.00  0.00    +0.000 A 
ATOM     16  C   UNL     1       7.361  -1.280  -7.528  0.00  0.00    +0.000 A 
ATOM     17  C   UNL     1       6.619  -1.294  -6.345  0.00  0.00    +0.000 A 
ENDBRANCH  11  12
ENDBRANCH   5  10
TORSDOF 3
