MODEL 1
REMARK VINA RESULT:      -4.2      0.000      0.000
REMARK  Name = *****
REMARK  5 active torsions:
REMARK  status: ('A' for Active; 'I' for Inactive)
REMARK    1  A    between atoms: C_4  and  S_7
REMARK    2  A    between atoms: S_7  and  C_8
REMARK    3  A    between atoms: C_8  and  C_9
REMARK    4  A    between atoms: C_9  and  C_10
REMARK    5  A    between atoms: C_10  and  C_11
REMARK                            x       y       z     vdW  Elec       q    Type
REMARK                         _______ _______ _______ _____ _____    ______ ____
ROOT
ATOM      1  C   UNL     1     104.589 126.499  81.351  0.00  0.00    +0.000 C 
ATOM      2  F   UNL     1     105.523 126.815  80.414  0.00  0.00    +0.000 F 
ATOM      3  F   UNL     1     105.252 126.351  82.528  0.00  0.00    +0.000 F 
ENDROOT
BRANCH   1   4
ATOM      4  C   UNL     1     103.893 125.207  80.977  0.00  0.00    +0.000 C 
ATOM      5  F   UNL     1     103.312 124.657  82.085  0.00  0.00    +0.000 F 
ATOM      6  F   UNL     1     102.860 125.468  80.120  0.00  0.00    +0.000 F 
BRANCH   4   7
ATOM      7  C   UNL     1     104.877 124.240  80.352  0.00  0.00    +0.000 C 
ATOM      8  F   UNL     1     105.159 124.544  79.064  0.00  0.00    +0.000 F 
ATOM      9  F   UNL     1     106.052 124.189  81.021  0.00  0.00    +0.000 F 
ATOM     10  F   UNL     1     104.378 122.975  80.350  0.00  0.00    +0.000 F 
ENDBRANCH   4   7
ENDBRANCH   1   4
BRANCH   1  11
ATOM     11  C   UNL     1     103.574 127.637  81.471  0.00  0.00    +0.000 C 
BRANCH  11  12
ATOM     12  S   UNL     1     103.027 127.891  83.204  0.00  0.00    +0.000 S 
BRANCH  12  16
ATOM     13  C   UNL     1      98.445 127.742  82.807  0.00  0.00    +0.000 A 
ATOM     14  C   UNL     1      99.025 128.859  83.403  0.00  0.00    +0.000 A 
ATOM     15  C   UNL     1     100.415 128.943  83.543  0.00  0.00    +0.000 A 
ATOM     16  C   UNL     1     101.241 127.910  83.088  0.00  0.00    +0.000 A 
ATOM     17  C   UNL     1     100.642 126.792  82.490  0.00  0.00    +0.000 A 
ATOM     18  C   UNL     1      99.254 126.706  82.350  0.00  0.00    +0.000 A 
ENDBRANCH  12  16
ENDBRANCH  11  12
ENDBRANCH   1  11
TORSDOF 5
ENDMDL
