MODEL 1
REMARK VINA RESULT:      -4.7      0.000      0.000
REMARK  Name = *****
REMARK  1 active torsions:
REMARK  status: ('A' for Active; 'I' for Inactive)
REMARK    1  A    between atoms: C_6  and  C_7
REMARK                            x       y       z     vdW  Elec       q    Type
REMARK                         _______ _______ _______ _____ _____    ______ ____
ROOT
ATOM      1  C   UNL     1     102.888 126.267  82.198  0.00  0.00    +0.000 A 
ATOM      2  C   UNL     1     101.557 125.966  81.990  0.00  0.00    +0.000 A 
ATOM      3  C   UNL     1     100.660 126.953  82.516  0.00  0.00    +0.000 A 
ATOM      4  C   UNL     1      99.245 127.010  82.508  0.00  0.00    +0.000 A 
ATOM      5  C   UNL     1      98.577 128.090  83.093  0.00  0.00    +0.000 A 
ATOM      6  C   UNL     1      99.294 129.120  83.686  0.00  0.00    +0.000 A 
ATOM      7  C   UNL     1     100.690 129.091  83.707  0.00  0.00    +0.000 A 
ATOM      8  C   UNL     1     101.360 128.000  83.118  0.00  0.00    +0.000 A 
ATOM      9  S   UNL     1     103.060 127.752  83.025  0.00  0.00    +0.000 S 
ENDROOT
BRANCH   1  15
ATOM     10  C   UNL     1     104.199 123.766  83.665  0.00  0.00    +0.000 C 
ATOM     11  C   UNL     1     104.266 124.088  82.365  0.00  0.00    +0.000 C 
ATOM     12  C   UNL     1     104.567 123.101  81.270  0.00  0.00    +0.000 C 
ATOM     13  C   UNL     1     104.995 123.992  80.115  0.00  0.00    +0.000 C 
ATOM     14  C   UNL     1     104.125 125.231  80.275  0.00  0.00    +0.000 C 
ATOM     15  C   UNL     1     104.109 125.487  81.791  0.00  0.00    +0.000 C 
ENDBRANCH   1  15
TORSDOF 1
ENDMDL
