MODEL 1
REMARK VINA RESULT:      -4.4      0.000      0.000
REMARK  Name = *****
REMARK  6 active torsions:
REMARK  status: ('A' for Active; 'I' for Inactive)
REMARK    1  A    between atoms: C_1  and  C_2
REMARK    2  A    between atoms: C_4  and  C_8
REMARK    3  A    between atoms: C_8  and  C_9
REMARK    4  A    between atoms: C_9  and  C_10
REMARK    5  A    between atoms: C_13  and  O_16
REMARK    6  A    between atoms: O_16  and  C_17
REMARK                            x       y       z     vdW  Elec       q    Type
REMARK                         _______ _______ _______ _____ _____    ______ ____
ROOT
ATOM      1  C   UNL     1     102.790 128.011  83.677  0.00  0.00    +0.000 C 
ENDROOT
BRANCH   1   2
ATOM      2  C   UNL     1     101.311 127.870  83.408  0.00  0.00    +0.000 A 
ATOM      3  C   UNL     1     100.405 128.816  83.900  0.00  0.00    +0.000 A 
ATOM      4  C   UNL     1      99.032 128.677  83.669  0.00  0.00    +0.000 A 
ATOM      5  C   UNL     1      98.549 127.587  82.948  0.00  0.00    +0.000 A 
ATOM      6  C   UNL     1      99.451 126.638  82.461  0.00  0.00    +0.000 A 
ATOM      7  C   UNL     1     100.822 126.774  82.690  0.00  0.00    +0.000 A 
BRANCH   5   8
ATOM      8  O   UNL     1      97.237 127.332  82.653  0.00  0.00    +0.000 OA
ATOM      9  C   UNL     1      96.429 126.830  83.709  0.00  0.00    +0.000 C 
ENDBRANCH   5   8
ENDBRANCH   1   2
BRANCH   1  10
ATOM     10  C   UNL     1     103.528 128.622  82.480  0.00  0.00    +0.000 C 
BRANCH  10  14
ATOM     11  C   UNL     1     105.037 129.377  79.847  0.00  0.00    +0.000 C 
ATOM     12  C   UNL     1     104.978 127.980  80.363  0.00  0.00    +0.000 C 
ATOM     13  C   UNL     1     103.689 127.205  80.277  0.00  0.00    +0.000 C 
ATOM     14  C   UNL     1     104.231 127.585  81.632  0.00  0.00    +0.000 C 
ATOM     15  C   UNL     1     104.644 126.298  82.323  0.00  0.00    +0.000 C 
ATOM     16  C   UNL     1     103.832 125.215  81.604  0.00  0.00    +0.000 C 
ATOM     17  C   UNL     1     103.701 125.707  80.159  0.00  0.00    +0.000 C 
ENDBRANCH  10  14
ENDBRANCH   1  10
TORSDOF 4
ENDMDL
