MODEL 1
REMARK VINA RESULT:      -4.6      0.000      0.000
REMARK  Name = *****
REMARK  3 active torsions:
REMARK  status: ('A' for Active; 'I' for Inactive)
REMARK    1  A    between atoms: C_3  and  C_8
REMARK    2  A    between atoms: C_8  and  O_10
REMARK    3  A    between atoms: O_10  and  C_11
REMARK                            x       y       z     vdW  Elec       q    Type
REMARK                         _______ _______ _______ _____ _____    ______ ____
ROOT
ATOM      1  C   UNL     1     103.103 126.732  81.865  0.00  0.00    +0.000 C 
ATOM      2  O   UNL     1     103.168 127.419  80.856  0.00  0.00    +0.000 OA
ENDROOT
BRANCH   1   5
ATOM      3  C   UNL     1     104.237 123.444  83.335  0.00  0.00    +0.000 A 
ATOM      4  C   UNL     1     103.735 124.742  83.204  0.00  0.00    +0.000 A 
ATOM      5  C   UNL     1     103.646 125.348  81.939  0.00  0.00    +0.000 A 
ATOM      6  C   UNL     1     104.067 124.640  80.808  0.00  0.00    +0.000 A 
ATOM      7  C   UNL     1     104.565 123.350  80.955  0.00  0.00    +0.000 A 
ATOM      8  C   UNL     1     104.654 122.747  82.205  0.00  0.00    +0.000 A 
ATOM      9  F   UNL     1     104.967 122.675  79.870  0.00  0.00    +0.000 F 
ENDBRANCH   1   5
BRANCH   1  10
ATOM     10  O   UNL     1     102.543 127.081  83.079  0.00  0.00    +0.000 OA
BRANCH  10  11
ATOM     11  C   UNL     1     101.205 127.476  82.986  0.00  0.00    +0.000 A 
ATOM     12  C   UNL     1     100.805 128.716  83.478  0.00  0.00    +0.000 A 
ATOM     13  C   UNL     1      99.459 129.052  83.412  0.00  0.00    +0.000 A 
ATOM     14  C   UNL     1      98.521 128.167  82.885  0.00  0.00    +0.000 A 
ATOM     15  C   UNL     1      98.932 126.919  82.415  0.00  0.00    +0.000 A 
ATOM     16  C   UNL     1     100.281 126.566  82.471  0.00  0.00    +0.000 A 
ATOM     17  F   UNL     1      99.054 130.243  83.874  0.00  0.00    +0.000 F 
ENDBRANCH  10  11
ENDBRANCH   1  10
TORSDOF 3
ENDMDL
