MODEL 1
REMARK VINA RESULT:      -4.7      0.000      0.000
REMARK  Name = *****
REMARK  2 active torsions:
REMARK  status: ('A' for Active; 'I' for Inactive)
REMARK    1  A    between atoms: C_5  and  C_7
REMARK    2  A    between atoms: C_8  and  C_9
REMARK                            x       y       z     vdW  Elec       q    Type
REMARK                         _______ _______ _______ _____ _____    ______ ____
ROOT
ATOM      1  C   UNL     1      97.985 118.481  80.590  0.00  0.00    +0.000 C 
ATOM      2  C   UNL     1      97.502 117.567  79.978  0.00  0.00    +0.000 C 
ENDROOT
BRANCH   2   3
ATOM      3  C   UNL     1      96.933 116.483  79.240  0.00  0.00    +0.000 A 
ATOM      4  C   UNL     1      96.132 115.538  79.886  0.00  0.00    +0.000 A 
ATOM      5  C   UNL     1      95.576 114.479  79.164  0.00  0.00    +0.000 A 
ATOM      6  C   UNL     1      95.824 114.369  77.797  0.00  0.00    +0.000 A 
ATOM      7  C   UNL     1      96.622 115.308  77.144  0.00  0.00    +0.000 A 
ATOM      8  C   UNL     1      97.178 116.367  77.868  0.00  0.00    +0.000 A 
ATOM      9 BR   UNL     1      95.073 112.937  76.816  0.00  0.00    +0.000 Br
ENDBRANCH   2   3
BRANCH   1  14
ATOM     10  C   UNL     1      96.564 120.702  82.433  0.00  0.00    +0.000 C 
ATOM     11  C   UNL     1      97.184 120.522  83.821  0.00  0.00    +0.000 C 
ATOM     12  C   UNL     1      98.339 119.565  83.830  0.00  0.00    +0.000 C 
ATOM     13  C   UNL     1      98.952 119.143  82.713  0.00  0.00    +0.000 C 
ATOM     14  C   UNL     1      98.583 119.610  81.328  0.00  0.00    +0.000 C 
ATOM     15  C   UNL     1      97.637 120.823  81.350  0.00  0.00    +0.000 C 
ENDBRANCH   1  14
TORSDOF 2
ENDMDL
