REMARK  Name = *****
REMARK  4 active torsions:
REMARK  status: ('A' for Active; 'I' for Inactive)
REMARK    1  A    between atoms: C_6  and  C_7
REMARK    2  A    between atoms: C_7  and  C_8
REMARK    3  A    between atoms: C_7  and  O_17
REMARK    4  A    between atoms: C_8  and  C_9
REMARK                            x       y       z     vdW  Elec       q    Type
REMARK                         _______ _______ _______ _____ _____    ______ ____
ROOT
ATOM      1  C   UNL     1      -5.441  -0.999   1.733  0.00  0.00    +0.000 C 
ENDROOT
BRANCH   1   7
ATOM      2  C   UNL     1      -6.655   1.176   1.292  0.00  0.00    +0.000 A 
ATOM      3  C   UNL     1      -7.299   2.340   1.717  0.00  0.00    +0.000 A 
ATOM      4  C   UNL     1      -7.457   2.579   3.075  0.00  0.00    +0.000 A 
ATOM      5  C   UNL     1      -6.983   1.677   4.018  0.00  0.00    +0.000 A 
ATOM      6  C   UNL     1      -6.337   0.513   3.596  0.00  0.00    +0.000 A 
ATOM      7  C   UNL     1      -6.165   0.245   2.227  0.00  0.00    +0.000 A 
ATOM      8  F   UNL     1      -8.075   3.696   3.481  0.00  0.00    +0.000 F 
ENDBRANCH   1   7
BRANCH   1   9
ATOM      9  C   UNL     1      -3.936  -0.728   1.435  0.00  0.00    +0.000 C 
ATOM     10 CL   UNL     1      -2.959  -0.767   2.947  0.00  0.00    +0.000 Cl
BRANCH   9  11
ATOM     11  C   UNL     1      -3.310  -1.687   0.434  0.00  0.00    +0.000 A 
ATOM     12  C   UNL     1      -3.472  -3.081   0.527  0.00  0.00    +0.000 A 
ATOM     13  C   UNL     1      -2.876  -3.932  -0.406  0.00  0.00    +0.000 A 
ATOM     14  C   UNL     1      -2.110  -3.398  -1.434  0.00  0.00    +0.000 A 
ATOM     15  C   UNL     1      -1.925  -2.026  -1.544  0.00  0.00    +0.000 A 
ATOM     16  C   UNL     1      -2.519  -1.173  -0.612  0.00  0.00    +0.000 A 
ATOM     17  F   UNL     1      -1.539  -4.215  -2.327  0.00  0.00    +0.000 F 
ENDBRANCH   9  11
ENDBRANCH   1   9
BRANCH   1  18
ATOM     18  O   UNL     1      -5.645  -2.076   2.658  0.00  0.00    +0.000 OA
ATOM     19  H   UNL     1      -5.271  -1.837   3.521  0.00  0.00    +0.000 HD
ENDBRANCH   1  18
TORSDOF 4
