MODEL 1
REMARK VINA RESULT:      -4.9      0.000      0.000
REMARK  Name = *****
REMARK  2 active torsions:
REMARK  status: ('A' for Active; 'I' for Inactive)
REMARK    1  A    between atoms: C_4  and  C_7
REMARK    2  A    between atoms: C_10  and  C_11
REMARK                            x       y       z     vdW  Elec       q    Type
REMARK                         _______ _______ _______ _____ _____    ______ ____
ROOT
ATOM      1  C   UNL     1      87.076  70.933  87.574  0.00  0.00    +0.000 C 
ATOM      2  C   UNL     1      87.352  71.259  89.036  0.00  0.00    +0.000 C 
ATOM      3  C   UNL     1      87.387  69.968  89.415  0.00  0.00    +0.000 C 
ATOM      4  C   UNL     1      86.975  69.444  88.045  0.00  0.00    +0.000 C 
ENDROOT
BRANCH   1   8
ATOM      5  C   UNL     1      83.467  72.932  85.928  0.00  0.00    +0.000 A 
ATOM      6  C   UNL     1      84.470  72.473  85.084  0.00  0.00    +0.000 A 
ATOM      7  C   UNL     1      85.602  71.848  85.616  0.00  0.00    +0.000 A 
ATOM      8  C   UNL     1      85.776  71.658  87.004  0.00  0.00    +0.000 A 
ATOM      9  C   UNL     1      84.734  72.140  87.826  0.00  0.00    +0.000 A 
ATOM     10  C   UNL     1      83.598  72.767  87.302  0.00  0.00    +0.000 A 
ENDBRANCH   1   8
BRANCH   4  11
ATOM     11  C   UNL     1      87.992  68.369  87.452  0.00  0.00    +0.000 A 
ATOM     12  C   UNL     1      87.743  66.987  87.584  0.00  0.00    +0.000 A 
ATOM     13  C   UNL     1      88.611  66.019  87.069  0.00  0.00    +0.000 A 
ATOM     14  C   UNL     1      89.763  66.405  86.397  0.00  0.00    +0.000 A 
ATOM     15  C   UNL     1      90.048  67.757  86.244  0.00  0.00    +0.000 A 
ATOM     16  C   UNL     1      89.174  68.718  86.763  0.00  0.00    +0.000 A 
ENDBRANCH   4  11
TORSDOF 2
ENDMDL
