REMARK  Name = *****
REMARK  3 active torsions:
REMARK  status: ('A' for Active; 'I' for Inactive)
REMARK    1  A    between atoms: C_1  and  C_2
REMARK    2  A    between atoms: C_5  and  C_7
REMARK    3  A    between atoms: C_8  and  C_9
REMARK                            x       y       z     vdW  Elec       q    Type
REMARK                         _______ _______ _______ _____ _____    ______ ____
ROOT
ATOM      1  C   UNL     1      -2.430   1.624   0.043  0.00  0.00    +0.000 C 
ATOM      2  C   UNL     1      -3.732   1.299  -0.014  0.00  0.00    +0.000 C 
ENDROOT
BRANCH   1   7
ATOM      3  C   UNL     1      -0.574  -2.875   0.105  0.00  0.00    +0.000 C 
ATOM      4  C   UNL     1      -0.495  -1.402   0.110  0.00  0.00    +0.000 A 
ATOM      5  C   UNL     1       0.547  -0.507   0.153  0.00  0.00    +0.000 A 
ATOM      6  C   UNL     1      -0.045   0.778   0.133  0.00  0.00    +0.000 A 
ATOM      7  C   UNL     1      -1.425   0.618   0.079  0.00  0.00    +0.000 A 
ATOM      8  O   UNL     1      -1.679  -0.737   0.065  0.00  0.00    +0.000 OA
ENDBRANCH   1   7
BRANCH   2   9
ATOM      9  C   UNL     1      -4.823   2.282  -0.041  0.00  0.00    +0.000 A 
ATOM     10  C   UNL     1      -4.736   3.480  -0.763  0.00  0.00    +0.000 A 
ATOM     11  C   UNL     1      -5.809   4.375  -0.786  0.00  0.00    +0.000 A 
ATOM     12  C   UNL     1      -6.983   4.077  -0.097  0.00  0.00    +0.000 A 
ATOM     13  C   UNL     1      -7.088   2.882   0.610  0.00  0.00    +0.000 A 
ATOM     14  C   UNL     1      -6.015   1.987   0.633  0.00  0.00    +0.000 A 
ENDBRANCH   2   9
TORSDOF 2
