MODEL 1
REMARK VINA RESULT:      -4.3      0.000      0.000
REMARK  Name = *****
REMARK  5 active torsions:
REMARK  status: ('A' for Active; 'I' for Inactive)
REMARK    1  A    between atoms: C_1  and  C_2
REMARK    2  A    between atoms: C_5  and  S_8
REMARK    3  A    between atoms: S_8  and  C_9
REMARK    4  A    between atoms: C_9  and  C_10
REMARK    5  A    between atoms: C_11  and  C_16
REMARK                            x       y       z     vdW  Elec       q    Type
REMARK                         _______ _______ _______ _____ _____    ______ ____
ROOT
ATOM      1  S   UNL     1      89.105  70.026  86.679  0.00  0.00    +0.000 S 
ENDROOT
BRANCH   1   6
ATOM      2  C   UNL     1      83.654  72.792  86.587  0.00  0.00    +0.000 C 
ATOM      3  C   UNL     1      84.984  72.102  86.651  0.00  0.00    +0.000 A 
ATOM      4  C   UNL     1      85.555  71.744  87.876  0.00  0.00    +0.000 A 
ATOM      5  C   UNL     1      86.802  71.110  87.925  0.00  0.00    +0.000 A 
ATOM      6  C   UNL     1      87.501  70.816  86.750  0.00  0.00    +0.000 A 
ATOM      7  C   UNL     1      86.925  71.178  85.525  0.00  0.00    +0.000 A 
ATOM      8  C   UNL     1      85.680  71.814  85.474  0.00  0.00    +0.000 A 
ENDBRANCH   1   6
BRANCH   1   9
ATOM      9  C   UNL     1      88.716  68.258  86.863  0.00  0.00    +0.000 C 
BRANCH   9  10
ATOM     10  C   UNL     1      89.567  67.465  85.930  0.00  0.00    +0.000 A 
ATOM     11  C   UNL     1      89.529  67.353  84.619  0.00  0.00    +0.000 A 
ATOM     12  O   UNL     1      90.491  66.475  84.158  0.00  0.00    +0.000 OA
ATOM     13  C   UNL     1      91.093  66.074  85.339  0.00  0.00    +0.000 A 
ATOM     14  O   UNL     1      92.014  65.269  85.379  0.00  0.00    +0.000 OA
ATOM     15  O   UNL     1      90.547  66.652  86.474  0.00  0.00    +0.000 OA
ATOM     16  C   UNL     1      88.661  68.011  83.611  0.00  0.00    +0.000 C 
ENDBRANCH   9  10
ENDBRANCH   1   9
TORSDOF 3
ENDMDL
