MODEL 1
REMARK VINA RESULT:      -4.4      0.000      0.000
REMARK  Name = *****
REMARK  6 active torsions:
REMARK  status: ('A' for Active; 'I' for Inactive)
REMARK    1  A    between atoms: C_1  and  C_2
REMARK    2  A    between atoms: C_4  and  S_10
REMARK    3  A    between atoms: C_5  and  C_9
REMARK    4  A    between atoms: S_10  and  C_11
REMARK    5  A    between atoms: C_11  and  C_12
REMARK    6  A    between atoms: C_15  and  C_17
REMARK                            x       y       z     vdW  Elec       q    Type
REMARK                         _______ _______ _______ _____ _____    ______ ____
ROOT
ATOM      1  C   UNL     1     103.601 127.467  80.089  0.00  0.00    +0.000 C 
ATOM      2  C   UNL     1     103.056 126.998  81.409  0.00  0.00    +0.000 A 
ATOM      3  C   UNL     1     102.410 127.912  82.257  0.00  0.00    +0.000 A 
ATOM      4  C   UNL     1     101.882 127.517  83.496  0.00  0.00    +0.000 A 
ATOM      5  C   UNL     1     102.018 126.183  83.918  0.00  0.00    +0.000 A 
ATOM      6  C   UNL     1     102.666 125.269  83.071  0.00  0.00    +0.000 A 
ATOM      7  C   UNL     1     103.176 125.668  81.832  0.00  0.00    +0.000 A 
ATOM      8 CL   UNL     1     103.955 124.476  80.856  0.00  0.00    +0.000 Cl
ATOM      9  C   UNL     1     101.497 125.701  85.245  0.00  0.00    +0.000 C 
ENDROOT
BRANCH   4  10
ATOM     10  S   UNL     1     101.074 128.755  84.507  0.00  0.00    +0.000 S 
BRANCH  10  11
ATOM     11  C   UNL     1      99.633 129.099  83.436  0.00  0.00    +0.000 C 
BRANCH  11  12
ATOM     12  C   UNL     1      98.729 127.920  83.352  0.00  0.00    +0.000 A 
ATOM     13  N   UNL     1      98.477 127.337  82.171  0.00  0.00    +0.000 NA
ATOM     14  O   UNL     1      97.632 126.277  82.445  0.00  0.00    +0.000 OA
ATOM     15  C   UNL     1      97.390 126.223  83.781  0.00  0.00    +0.000 A 
ATOM     16  C   UNL     1      98.069 127.239  84.406  0.00  0.00    +0.000 A 
ATOM     17  C   UNL     1      96.504 125.140  84.243  0.00  0.00    +0.000 C 
ENDBRANCH  11  12
ENDBRANCH  10  11
ENDBRANCH   4  10
TORSDOF 3
ENDMDL
