MODEL 1
REMARK VINA RESULT:      -3.9      0.000      0.000
REMARK  Name = *****
REMARK  3 active torsions:
REMARK  status: ('A' for Active; 'I' for Inactive)
REMARK    1  A    between atoms: C_4  and  S_7
REMARK    2  A    between atoms: S_7  and  C_8
REMARK    3  A    between atoms: C_8  and  C_10
REMARK                            x       y       z     vdW  Elec       q    Type
REMARK                         _______ _______ _______ _____ _____    ______ ____
ROOT
ATOM      1  S   UNL     1     103.253 127.048  83.367  0.00  0.00    +0.000 S 
ENDROOT
BRANCH   1   5
ATOM      2  C   UNL     1      98.816 128.045  82.805  0.00  0.00    +0.000 A 
ATOM      3  C   UNL     1      99.324 126.825  82.362  0.00  0.00    +0.000 A 
ATOM      4  C   UNL     1     100.678 126.528  82.534  0.00  0.00    +0.000 A 
ATOM      5  C   UNL     1     101.533 127.455  83.140  0.00  0.00    +0.000 A 
ATOM      6  C   UNL     1     101.014 128.673  83.593  0.00  0.00    +0.000 A 
ATOM      7  C   UNL     1      99.661 128.967  83.422  0.00  0.00    +0.000 A 
ENDBRANCH   1   5
BRANCH   1   8
ATOM      8  C   UNL     1     103.728 126.542  81.745  0.00  0.00    +0.000 C 
ATOM      9  S   UNL     1     103.631 127.525  80.388  0.00  0.00    +0.000 S 
BRANCH   8  10
ATOM     10  C   UNL     1     104.080 125.139  81.596  0.00  0.00    +0.000 A 
ATOM     11  C   UNL     1     104.391 124.438  80.439  0.00  0.00    +0.000 A 
ATOM     12  C   UNL     1     104.701 123.069  80.682  0.00  0.00    +0.000 A 
ATOM     13  C   UNL     1     104.634 122.757  82.019  0.00  0.00    +0.000 A 
ATOM     14  S   UNL     1     104.206 124.109  82.971  0.00  0.00    +0.000 S 
ENDBRANCH   8  10
ENDBRANCH   1   8
TORSDOF 3
ENDMDL
