REMARK  Name = *****
REMARK  3 active torsions:
REMARK  status: ('A' for Active; 'I' for Inactive)
REMARK    1  A    between atoms: C_2  and  C_8
REMARK    2  A    between atoms: C_8  and  O_10
REMARK    3  A    between atoms: O_10  and  C_11
REMARK                            x       y       z     vdW  Elec       q    Type
REMARK                         _______ _______ _______ _____ _____    ______ ____
ROOT
ATOM      1  C   UNL     1       4.522  -0.022  -0.421  0.00  0.00    +0.000 A 
ATOM      2  C   UNL     1       5.462   0.464   0.484  0.00  0.00    +0.000 A 
ATOM      3  C   UNL     1       6.751   0.750   0.052  0.00  0.00    +0.000 A 
ATOM      4  C   UNL     1       7.102   0.540  -1.278  0.00  0.00    +0.000 A 
ATOM      5  C   UNL     1       6.166   0.041  -2.177  0.00  0.00    +0.000 A 
ATOM      6  C   UNL     1       4.875  -0.246  -1.749  0.00  0.00    +0.000 A 
ATOM      7  F   UNL     1       3.972  -0.737  -2.609  0.00  0.00    +0.000 F 
ATOM      8  F   UNL     1       6.511  -0.174  -3.454  0.00  0.00    +0.000 F 
ATOM      9  F   UNL     1       8.348   0.810  -1.691  0.00  0.00    +0.000 F 
ATOM     10  F   UNL     1       7.660   1.218   0.919  0.00  0.00    +0.000 F 
ATOM     11  F   UNL     1       5.123   0.654   1.767  0.00  0.00    +0.000 F 
ENDROOT
BRANCH   1  12
ATOM     12  O   UNL     1       3.232  -0.320   0.011  0.00  0.00    +0.000 OA
BRANCH  12  13
ATOM     13  C   UNL     1       2.390   0.779  -0.139  0.00  0.00    +0.000 C 
ATOM     14  O   UNL     1       2.728   1.878  -0.559  0.00  0.00    +0.000 OA
BRANCH  13  16
ATOM     15  C   UNL     1      -0.025   1.572   0.280  0.00  0.00    +0.000 C 
ATOM     16  C   UNL     1       0.999   0.394   0.321  0.00  0.00    +0.000 C 
ATOM     17  C   UNL     1       0.367  -0.630  -0.653  0.00  0.00    +0.000 C 
ATOM     18  C   UNL     1      -0.268   0.291  -1.704  0.00  0.00    +0.000 C 
ATOM     19  C   UNL     1      -1.115   1.043  -0.677  0.00  0.00    +0.000 C 
ATOM     20  C   UNL     1      -1.785  -0.139  -0.014  0.00  0.00    +0.000 C 
ATOM     21  C   UNL     1      -0.898  -1.147  -0.006  0.00  0.00    +0.000 C 
ENDBRANCH  13  16
ENDBRANCH  12  13
ENDBRANCH   1  12
TORSDOF 3
