REMARK  Name = *****
REMARK  4 active torsions:
REMARK  status: ('A' for Active; 'I' for Inactive)
REMARK    1  A    between atoms: C_4  and  C_8
REMARK    2  A    between atoms: C_8  and  O_10
REMARK    3  A    between atoms: O_10  and  C_11
REMARK    4  A    between atoms: C_11  and  C_12
REMARK                            x       y       z     vdW  Elec       q    Type
REMARK                         _______ _______ _______ _____ _____    ______ ____
ROOT
ATOM      1  C   UNL     1       0.024   2.634   0.161  0.00  0.00    +0.000 C 
ATOM      2  O   UNL     1      -0.951   3.289   0.486  0.00  0.00    +0.000 OA
ENDROOT
BRANCH   1   6
ATOM      3  C   UNL     1       0.047  -1.628   0.058  0.00  0.00    +0.000 A 
ATOM      4  C   UNL     1      -1.003  -0.913  -0.519  0.00  0.00    +0.000 A 
ATOM      5  C   UNL     1      -0.997   0.482  -0.483  0.00  0.00    +0.000 A 
ATOM      6  C   UNL     1       0.051   1.171   0.119  0.00  0.00    +0.000 A 
ATOM      7  C   UNL     1       1.093   0.452   0.700  0.00  0.00    +0.000 A 
ATOM      8  C   UNL     1       1.097  -0.943   0.671  0.00  0.00    +0.000 A 
ATOM      9  F   UNL     1       2.103   1.079   1.320  0.00  0.00    +0.000 F 
ATOM     10  F   UNL     1      -2.009   1.139  -1.066  0.00  0.00    +0.000 F 
ENDBRANCH   1   6
BRANCH   1  11
ATOM     11  O   UNL     1       1.223   3.107  -0.254  0.00  0.00    +0.000 OA
BRANCH  11  12
ATOM     12  C   UNL     1       1.358   4.533  -0.237  0.00  0.00    +0.000 C 
BRANCH  12  13
ATOM     13  C   UNL     1       1.964   4.963   1.073  0.00  0.00    +0.000 A 
ATOM     14  C   UNL     1       3.324   4.742   1.335  0.00  0.00    +0.000 A 
ATOM     15  C   UNL     1       3.871   5.122   2.558  0.00  0.00    +0.000 A 
ATOM     16  C   UNL     1       3.091   5.717   3.539  0.00  0.00    +0.000 A 
ATOM     17  C   UNL     1       1.743   5.924   3.285  0.00  0.00    +0.000 A 
ATOM     18  C   UNL     1       1.172   5.551   2.069  0.00  0.00    +0.000 A 
ATOM     19  F   UNL     1       0.975   6.490   4.225  0.00  0.00    +0.000 F 
ATOM     20  F   UNL     1       5.172   4.908   2.791  0.00  0.00    +0.000 F 
ENDBRANCH  12  13
ENDBRANCH  11  12
ENDBRANCH   1  11
TORSDOF 4
