REMARK  Name = *****
REMARK  3 active torsions:
REMARK  status: ('A' for Active; 'I' for Inactive)
REMARK    1  A    between atoms: C_4  and  C_7
REMARK    2  A    between atoms: C_7  and  S_9
REMARK    3  A    between atoms: S_9  and  C_10
REMARK                            x       y       z     vdW  Elec       q    Type
REMARK                         _______ _______ _______ _____ _____    ______ ____
ROOT
ATOM      1  C   UNL     1      -2.959   0.118  -0.591  0.00  0.00    +0.000 C 
ATOM      2  O   UNL     1      -3.564   1.154  -0.338  0.00  0.00    +0.000 OA
ENDROOT
BRANCH   1   6
ATOM      3  C   UNL     1       1.238  -0.105   0.317  0.00  0.00    +0.000 A 
ATOM      4  C   UNL     1       0.550  -1.277   0.012  0.00  0.00    +0.000 A 
ATOM      5  C   UNL     1      -0.816  -1.234  -0.286  0.00  0.00    +0.000 A 
ATOM      6  C   UNL     1      -1.503  -0.011  -0.285  0.00  0.00    +0.000 A 
ATOM      7  C   UNL     1      -0.800   1.161   0.036  0.00  0.00    +0.000 A 
ATOM      8  C   UNL     1       0.565   1.114   0.332  0.00  0.00    +0.000 A 
ENDBRANCH   1   6
BRANCH   1   9
ATOM      9  S   UNL     1      -3.763  -1.223  -1.404  0.00  0.00    +0.000 S 
BRANCH   9  10
ATOM     10  C   UNL     1      -5.012  -1.526  -0.207  0.00  0.00    +0.000 A 
ATOM     11  C   UNL     1      -6.369  -1.424  -0.426  0.00  0.00    +0.000 A 
ATOM     12  C   UNL     1      -7.130  -1.765   0.732  0.00  0.00    +0.000 A 
ATOM     13  C   UNL     1      -6.325  -2.125   1.789  0.00  0.00    +0.000 A 
ATOM     14  S   UNL     1      -4.665  -2.061   1.381  0.00  0.00    +0.000 S 
ENDBRANCH   9  10
ENDBRANCH   1   9
TORSDOF 3
