REMARK  Name = *****
REMARK  4 active torsions:
REMARK  status: ('A' for Active; 'I' for Inactive)
REMARK    1  A    between atoms: C_1  and  C_2
REMARK    2  A    between atoms: C_3  and  C_9
REMARK    3  A    between atoms: N_11  and  C_12
REMARK    4  A    between atoms: N_11  and  C_13
REMARK                            x       y       z     vdW  Elec       q    Type
REMARK                         _______ _______ _______ _____ _____    ______ ____
ROOT
ATOM      1  C   UNL     1      -3.365  -1.233   0.428  0.00  0.00    +0.000 C 
ATOM      2  O   UNL     1      -3.399  -2.432   0.693  0.00  0.00    +0.000 OA
ATOM      3  N   UNL     1      -4.462  -0.390   0.164  0.00  0.00    +0.000 N 
ATOM      4  C   UNL     1      -4.276   0.890  -0.529  0.00  0.00    +0.000 C 
ENDROOT
BRANCH   1   7
ATOM      5  C   UNL     1      -1.424  -1.977  -1.681  0.00  0.00    +0.000 C 
ATOM      6  C   UNL     1      -1.081  -0.991  -0.600  0.00  0.00    +0.000 A 
ATOM      7  C   UNL     1      -2.007  -0.638   0.399  0.00  0.00    +0.000 A 
ATOM      8  C   UNL     1      -1.656   0.249   1.428  0.00  0.00    +0.000 A 
ATOM      9  C   UNL     1      -0.379   0.808   1.456  0.00  0.00    +0.000 A 
ATOM     10  C   UNL     1       0.543   0.470   0.467  0.00  0.00    +0.000 A 
ATOM     11  C   UNL     1       0.203  -0.425  -0.550  0.00  0.00    +0.000 A 
ATOM     12 CL   UNL     1       2.121   1.158   0.504  0.00  0.00    +0.000 Cl
ENDBRANCH   1   7
BRANCH   3  13
ATOM     13  C   UNL     1      -5.824  -0.789   0.461  0.00  0.00    +0.000 A 
ATOM     14  C   UNL     1      -6.117  -1.881   1.291  0.00  0.00    +0.000 A 
ATOM     15  C   UNL     1      -7.437  -2.248   1.589  0.00  0.00    +0.000 A 
ATOM     16  C   UNL     1      -8.500  -1.523   1.069  0.00  0.00    +0.000 A 
ATOM     17  C   UNL     1      -8.243  -0.427   0.257  0.00  0.00    +0.000 A 
ATOM     18  C   UNL     1      -6.922  -0.063  -0.038  0.00  0.00    +0.000 A 
ENDBRANCH   3  13
TORSDOF 2
