MODEL 1
REMARK VINA RESULT:      -5.1      0.000      0.000
REMARK  Name = *****
REMARK  3 active torsions:
REMARK  status: ('A' for Active; 'I' for Inactive)
REMARK    1  A    between atoms: C_4  and  C_7
REMARK    2  A    between atoms: C_7  and  C_8
REMARK    3  A    between atoms: C_8  and  C_11
REMARK                            x       y       z     vdW  Elec       q    Type
REMARK                         _______ _______ _______ _____ _____    ______ ____
ROOT
ATOM      1  C   UNL     1     100.425 127.488  83.234  0.00  0.00    +0.000 C 
ATOM      2  C   UNL     1      99.373 127.052  82.596  0.00  0.00    +0.000 C 
ATOM      3  O   UNL     1      98.428 126.663  82.015  0.00  0.00    +0.000 OA
ENDROOT
BRANCH   1   4
ATOM      4  C   UNL     1     100.505 128.905  83.667  0.00  0.00    +0.000 A 
ATOM      5  C   UNL     1      99.422 129.780  83.489  0.00  0.00    +0.000 A 
ATOM      6  C   UNL     1      99.495 131.110  83.915  0.00  0.00    +0.000 A 
ATOM      7  C   UNL     1     100.651 131.585  84.529  0.00  0.00    +0.000 A 
ATOM      8  C   UNL     1     101.736 130.734  84.712  0.00  0.00    +0.000 A 
ATOM      9  C   UNL     1     101.666 129.406  84.280  0.00  0.00    +0.000 A 
ENDBRANCH   1   4
BRANCH   1  10
ATOM     10  C   UNL     1     101.645 126.615  83.412  0.00  0.00    +0.000 C 
BRANCH  10  14
ATOM     11  C   UNL     1     104.243 125.834  80.036  0.00  0.00    +0.000 A 
ATOM     12  C   UNL     1     103.730 127.116  80.212  0.00  0.00    +0.000 A 
ATOM     13  C   UNL     1     102.884 127.397  81.289  0.00  0.00    +0.000 A 
ATOM     14  C   UNL     1     102.539 126.394  82.206  0.00  0.00    +0.000 A 
ATOM     15  C   UNL     1     103.065 125.105  82.011  0.00  0.00    +0.000 A 
ATOM     16  C   UNL     1     103.909 124.825  80.936  0.00  0.00    +0.000 A 
ENDBRANCH  10  14
ENDBRANCH   1  10
TORSDOF 3
ENDMDL
