MODEL 1
REMARK VINA RESULT:      -4.9      0.000      0.000
REMARK  Name = *****
REMARK  2 active torsions:
REMARK  status: ('A' for Active; 'I' for Inactive)
REMARK    1  A    between atoms: C_2  and  C_11
REMARK    2  A    between atoms: C_4  and  C_5
REMARK                            x       y       z     vdW  Elec       q    Type
REMARK                         _______ _______ _______ _____ _____    ______ ____
ROOT
ATOM      1  C   UNL     1      89.459  69.240  84.216  0.00  0.00    +0.000 C 
ATOM      2  C   UNL     1      89.388  70.294  85.388  0.00  0.00    +0.000 C 
ATOM      3  C   UNL     1      89.652  68.912  85.571  0.00  0.00    +0.000 C 
ATOM      4  C   UNL     1      89.905  67.970  86.459  0.00  0.00    +0.000 C 
ENDROOT
BRANCH   4   5
ATOM      5  C   UNL     1      90.109  66.548  86.148  0.00  0.00    +0.000 A 
ATOM      6  C   UNL     1      91.230  66.076  85.454  0.00  0.00    +0.000 A 
ATOM      7  C   UNL     1      91.394  64.710  85.208  0.00  0.00    +0.000 A 
ATOM      8  C   UNL     1      90.444  63.798  85.664  0.00  0.00    +0.000 A 
ATOM      9  C   UNL     1      89.333  64.252  86.368  0.00  0.00    +0.000 A 
ATOM     10  C   UNL     1      89.168  65.619  86.613  0.00  0.00    +0.000 A 
ENDBRANCH   4   5
BRANCH   2  11
ATOM     11  C   UNL     1      88.047  70.840  85.803  0.00  0.00    +0.000 A 
ATOM     12  C   UNL     1      87.181  71.451  84.879  0.00  0.00    +0.000 A 
ATOM     13  C   UNL     1      85.927  71.937  85.262  0.00  0.00    +0.000 A 
ATOM     14  C   UNL     1      85.507  71.815  86.582  0.00  0.00    +0.000 A 
ATOM     15  C   UNL     1      86.337  71.203  87.516  0.00  0.00    +0.000 A 
ATOM     16  C   UNL     1      87.590  70.719  87.126  0.00  0.00    +0.000 A 
ENDBRANCH   2  11
TORSDOF 2
ENDMDL
