REMARK  Name = *****
REMARK  3 active torsions:
REMARK  status: ('A' for Active; 'I' for Inactive)
REMARK    1  A    between atoms: C_1  and  C_2
REMARK    2  A    between atoms: C_9  and  C_11
REMARK    3  A    between atoms: C_11  and  C_12
REMARK                            x       y       z     vdW  Elec       q    Type
REMARK                         _______ _______ _______ _____ _____    ______ ____
ROOT
ATOM      1  C   UNL     1       0.920   0.066  -0.039  0.00  0.00    +0.000 C 
ATOM      2  C   UNL     1       2.420  -0.003  -0.017  0.00  0.00    +0.000 A 
ATOM      3  C   UNL     1       3.073  -1.251  -0.012  0.00  0.00    +0.000 A 
ATOM      4  C   UNL     1       4.474  -1.275  -0.004  0.00  0.00    +0.000 A 
ATOM      5  C   UNL     1       5.166  -0.075  -0.006  0.00  0.00    +0.000 A 
ATOM      6  C   UNL     1       4.572   1.180  -0.015  0.00  0.00    +0.000 A 
ATOM      7  C   UNL     1       3.170   1.188  -0.022  0.00  0.00    +0.000 A 
ATOM      8  O   UNL     1       6.500  -0.360  -0.001  0.00  0.00    +0.000 OA
ATOM      9  C   UNL     1       6.540  -1.732   0.012  0.00  0.00    +0.000 A 
ATOM     10  N   UNL     1       5.359  -2.324   0.003  0.00  0.00    +0.000 NA
ENDROOT
BRANCH   9  11
ATOM     11  C   UNL     1       7.890  -2.360   0.015  0.00  0.00    +0.000 C 
BRANCH  11  12
ATOM     12  C   UNL     1       8.500  -2.475   1.396  0.00  0.00    +0.000 A 
ATOM     13  C   UNL     1       9.718  -1.841   1.692  0.00  0.00    +0.000 A 
ATOM     14  C   UNL     1      10.288  -1.964   2.960  0.00  0.00    +0.000 A 
ATOM     15  C   UNL     1       9.644  -2.719   3.933  0.00  0.00    +0.000 A 
ATOM     16  C   UNL     1       8.440  -3.356   3.662  0.00  0.00    +0.000 A 
ATOM     17  C   UNL     1       7.869  -3.238   2.394  0.00  0.00    +0.000 A 
ATOM     18  F   UNL     1      10.194  -2.835   5.149  0.00  0.00    +0.000 F 
ENDBRANCH  11  12
ENDBRANCH   9  11
TORSDOF 2
