MODEL 1
REMARK VINA RESULT:      -4.6      0.000      0.000
REMARK  Name = *****
REMARK  2 active torsions:
REMARK  status: ('A' for Active; 'I' for Inactive)
REMARK    1  A    between atoms: C_4  and  C_7
REMARK    2  A    between atoms: N_8  and  C_9
REMARK                            x       y       z     vdW  Elec       q    Type
REMARK                         _______ _______ _______ _____ _____    ______ ____
ROOT
ATOM      1  C   UNL     1     101.967 125.973  82.500  0.00  0.00    +0.000 C 
ATOM      2  N   UNL     1     102.749 126.033  81.469  0.00  0.00    +0.000 NA
ENDROOT
BRANCH   2   3
ATOM      3  C   UNL     1     103.662 124.980  81.330  0.00  0.00    +0.000 A 
ATOM      4  C   UNL     1     104.343 124.786  80.125  0.00  0.00    +0.000 A 
ATOM      5  C   UNL     1     105.266 123.745  79.993  0.00  0.00    +0.000 A 
ATOM      6  C   UNL     1     105.514 122.903  81.076  0.00  0.00    +0.000 A 
ATOM      7  C   UNL     1     104.853 123.096  82.287  0.00  0.00    +0.000 A 
ATOM      8  C   UNL     1     103.931 124.139  82.413  0.00  0.00    +0.000 A 
ATOM      9 CL   UNL     1     106.650 121.621  80.917  0.00  0.00    +0.000 Cl
ENDBRANCH   2   3
BRANCH   1  13
ATOM     10  C   UNL     1      99.010 128.944  83.278  0.00  0.00    +0.000 A 
ATOM     11  C   UNL     1     100.334 129.175  83.655  0.00  0.00    +0.000 A 
ATOM     12  C   UNL     1     101.309 128.208  83.404  0.00  0.00    +0.000 A 
ATOM     13  C   UNL     1     100.955 127.011  82.776  0.00  0.00    +0.000 A 
ATOM     14  C   UNL     1      99.629 126.779  82.398  0.00  0.00    +0.000 A 
ATOM     15  C   UNL     1      98.658 127.749  82.650  0.00  0.00    +0.000 A 
ENDBRANCH   1  13
TORSDOF 2
ENDMDL
