MODEL 1
REMARK VINA RESULT:      -4.6      0.000      0.000
REMARK  Name = *****
REMARK  3 active torsions:
REMARK  status: ('A' for Active; 'I' for Inactive)
REMARK    1  A    between atoms: C_1  and  C_2
REMARK    2  A    between atoms: C_5  and  C_8
REMARK    3  A    between atoms: C_9  and  C_10
REMARK                            x       y       z     vdW  Elec       q    Type
REMARK                         _______ _______ _______ _____ _____    ______ ____
ROOT
ATOM      1  C   UNL     1     102.567 126.077  81.663  0.00  0.00    +0.000 C 
ATOM      2  C   UNL     1     103.326 125.343  81.090  0.00  0.00    +0.000 C 
ENDROOT
BRANCH   1   7
ATOM      3  C   UNL     1      99.069 129.598  84.538  0.00  0.00    +0.000 C 
ATOM      4  C   UNL     1      99.974 128.684  83.764  0.00  0.00    +0.000 A 
ATOM      5  C   UNL     1      99.464 127.565  83.096  0.00  0.00    +0.000 A 
ATOM      6  C   UNL     1     100.320 126.710  82.396  0.00  0.00    +0.000 A 
ATOM      7  C   UNL     1     101.691 126.966  82.361  0.00  0.00    +0.000 A 
ATOM      8  C   UNL     1     102.207 128.079  83.025  0.00  0.00    +0.000 A 
ATOM      9  C   UNL     1     101.352 128.935  83.724  0.00  0.00    +0.000 A 
ENDBRANCH   1   7
BRANCH   2  10
ATOM     10  C   UNL     1     104.263 124.453  80.409  0.00  0.00    +0.000 C 
ATOM     11  C   UNL     1     104.564 123.103  81.145  0.00  0.00    +0.000 C 
ATOM     12  C   UNL     1     105.226 123.560  82.491  0.00  0.00    +0.000 C 
ATOM     13  C   UNL     1     106.249 124.471  81.856  0.00  0.00    +0.000 C 
ATOM     14  C   UNL     1     105.651 125.033  80.603  0.00  0.00    +0.000 C 
ATOM     15  C   UNL     1     106.619 123.893  80.534  0.00  0.00    +0.000 C 
ATOM     16  C   UNL     1     105.820 122.621  80.343  0.00  0.00    +0.000 C 
ENDBRANCH   2  10
TORSDOF 2
ENDMDL
