MODEL 1
REMARK VINA RESULT:      -4.8      0.000      0.000
REMARK  Name = *****
REMARK  4 active torsions:
REMARK  status: ('A' for Active; 'I' for Inactive)
REMARK    1  A    between atoms: C_1  and  C_2
REMARK    2  A    between atoms: C_4  and  C_8
REMARK    3  A    between atoms: N_9  and  C_10
REMARK    4  A    between atoms: C_15  and  C_16
REMARK                            x       y       z     vdW  Elec       q    Type
REMARK                         _______ _______ _______ _____ _____    ______ ____
ROOT
ATOM      1  C   UNL     1     102.586 126.032  81.464  0.00  0.00    +0.000 C 
ATOM      2  N   UNL     1     102.066 126.066  82.650  0.00  0.00    +0.000 NA
ENDROOT
BRANCH   1   6
ATOM      3  C   UNL     1     106.236 124.550  78.357  0.00  0.00    +0.000 C 
ATOM      4  C   UNL     1     105.447 124.378  79.621  0.00  0.00    +0.000 A 
ATOM      5  C   UNL     1     104.421 125.276  79.945  0.00  0.00    +0.000 A 
ATOM      6  C   UNL     1     103.666 125.092  81.108  0.00  0.00    +0.000 A 
ATOM      7  C   UNL     1     103.920 124.009  81.951  0.00  0.00    +0.000 A 
ATOM      8  C   UNL     1     104.931 123.105  81.626  0.00  0.00    +0.000 A 
ATOM      9  C   UNL     1     105.687 123.285  80.465  0.00  0.00    +0.000 A 
ENDBRANCH   1   6
BRANCH   2  10
ATOM     10  C   UNL     1     101.049 127.016  82.844  0.00  0.00    +0.000 A 
ATOM     11  C   UNL     1      99.751 126.730  82.406  0.00  0.00    +0.000 A 
ATOM     12  C   UNL     1      98.718 127.649  82.587  0.00  0.00    +0.000 A 
ATOM     13  C   UNL     1      98.975 128.863  83.218  0.00  0.00    +0.000 A 
ATOM     14  C   UNL     1     100.262 129.153  83.676  0.00  0.00    +0.000 A 
ATOM     15  C   UNL     1     101.306 128.230  83.504  0.00  0.00    +0.000 A 
ATOM     16  C   UNL     1     102.683 128.552  84.011  0.00  0.00    +0.000 C 
ENDBRANCH   2  10
TORSDOF 2
ENDMDL
