MODEL 1
REMARK VINA RESULT:      -4.5      0.000      0.000
REMARK  Name = *****
REMARK  4 active torsions:
REMARK  status: ('A' for Active; 'I' for Inactive)
REMARK    1  A    between atoms: C_1  and  C_2
REMARK    2  A    between atoms: C_4  and  S_8
REMARK    3  A    between atoms: S_8  and  C_9
REMARK    4  A    between atoms: C_9  and  C_10
REMARK                            x       y       z     vdW  Elec       q    Type
REMARK                         _______ _______ _______ _____ _____    ______ ____
ROOT
ATOM      1  S   UNL     1      89.180  70.351  86.832  0.00  0.00    +0.000 S 
ENDROOT
BRANCH   1   5
ATOM      2  C   UNL     1      91.202  65.665  85.401  0.00  0.00    +0.000 C 
ATOM      3  C   UNL     1      90.097  66.440  86.056  0.00  0.00    +0.000 A 
ATOM      4  C   UNL     1      90.150  67.841  86.112  0.00  0.00    +0.000 A 
ATOM      5  C   UNL     1      89.139  68.570  86.749  0.00  0.00    +0.000 A 
ATOM      6  C   UNL     1      88.086  67.887  87.364  0.00  0.00    +0.000 A 
ATOM      7  C   UNL     1      88.034  66.493  87.327  0.00  0.00    +0.000 A 
ATOM      8  C   UNL     1      89.035  65.773  86.677  0.00  0.00    +0.000 A 
ENDBRANCH   1   5
BRANCH   1   9
ATOM      9  C   UNL     1      87.875  70.749  85.623  0.00  0.00    +0.000 C 
BRANCH   9  10
ATOM     10  C   UNL     1      86.653  71.318  86.298  0.00  0.00    +0.000 A 
ATOM     11  C   UNL     1      86.533  71.297  87.695  0.00  0.00    +0.000 A 
ATOM     12  C   UNL     1      85.397  71.817  88.318  0.00  0.00    +0.000 A 
ATOM     13  C   UNL     1      84.366  72.357  87.550  0.00  0.00    +0.000 A 
ATOM     14  C   UNL     1      84.469  72.375  86.161  0.00  0.00    +0.000 A 
ATOM     15  C   UNL     1      85.604  71.855  85.537  0.00  0.00    +0.000 A 
ENDBRANCH   9  10
ENDBRANCH   1   9
TORSDOF 3
ENDMDL
