REMARK  Name = *****
REMARK  4 active torsions:
REMARK  status: ('A' for Active; 'I' for Inactive)
REMARK    1  A    between atoms: C_3  and  C_9
REMARK    2  A    between atoms: C_5  and  C_7
REMARK    3  A    between atoms: C_9  and  S_10
REMARK    4  A    between atoms: S_10  and  C_11
REMARK                            x       y       z     vdW  Elec       q    Type
REMARK                         _______ _______ _______ _____ _____    ______ ____
ROOT
ATOM      1  C   UNL     1       1.699   1.004  -0.024  0.00  0.00    +0.000 A 
ATOM      2  C   UNL     1       2.202  -0.294   0.068  0.00  0.00    +0.000 A 
ATOM      3  C   UNL     1       1.334  -1.394   0.137  0.00  0.00    +0.000 A 
ATOM      4  C   UNL     1      -0.052  -1.168   0.098  0.00  0.00    +0.000 A 
ATOM      5  C   UNL     1      -0.558   0.134   0.006  0.00  0.00    +0.000 A 
ATOM      6  C   UNL     1       0.321   1.220  -0.053  0.00  0.00    +0.000 A 
ENDROOT
BRANCH   5   7
ATOM      7  C   UNL     1      -1.975   0.354  -0.027  0.00  0.00    +0.000 C 
ATOM      8  N   UNL     1      -3.121   0.532  -0.048  0.00  0.00    +0.000 NA
ENDBRANCH   5   7
BRANCH   3   9
ATOM      9  C   UNL     1       1.878  -2.798   0.220  0.00  0.00    +0.000 C 
BRANCH   9  10
ATOM     10  S   UNL     1       2.176  -3.493  -1.433  0.00  0.00    +0.000 S 
BRANCH  10  11
ATOM     11  C   UNL     1       2.695  -5.106  -0.979  0.00  0.00    +0.000 A 
ATOM     12  C   UNL     1       3.980  -5.480  -0.648  0.00  0.00    +0.000 A 
ATOM     13  C   UNL     1       4.069  -6.867  -0.327  0.00  0.00    +0.000 A 
ATOM     14  C   UNL     1       2.850  -7.500  -0.433  0.00  0.00    +0.000 A 
ATOM     15  S   UNL     1       1.610  -6.425  -0.916  0.00  0.00    +0.000 S 
ENDBRANCH  10  11
ENDBRANCH   9  10
ENDBRANCH   3   9
TORSDOF 4
