MODEL 1
REMARK VINA RESULT:      -4.3      0.000      0.000
REMARK  Name = *****
REMARK  4 active torsions:
REMARK  status: ('A' for Active; 'I' for Inactive)
REMARK    1  A    between atoms: C_4  and  C_7
REMARK    2  A    between atoms: C_4  and  C_15
REMARK    3  A    between atoms: C_7  and  C_8
REMARK    4  A    between atoms: C_8  and  C_9
REMARK                            x       y       z     vdW  Elec       q    Type
REMARK                         _______ _______ _______ _____ _____    ______ ____
ROOT
ATOM      1  C   UNL     1      89.413  70.622  83.633  0.00  0.00    +0.000 C 
ATOM      2  C   UNL     1      88.663  69.297  83.671  0.00  0.00    +0.000 C 
ATOM      3  C   UNL     1      87.920  69.099  84.995  0.00  0.00    +0.000 C 
ATOM      4  C   UNL     1      88.822  69.256  86.241  0.00  0.00    +0.000 C 
ATOM      5  C   UNL     1      89.625  70.580  86.147  0.00  0.00    +0.000 C 
ATOM      6  C   UNL     1      90.361  70.759  84.818  0.00  0.00    +0.000 C 
ENDROOT
BRANCH   4   7
ATOM      7  C   UNL     1      89.771  68.117  86.327  0.00  0.00    +0.000 C 
ATOM      8  N   UNL     1      90.517  67.230  86.392  0.00  0.00    +0.000 NA
ENDBRANCH   4   7
BRANCH   4   9
ATOM      9  C   UNL     1      87.973  69.302  87.544  0.00  0.00    +0.000 C 
BRANCH   9  10
ATOM     10  C   UNL     1      87.935  70.664  88.254  0.00  0.00    +0.000 C 
BRANCH  10  11
ATOM     11  C   UNL     1      86.593  71.332  88.076  0.00  0.00    +0.000 A 
ATOM     12  C   UNL     1      85.814  71.672  89.191  0.00  0.00    +0.000 A 
ATOM     13  C   UNL     1      84.565  72.270  89.023  0.00  0.00    +0.000 A 
ATOM     14  C   UNL     1      84.081  72.530  87.743  0.00  0.00    +0.000 A 
ATOM     15  C   UNL     1      84.844  72.190  86.628  0.00  0.00    +0.000 A 
ATOM     16  C   UNL     1      86.095  71.592  86.793  0.00  0.00    +0.000 A 
ENDBRANCH  10  11
ENDBRANCH   9  10
ENDBRANCH   4   9
TORSDOF 4
ENDMDL
