MODEL 1
REMARK VINA RESULT:      -4.6      0.000      0.000
REMARK  Name = *****
REMARK  4 active torsions:
REMARK  status: ('A' for Active; 'I' for Inactive)
REMARK    1  A    between atoms: C_1  and  C_2
REMARK    2  A    between atoms: C_7  and  C_8
REMARK    3  A    between atoms: C_9  and  S_10
REMARK    4  A    between atoms: S_10  and  C_11
REMARK                            x       y       z     vdW  Elec       q    Type
REMARK                         _______ _______ _______ _____ _____    ______ ____
ROOT
ATOM      1  C   UNL     1     104.306 125.073  82.969  0.00  0.00    +0.000 C 
ATOM      2  C   UNL     1     103.117 125.690  83.011  0.00  0.00    +0.000 C 
ENDROOT
BRANCH   1   9
ATOM      3  C   UNL     1     104.701 124.592  80.049  0.00  0.00    +0.000 C 
ATOM      4  C   UNL     1     104.631 123.473  81.051  0.00  0.00    +0.000 A 
ATOM      5  C   UNL     1     104.730 122.145  80.606  0.00  0.00    +0.000 A 
ATOM      6  C   UNL     1     104.661 121.082  81.506  0.00  0.00    +0.000 A 
ATOM      7  C   UNL     1     104.488 121.330  82.865  0.00  0.00    +0.000 A 
ATOM      8  C   UNL     1     104.379 122.642  83.323  0.00  0.00    +0.000 A 
ATOM      9  C   UNL     1     104.445 123.719  82.426  0.00  0.00    +0.000 A 
ENDBRANCH   1   9
BRANCH   2  10
ATOM     10  S   UNL     1     102.963 127.291  83.654  0.00  0.00    +0.000 S 
BRANCH  10  11
ATOM     11  C   UNL     1     101.242 127.576  83.289  0.00  0.00    +0.000 A 
ATOM     12  C   UNL     1     100.633 128.783  83.648  0.00  0.00    +0.000 A 
ATOM     13  C   UNL     1      99.284 129.002  83.365  0.00  0.00    +0.000 A 
ATOM     14  C   UNL     1      98.536 128.014  82.726  0.00  0.00    +0.000 A 
ATOM     15  C   UNL     1      99.136 126.807  82.372  0.00  0.00    +0.000 A 
ATOM     16  C   UNL     1     100.486 126.586  82.656  0.00  0.00    +0.000 A 
ENDBRANCH  10  11
ENDBRANCH   2  10
TORSDOF 3
ENDMDL
