REMARK  Name = *****
REMARK  1 active torsions:
REMARK  status: ('A' for Active; 'I' for Inactive)
REMARK    1  A    between atoms: C_8  and  C_9
REMARK                            x       y       z     vdW  Elec       q    Type
REMARK                         _______ _______ _______ _____ _____    ______ ____
ROOT
ATOM      1  C   UNL     1       1.107  -1.525  -0.148  0.00  0.00    +0.000 C 
ATOM      2  C   UNL     1       1.738  -0.193   0.291  0.00  0.00    +0.000 C 
ATOM      3  C   UNL     1       0.517   0.576  -0.243  0.00  0.00    +0.000 C 
ATOM      4  C   UNL     1      -0.076  -0.766  -0.777  0.00  0.00    +0.000 C 
ATOM      5  C   UNL     1      -1.388  -0.903  -0.092  0.00  0.00    +0.000 C 
ATOM      6  C   UNL     1      -1.594   0.121   0.751  0.00  0.00    +0.000 C 
ATOM      7  C   UNL     1      -0.488   1.057   0.757  0.00  0.00    +0.000 C 
ATOM      8  C   UNL     1      -0.310   2.182   1.459  0.00  0.00    +0.000 C 
ENDROOT
BRANCH   8   9
ATOM      9  C   UNL     1      -1.255   2.705   2.450  0.00  0.00    +0.000 A 
ATOM     10  C   UNL     1      -1.494   2.022   3.648  0.00  0.00    +0.000 A 
ATOM     11  C   UNL     1      -2.386   2.540   4.589  0.00  0.00    +0.000 A 
ATOM     12  C   UNL     1      -3.040   3.746   4.339  0.00  0.00    +0.000 A 
ATOM     13  C   UNL     1      -2.802   4.435   3.151  0.00  0.00    +0.000 A 
ATOM     14  C   UNL     1      -1.909   3.918   2.210  0.00  0.00    +0.000 A 
ENDBRANCH   8   9
TORSDOF 1
