MODEL 1
REMARK VINA RESULT:      -3.5      0.000      0.000
REMARK  Name = *****
REMARK  4 active torsions:
REMARK  status: ('A' for Active; 'I' for Inactive)
REMARK    1  A    between atoms: C_4  and  S_7
REMARK    2  A    between atoms: C_4  and  S_8
REMARK    3  A    between atoms: S_8  and  C_9
REMARK    4  A    between atoms: C_9  and  S_15
REMARK                            x       y       z     vdW  Elec       q    Type
REMARK                         _______ _______ _______ _____ _____    ______ ____
ROOT
ATOM      1  S   UNL     1     102.452 128.493  83.124  0.00  0.00    +0.000 S 
ENDROOT
BRANCH   1   5
ATOM      2  C   UNL     1      98.585 127.993  82.840  0.00  0.00    +0.000 C 
ATOM      3  C   UNL     1      99.580 126.898  82.473  0.00  0.00    +0.000 C 
ATOM      4  C   UNL     1     100.456 126.516  83.669  0.00  0.00    +0.000 C 
ATOM      5  C   UNL     1     101.221 127.709  84.280  0.00  0.00    +0.000 C 
ATOM      6  C   UNL     1     100.183 128.818  84.623  0.00  0.00    +0.000 C 
ATOM      7  C   UNL     1      99.274 129.207  83.450  0.00  0.00    +0.000 C 
BRANCH   5   8
ATOM      8  S   UNL     1     101.964 127.203  85.875  0.00  0.00    +0.000 S 
ATOM      9  H   UNL     1     102.897 126.239  85.656  0.00  0.00    +0.000 HD
ENDBRANCH   5   8
ENDBRANCH   1   5
BRANCH   1  10
ATOM     10  C   UNL     1     103.922 127.372  82.905  0.00  0.00    +0.000 C 
ATOM     11  C   UNL     1     104.631 127.826  81.596  0.00  0.00    +0.000 C 
ATOM     12  C   UNL     1     103.895 127.411  80.317  0.00  0.00    +0.000 C 
ATOM     13  C   UNL     1     103.648 125.909  80.286  0.00  0.00    +0.000 C 
ATOM     14  C   UNL     1     102.915 125.443  81.537  0.00  0.00    +0.000 C 
ATOM     15  C   UNL     1     103.647 125.861  82.816  0.00  0.00    +0.000 C 
BRANCH  10  16
ATOM     16  S   UNL     1     105.147 127.719  84.237  0.00  0.00    +0.000 S 
ATOM     17  H   UNL     1     104.579 127.477  85.450  0.00  0.00    +0.000 HD
ENDBRANCH  10  16
ENDBRANCH   1  10
TORSDOF 4
ENDMDL
