MODEL 1
REMARK VINA RESULT:      -4.8      0.000      0.000
REMARK  Name = *****
REMARK  5 active torsions:
REMARK  status: ('A' for Active; 'I' for Inactive)
REMARK    1  A    between atoms: C_1  and  C_2
REMARK    2  A    between atoms: C_2  and  O_4
REMARK    3  A    between atoms: O_4  and  C_5
REMARK    4  A    between atoms: C_8  and  C_11
REMARK    5  A    between atoms: C_12  and  C_13
REMARK                            x       y       z     vdW  Elec       q    Type
REMARK                         _______ _______ _______ _____ _____    ______ ____
ROOT
ATOM      1  C   UNL     1      89.473  70.537  84.752  0.00  0.00    +0.000 C 
ATOM      2  C   UNL     1      89.794  70.402  86.244  0.00  0.00    +0.000 C 
ATOM      3  C   UNL     1      89.418  69.024  86.781  0.00  0.00    +0.000 C 
ATOM      4  C   UNL     1      90.090  67.902  85.975  0.00  0.00    +0.000 C 
ATOM      5  C   UNL     1      89.770  68.039  84.478  0.00  0.00    +0.000 C 
ATOM      6  C   UNL     1      90.146  69.421  83.952  0.00  0.00    +0.000 C 
ENDROOT
BRANCH   4   7
ATOM      7  C   UNL     1      89.649  66.552  86.483  0.00  0.00    +0.000 C 
ATOM      8  C   UNL     1      88.490  66.346  87.130  0.00  0.00    +0.000 C 
BRANCH   8   9
ATOM      9  C   UNL     1      88.039  65.037  87.624  0.00  0.00    +0.000 A 
ATOM     10  C   UNL     1      88.284  64.607  88.935  0.00  0.00    +0.000 A 
ATOM     11  C   UNL     1      87.810  63.368  89.377  0.00  0.00    +0.000 A 
ATOM     12  C   UNL     1      87.079  62.553  88.518  0.00  0.00    +0.000 A 
ATOM     13  C   UNL     1      86.814  62.977  87.218  0.00  0.00    +0.000 A 
ATOM     14  C   UNL     1      87.287  64.215  86.776  0.00  0.00    +0.000 A 
ENDBRANCH   8   9
ENDBRANCH   4   7
BRANCH   1  15
ATOM     15  O   UNL     1      89.980  71.788  84.255  0.00  0.00    +0.000 OA
BRANCH  15  17
ATOM     16  C   UNL     1      87.683  72.114  83.934  0.00  0.00    +0.000 C 
ATOM     17  C   UNL     1      89.047  72.733  83.951  0.00  0.00    +0.000 C 
ATOM     18  O   UNL     1      89.273  73.912  83.723  0.00  0.00    +0.000 OA
ENDBRANCH  15  17
ENDBRANCH   1  15
TORSDOF 4
ENDMDL
