MODEL 1
REMARK VINA RESULT:      -4.6      0.000      0.000
REMARK  Name = *****
REMARK  4 active torsions:
REMARK  status: ('A' for Active; 'I' for Inactive)
REMARK    1  A    between atoms: C_1  and  C_2
REMARK    2  A    between atoms: C_4  and  C_16
REMARK    3  A    between atoms: C_5  and  C_8
REMARK    4  A    between atoms: C_9  and  C_10
REMARK                            x       y       z     vdW  Elec       q    Type
REMARK                         _______ _______ _______ _____ _____    ______ ____
ROOT
ATOM      1  C   UNL     1     106.601 121.082  82.129  0.00  0.00    +0.000 C 
ATOM      2  C   UNL     1     105.618 122.207  82.177  0.00  0.00    +0.000 A 
ATOM      3  C   UNL     1     105.431 123.070  81.095  0.00  0.00    +0.000 A 
ATOM      4  C   UNL     1     104.498 124.112  81.177  0.00  0.00    +0.000 A 
ATOM      5  C   UNL     1     103.784 124.236  82.370  0.00  0.00    +0.000 A 
ATOM      6  N   UNL     1     103.942 123.419  83.436  0.00  0.00    +0.000 NA
ATOM      7  C   UNL     1     104.850 122.427  83.314  0.00  0.00    +0.000 A 
ATOM      8  C   UNL     1     104.291 125.042  80.021  0.00  0.00    +0.000 C 
ENDROOT
BRANCH   5   9
ATOM      9  C   UNL     1     102.804 125.258  82.572  0.00  0.00    +0.000 C 
ATOM     10  C   UNL     1     101.982 126.117  82.739  0.00  0.00    +0.000 C 
BRANCH  10  11
ATOM     11  C   UNL     1     100.999 127.137  82.938  0.00  0.00    +0.000 A 
ATOM     12  C   UNL     1     101.357 128.341  83.549  0.00  0.00    +0.000 A 
ATOM     13  C   UNL     1     100.398 129.337  83.745  0.00  0.00    +0.000 A 
ATOM     14  C   UNL     1      99.083 129.130  83.331  0.00  0.00    +0.000 A 
ATOM     15  C   UNL     1      98.723 127.927  82.721  0.00  0.00    +0.000 A 
ATOM     16  C   UNL     1      99.681 126.931  82.524  0.00  0.00    +0.000 A 
ENDBRANCH  10  11
ENDBRANCH   5   9
TORSDOF 2
ENDMDL
