MODEL 1
REMARK VINA RESULT:      -4.5      0.000      0.000
REMARK  Name = *****
REMARK  3 active torsions:
REMARK  status: ('A' for Active; 'I' for Inactive)
REMARK    1  A    between atoms: C_4  and  C_7
REMARK    2  A    between atoms: C_7  and  O_8
REMARK    3  A    between atoms: O_8  and  C_9
REMARK                            x       y       z     vdW  Elec       q    Type
REMARK                         _______ _______ _______ _____ _____    ______ ____
ROOT
ATOM      1  O   UNL     1      88.518  70.113  86.861  0.00  0.00    +0.000 OA
ENDROOT
BRANCH   1   2
ATOM      2  C   UNL     1      88.800  68.777  86.819  0.00  0.00    +0.000 A 
ATOM      3  C   UNL     1      89.948  68.196  86.281  0.00  0.00    +0.000 A 
ATOM      4  C   UNL     1      90.095  66.810  86.311  0.00  0.00    +0.000 A 
ATOM      5  C   UNL     1      89.112  66.002  86.871  0.00  0.00    +0.000 A 
ATOM      6  C   UNL     1      87.965  66.569  87.410  0.00  0.00    +0.000 A 
ATOM      7  C   UNL     1      87.811  67.957  87.382  0.00  0.00    +0.000 A 
ATOM      8  F   UNL     1      89.264  64.671  86.895  0.00  0.00    +0.000 F 
ATOM      9  F   UNL     1      91.201  66.259  85.791  0.00  0.00    +0.000 F 
ENDBRANCH   1   2
BRANCH   1  10
ATOM     10  C   UNL     1      87.731  70.651  85.797  0.00  0.00    +0.000 C 
BRANCH  10  14
ATOM     11  C   UNL     1      84.196  72.506  87.443  0.00  0.00    +0.000 A 
ATOM     12  C   UNL     1      84.383  72.464  86.063  0.00  0.00    +0.000 A 
ATOM     13  C   UNL     1      85.529  71.872  85.531  0.00  0.00    +0.000 A 
ATOM     14  C   UNL     1      86.507  71.321  86.375  0.00  0.00    +0.000 A 
ATOM     15  C   UNL     1      86.302  71.362  87.762  0.00  0.00    +0.000 A 
ATOM     16  C   UNL     1      85.154  71.955  88.291  0.00  0.00    +0.000 A 
ENDBRANCH  10  14
ENDBRANCH   1  10
TORSDOF 3
ENDMDL
