MODEL 1
REMARK VINA RESULT:      -4.1      0.000      0.000
REMARK  Name = *****
REMARK  2 active torsions:
REMARK  status: ('A' for Active; 'I' for Inactive)
REMARK    1  A    between atoms: N_4  and  C_8
REMARK    2  A    between atoms: C_9  and  C_10
REMARK                            x       y       z     vdW  Elec       q    Type
REMARK                         _______ _______ _______ _____ _____    ______ ____
ROOT
ATOM      1  C   UNL     1     103.275 126.297  81.878  0.00  0.00    +0.000 C 
ATOM      2  C   UNL     1     102.033 125.952  82.253  0.00  0.00    +0.000 C 
ENDROOT
BRANCH   1   6
ATOM      3  C   UNL     1     105.965 123.636  79.989  0.00  0.00    +0.000 C 
ATOM      4  C   UNL     1     104.674 123.162  80.650  0.00  0.00    +0.000 C 
ATOM      5  C   UNL     1     104.282 124.012  81.856  0.00  0.00    +0.000 C 
ATOM      6  N   UNL     1     104.328 125.445  81.536  0.00  0.00    +0.000 N 
ATOM      7  C   UNL     1     105.517 125.917  80.925  0.00  0.00    +0.000 C 
ATOM      8  S   UNL     1     105.879 127.497  80.468  0.00  0.00    +0.000 S 
ATOM      9  C   UNL     1     106.574 124.838  80.696  0.00  0.00    +0.000 C 
ENDBRANCH   1   6
BRANCH   2  10
ATOM     10  C   UNL     1     100.993 126.938  82.594  0.00  0.00    +0.000 A 
ATOM     11  C   UNL     1      99.635 126.717  82.321  0.00  0.00    +0.000 A 
ATOM     12  C   UNL     1      98.674 127.661  82.691  0.00  0.00    +0.000 A 
ATOM     13  C   UNL     1      99.057 128.828  83.347  0.00  0.00    +0.000 A 
ATOM     14  C   UNL     1     100.401 129.051  83.638  0.00  0.00    +0.000 A 
ATOM     15  C   UNL     1     101.363 128.108  83.269  0.00  0.00    +0.000 A 
ENDBRANCH   2  10
TORSDOF 2
ENDMDL
