MODEL 1
REMARK VINA RESULT:      -4.7      0.000      0.000
REMARK  Name = *****
REMARK  5 active torsions:
REMARK  status: ('A' for Active; 'I' for Inactive)
REMARK    1  A    between atoms: C_1  and  C_2
REMARK    2  A    between atoms: C_5  and  C_8
REMARK    3  A    between atoms: C_8  and  N_10
REMARK    4  A    between atoms: N_10  and  C_11
REMARK    5  A    between atoms: N_10  and  C_12
REMARK                            x       y       z     vdW  Elec       q    Type
REMARK                         _______ _______ _______ _____ _____    ______ ____
ROOT
ATOM      1  C   UNL     1      88.838  69.989  86.885  0.00  0.00    +0.000 C 
ATOM      2  S   UNL     1      89.684  70.780  85.646  0.00  0.00    +0.000 S 
ENDROOT
BRANCH   1   7
ATOM      3  C   UNL     1      88.770  64.171  87.012  0.00  0.00    +0.000 C 
ATOM      4  C   UNL     1      88.790  65.671  87.004  0.00  0.00    +0.000 A 
ATOM      5  C   UNL     1      87.726  66.399  87.548  0.00  0.00    +0.000 A 
ATOM      6  C   UNL     1      87.732  67.796  87.516  0.00  0.00    +0.000 A 
ATOM      7  C   UNL     1      88.798  68.485  86.921  0.00  0.00    +0.000 A 
ATOM      8  C   UNL     1      89.862  67.756  86.370  0.00  0.00    +0.000 A 
ATOM      9  C   UNL     1      89.852  66.360  86.404  0.00  0.00    +0.000 A 
ENDBRANCH   1   7
BRANCH   1  10
ATOM     10  N   UNL     1      88.061  70.672  87.853  0.00  0.00    +0.000 N 
ATOM     11  C   UNL     1      88.502  70.732  89.252  0.00  0.00    +0.000 C 
BRANCH  10  12
ATOM     12  C   UNL     1      86.762  71.230  87.553  0.00  0.00    +0.000 A 
ATOM     13  C   UNL     1      85.886  71.626  88.577  0.00  0.00    +0.000 A 
ATOM     14  C   UNL     1      84.635  72.182  88.291  0.00  0.00    +0.000 A 
ATOM     15  C   UNL     1      84.239  72.369  86.971  0.00  0.00    +0.000 A 
ATOM     16  C   UNL     1      85.098  72.007  85.939  0.00  0.00    +0.000 A 
ATOM     17  C   UNL     1      86.350  71.450  86.229  0.00  0.00    +0.000 A 
ENDBRANCH  10  12
ENDBRANCH   1  10
TORSDOF 3
ENDMDL
