REMARK  Name = *****
REMARK  3 active torsions:
REMARK  status: ('A' for Active; 'I' for Inactive)
REMARK    1  A    between atoms: C_4  and  C_7
REMARK    2  A    between atoms: C_7  and  C_8
REMARK    3  A    between atoms: C_8  and  C_9
REMARK                            x       y       z     vdW  Elec       q    Type
REMARK                         _______ _______ _______ _____ _____    ______ ____
ROOT
ATOM      1  C   UNL     1      -2.704   0.870   0.050  0.00  0.00    +0.000 C 
ATOM      2  F   UNL     1      -3.575  -0.145   0.356  0.00  0.00    +0.000 F 
ENDROOT
BRANCH   1   6
ATOM      3  C   UNL     1       1.352  -0.628   0.145  0.00  0.00    +0.000 A 
ATOM      4  C   UNL     1       1.048   0.588   0.754  0.00  0.00    +0.000 A 
ATOM      5  C   UNL     1      -0.261   1.074   0.731  0.00  0.00    +0.000 A 
ATOM      6  C   UNL     1      -1.278   0.350   0.091  0.00  0.00    +0.000 A 
ATOM      7  C   UNL     1      -0.959  -0.879  -0.508  0.00  0.00    +0.000 A 
ATOM      8  C   UNL     1       0.349  -1.363  -0.483  0.00  0.00    +0.000 A 
ENDBRANCH   1   6
BRANCH   1   9
ATOM      9  C   UNL     1      -3.105   1.446  -1.332  0.00  0.00    +0.000 C 
ATOM     10  I   UNL     1      -2.059   3.351  -1.736  0.00  0.00    +0.000 I 
BRANCH   9  11
ATOM     11  C   UNL     1      -4.592   1.728  -1.505  0.00  0.00    +0.000 A 
ATOM     12  C   UNL     1      -5.372   2.306  -0.490  0.00  0.00    +0.000 A 
ATOM     13  C   UNL     1      -6.730   2.562  -0.692  0.00  0.00    +0.000 A 
ATOM     14  C   UNL     1      -7.328   2.250  -1.910  0.00  0.00    +0.000 A 
ATOM     15  C   UNL     1      -6.569   1.683  -2.930  0.00  0.00    +0.000 A 
ATOM     16  C   UNL     1      -5.211   1.426  -2.731  0.00  0.00    +0.000 A 
ENDBRANCH   9  11
ENDBRANCH   1   9
TORSDOF 3
