MODEL 1
REMARK VINA RESULT:      -4.3      0.000      0.000
REMARK  Name = *****
REMARK  5 active torsions:
REMARK  status: ('A' for Active; 'I' for Inactive)
REMARK    1  A    between atoms: N_2  and  C_3
REMARK    2  A    between atoms: C_3  and  C_4
REMARK    3  A    between atoms: C_7  and  O_10
REMARK    4  A    between atoms: O_10  and  C_11
REMARK    5  A    between atoms: C_11  and  C_12
REMARK                            x       y       z     vdW  Elec       q    Type
REMARK                         _______ _______ _______ _____ _____    ______ ____
ROOT
ATOM      1  C   UNL     1      88.770  65.981  87.023  0.00  0.00    +0.000 A 
ATOM      2  C   UNL     1      87.690  66.655  87.604  0.00  0.00    +0.000 A 
ATOM      3  C   UNL     1      87.635  68.050  87.582  0.00  0.00    +0.000 A 
ATOM      4  C   UNL     1      88.655  68.796  86.990  0.00  0.00    +0.000 A 
ATOM      5  C   UNL     1      89.726  68.132  86.393  0.00  0.00    +0.000 A 
ATOM      6  C   UNL     1      89.786  66.734  86.414  0.00  0.00    +0.000 A 
ENDROOT
BRANCH   1   7
ATOM      7  C   UNL     1      88.853  64.476  87.070  0.00  0.00    +0.000 C 
BRANCH   7   9
ATOM      8  C   UNL     1      88.507  63.533  89.473  0.00  0.00    +0.000 C 
ATOM      9  N   UNL     1      88.663  63.973  88.396  0.00  0.00    +0.000 NA
ENDBRANCH   7   9
ENDBRANCH   1   7
BRANCH   4  10
ATOM     10  O   UNL     1      88.486  70.151  87.059  0.00  0.00    +0.000 OA
BRANCH  10  11
ATOM     11  C   UNL     1      87.826  70.779  85.960  0.00  0.00    +0.000 C 
BRANCH  11  12
ATOM     12  C   UNL     1      86.512  71.358  86.434  0.00  0.00    +0.000 A 
ATOM     13  C   UNL     1      86.237  71.474  87.805  0.00  0.00    +0.000 A 
ATOM     14  C   UNL     1      85.043  72.047  88.246  0.00  0.00    +0.000 A 
ATOM     15  C   UNL     1      84.115  72.520  87.321  0.00  0.00    +0.000 A 
ATOM     16  C   UNL     1      84.380  72.421  85.956  0.00  0.00    +0.000 A 
ATOM     17  C   UNL     1      85.573  71.846  85.513  0.00  0.00    +0.000 A 
ENDBRANCH  11  12
ENDBRANCH  10  11
ENDBRANCH   4  10
TORSDOF 5
ENDMDL
