MODEL 1
REMARK VINA RESULT:      -4.8      0.000      0.000
REMARK  Name = *****
REMARK  4 active torsions:
REMARK  status: ('A' for Active; 'I' for Inactive)
REMARK    1  A    between atoms: C_1  and  C_2
REMARK    2  A    between atoms: N_6  and  C_8
REMARK    3  A    between atoms: C_8  and  C_9
REMARK    4  A    between atoms: C_10  and  C_11
REMARK                            x       y       z     vdW  Elec       q    Type
REMARK                         _______ _______ _______ _____ _____    ______ ____
ROOT
ATOM      1  C   UNL     1      89.091  65.460  86.115  0.00  0.00    +0.000 C 
ATOM      2  C   UNL     1      89.228  66.655  86.087  0.00  0.00    +0.000 C 
ENDROOT
BRANCH   2   3
ATOM      3  C   UNL     1      89.378  68.075  86.087  0.00  0.00    +0.000 A 
ATOM      4  C   UNL     1      89.015  68.812  87.216  0.00  0.00    +0.000 A 
ATOM      5  C   UNL     1      89.176  70.196  87.220  0.00  0.00    +0.000 A 
ATOM      6  C   UNL     1      89.696  70.853  86.107  0.00  0.00    +0.000 A 
ATOM      7  C   UNL     1      90.053  70.111  84.984  0.00  0.00    +0.000 A 
ATOM      8  C   UNL     1      89.897  68.725  84.966  0.00  0.00    +0.000 A 
ATOM      9 CL   UNL     1      90.698  70.913  83.603  0.00  0.00    +0.000 Cl
ATOM     10 CL   UNL     1      88.734  71.103  88.614  0.00  0.00    +0.000 Cl
ENDBRANCH   2   3
BRANCH   1  11
ATOM     11  C   UNL     1      88.924  64.000  86.182  0.00  0.00    +0.000 C 
BRANCH  11  17
ATOM     12  C   UNL     1      89.122  63.684  90.564  0.00  0.00    +0.000 C 
ATOM     13  C   UNL     1      87.934  64.318  89.834  0.00  0.00    +0.000 C 
ATOM     14  C   UNL     1      86.712  63.390  89.832  0.00  0.00    +0.000 C 
ATOM     15  C   UNL     1      86.884  62.234  88.853  0.00  0.00    +0.000 C 
ATOM     16  C   UNL     1      87.290  62.728  87.464  0.00  0.00    +0.000 C 
ATOM     17  N   UNL     1      88.512  63.550  87.521  0.00  0.00    +0.000 N 
ATOM     18  C   UNL     1      88.302  64.719  88.395  0.00  0.00    +0.000 C 
ATOM     19  H   UNL     1      89.255  62.968  87.905  0.00  0.00    +0.000 HD
ENDBRANCH  11  17
ENDBRANCH   1  11
TORSDOF 3
ENDMDL
