MODEL 1
REMARK VINA RESULT:      -4.5      0.000      0.000
REMARK  Name = *****
REMARK  5 active torsions:
REMARK  status: ('A' for Active; 'I' for Inactive)
REMARK    1  A    between atoms: C_1  and  C_2
REMARK    2  A    between atoms: C_5  and  S_8
REMARK    3  A    between atoms: S_8  and  C_9
REMARK    4  A    between atoms: C_9  and  C_10
REMARK    5  A    between atoms: C_15  and  C_16
REMARK                            x       y       z     vdW  Elec       q    Type
REMARK                         _______ _______ _______ _____ _____    ______ ____
ROOT
ATOM      1  C   UNL     1     102.775 127.862  83.312  0.00  0.00    +0.000 C 
ENDROOT
BRANCH   1   2
ATOM      2  C   UNL     1     101.267 127.861  83.118  0.00  0.00    +0.000 A 
ATOM      3  C   UNL     1     100.589 126.781  82.523  0.00  0.00    +0.000 A 
ATOM      4  C   UNL     1      99.199 126.790  82.374  0.00  0.00    +0.000 A 
ATOM      5  C   UNL     1      98.451 127.865  82.840  0.00  0.00    +0.000 A 
ATOM      6  C   UNL     1      99.092 128.930  83.466  0.00  0.00    +0.000 A 
ATOM      7  C   UNL     1     100.488 128.932  83.614  0.00  0.00    +0.000 A 
BRANCH   7   8
ATOM      8  C   UNL     1     101.088 130.045  84.296  0.00  0.00    +0.000 C 
ATOM      9  N   UNL     1     101.564 130.953  84.841  0.00  0.00    +0.000 NA
ENDBRANCH   7   8
ENDBRANCH   1   2
BRANCH   1  10
ATOM     10  S   UNL     1     103.830 128.038  81.834  0.00  0.00    +0.000 S 
BRANCH  10  15
ATOM     11  C   UNL     1     104.954 122.192  80.465  0.00  0.00    +0.000 C 
ATOM     12  C   UNL     1     104.665 123.633  80.766  0.00  0.00    +0.000 A 
ATOM     13  C   UNL     1     104.907 124.623  79.809  0.00  0.00    +0.000 A 
ATOM     14  C   UNL     1     104.668 125.972  80.101  0.00  0.00    +0.000 A 
ATOM     15  C   UNL     1     104.178 126.352  81.353  0.00  0.00    +0.000 A 
ATOM     16  C   UNL     1     103.969 125.360  82.319  0.00  0.00    +0.000 A 
ATOM     17  C   UNL     1     104.212 124.014  82.031  0.00  0.00    +0.000 A 
ENDBRANCH  10  15
ENDBRANCH   1  10
TORSDOF 4
ENDMDL
