MODEL 1
REMARK VINA RESULT:      -4.6      0.000      0.000
REMARK  Name = *****
REMARK  2 active torsions:
REMARK  status: ('A' for Active; 'I' for Inactive)
REMARK    1  A    between atoms: C_5  and  C_7
REMARK    2  A    between atoms: C_8  and  C_9
REMARK                            x       y       z     vdW  Elec       q    Type
REMARK                         _______ _______ _______ _____ _____    ______ ____
ROOT
ATOM      1  C   UNL     1      98.008 118.497  80.610  0.00  0.00    +0.000 C 
ATOM      2  C   UNL     1      97.547 117.570  80.000  0.00  0.00    +0.000 C 
ENDROOT
BRANCH   1   7
ATOM      3  C   UNL     1      96.524 120.665  82.454  0.00  0.00    +0.000 C 
ATOM      4  C   UNL     1      97.146 120.496  83.842  0.00  0.00    +0.000 C 
ATOM      5  C   UNL     1      98.333 119.579  83.850  0.00  0.00    +0.000 C 
ATOM      6  C   UNL     1      98.960 119.182  82.731  0.00  0.00    +0.000 C 
ATOM      7  C   UNL     1      98.576 119.640  81.348  0.00  0.00    +0.000 C 
ATOM      8  C   UNL     1      97.596 120.827  81.375  0.00  0.00    +0.000 C 
ENDBRANCH   1   7
BRANCH   2   9
ATOM      9  C   UNL     1      96.998 116.466  79.274  0.00  0.00    +0.000 A 
ATOM     10  C   UNL     1      96.194 115.529  79.926  0.00  0.00    +0.000 A 
ATOM     11  C   UNL     1      95.657 114.453  79.216  0.00  0.00    +0.000 A 
ATOM     12  C   UNL     1      95.925 114.314  77.854  0.00  0.00    +0.000 A 
ATOM     13  C   UNL     1      96.727 115.248  77.201  0.00  0.00    +0.000 A 
ATOM     14  C   UNL     1      97.264 116.325  77.911  0.00  0.00    +0.000 A 
ENDBRANCH   2   9
TORSDOF 2
ENDMDL
