MODEL 1
REMARK VINA RESULT:      -4.4      0.000      0.000
REMARK  Name = *****
REMARK  2 active torsions:
REMARK  status: ('A' for Active; 'I' for Inactive)
REMARK    1  A    between atoms: C_6  and  C_7
REMARK    2  A    between atoms: C_8  and  C_9
REMARK                            x       y       z     vdW  Elec       q    Type
REMARK                         _______ _______ _______ _____ _____    ______ ____
ROOT
ATOM      1  C   UNL     1     102.265 126.116  82.598  0.00  0.00    +0.000 C 
ATOM      2  C   UNL     1     103.039 125.236  82.334  0.00  0.00    +0.000 C 
ENDROOT
BRANCH   1   8
ATOM      3  C   UNL     1      99.990 127.026  82.590  0.00  0.00    +0.000 A 
ATOM      4  C   UNL     1      99.092 128.050  82.899  0.00  0.00    +0.000 A 
ATOM      5  C   UNL     1      99.555 129.200  83.529  0.00  0.00    +0.000 A 
ATOM      6  C   UNL     1     100.898 129.349  83.855  0.00  0.00    +0.000 A 
ATOM      7  C   UNL     1     101.798 128.327  83.545  0.00  0.00    +0.000 A 
ATOM      8  C   UNL     1     101.344 127.164  82.913  0.00  0.00    +0.000 A 
ATOM      9  F   UNL     1      98.692 130.181  83.825  0.00  0.00    +0.000 F 
ENDBRANCH   1   8
BRANCH   2  10
ATOM     10  C   UNL     1     103.963 124.191  82.020  0.00  0.00    +0.000 A 
ATOM     11  C   UNL     1     104.438 123.351  83.031  0.00  0.00    +0.000 A 
ATOM     12  C   UNL     1     105.342 122.331  82.725  0.00  0.00    +0.000 A 
ATOM     13  C   UNL     1     105.768 122.153  81.409  0.00  0.00    +0.000 A 
ATOM     14  C   UNL     1     105.297 122.989  80.397  0.00  0.00    +0.000 A 
ATOM     15  C   UNL     1     104.393 124.010  80.703  0.00  0.00    +0.000 A 
ATOM     16 CL   UNL     1     106.881 120.897  81.032  0.00  0.00    +0.000 Cl
ENDBRANCH   2  10
TORSDOF 2
ENDMDL
