MODEL 1
REMARK VINA RESULT:      -4.3      0.000      0.000
REMARK  Name = *****
REMARK  4 active torsions:
REMARK  status: ('A' for Active; 'I' for Inactive)
REMARK    1  A    between atoms: C_1  and  C_2
REMARK    2  A    between atoms: C_3  and  O_9
REMARK    3  A    between atoms: O_9  and  C_10
REMARK    4  A    between atoms: C_10  and  C_12
REMARK                            x       y       z     vdW  Elec       q    Type
REMARK                         _______ _______ _______ _____ _____    ______ ____
ROOT
ATOM      1  O   UNL     1      87.431  69.489  85.697  0.00  0.00    +0.000 OA
ENDROOT
BRANCH   1   4
ATOM      2  C   UNL     1      86.210  71.873  84.678  0.00  0.00    +0.000 C 
ATOM      3  C   UNL     1      87.687  71.621  84.588  0.00  0.00    +0.000 A 
ATOM      4  C   UNL     1      88.251  70.430  85.065  0.00  0.00    +0.000 A 
ATOM      5  C   UNL     1      89.627  70.193  85.001  0.00  0.00    +0.000 A 
ATOM      6  C   UNL     1      90.458  71.145  84.415  0.00  0.00    +0.000 A 
ATOM      7  C   UNL     1      89.910  72.325  83.912  0.00  0.00    +0.000 A 
ATOM      8  C   UNL     1      88.536  72.565  83.995  0.00  0.00    +0.000 A 
ATOM      9 CL   UNL     1      90.937  73.500  83.187  0.00  0.00    +0.000 Cl
ENDBRANCH   1   4
BRANCH   1  10
ATOM     10  C   UNL     1      87.920  69.061  86.917  0.00  0.00    +0.000 C 
ATOM     11  O   UNL     1      88.512  68.019  87.153  0.00  0.00    +0.000 OA
BRANCH  10  12
ATOM     12  C   UNL     1      87.623  70.081  87.963  0.00  0.00    +0.000 A 
ATOM     13  C   UNL     1      88.669  70.475  88.813  0.00  0.00    +0.000 A 
ATOM     14  C   UNL     1      88.446  71.426  89.812  0.00  0.00    +0.000 A 
ATOM     15  C   UNL     1      87.181  71.981  89.959  0.00  0.00    +0.000 A 
ATOM     16  C   UNL     1      86.133  71.603  89.127  0.00  0.00    +0.000 A 
ATOM     17  C   UNL     1      86.350  70.652  88.126  0.00  0.00    +0.000 A 
ATOM     18  F   UNL     1      86.967  72.892  90.916  0.00  0.00    +0.000 F 
ENDBRANCH  10  12
ENDBRANCH   1  10
TORSDOF 3
ENDMDL
