MODEL 1
REMARK VINA RESULT:      -4.2      0.000      0.000
REMARK  Name = *****
REMARK  1 active torsions:
REMARK  status: ('A' for Active; 'I' for Inactive)
REMARK    1  A    between atoms: C_4  and  C_7
REMARK                            x       y       z     vdW  Elec       q    Type
REMARK                         _______ _______ _______ _____ _____    ______ ____
ROOT
ATOM      1  C   UNL     1     102.730 127.017  82.825  0.00  0.00    +0.000 C 
ATOM      2  S   UNL     1     103.326 126.948  81.091  0.00  0.00    +0.000 S 
ATOM      3  C   UNL     1     104.053 125.389  81.216  0.00  0.00    +0.000 A 
ATOM      4  C   UNL     1     103.897 124.694  82.347  0.00  0.00    +0.000 A 
ATOM      5  S   UNL     1     102.980 125.388  83.631  0.00  0.00    +0.000 S 
ATOM      6  S   UNL     1     104.626 123.131  82.435  0.00  0.00    +0.000 S 
ATOM      7  C   UNL     1     105.316 123.172  80.817  0.00  0.00    +0.000 A 
ATOM      8  O   UNL     1     105.976 122.258  80.346  0.00  0.00    +0.000 OA
ATOM      9  S   UNL     1     104.967 124.660  79.946  0.00  0.00    +0.000 S 
ENDROOT
BRANCH   1  13
ATOM     10  C   UNL     1      98.622 128.354  83.092  0.00  0.00    +0.000 A 
ATOM     11  C   UNL     1      99.639 129.150  83.610  0.00  0.00    +0.000 A 
ATOM     12  C   UNL     1     100.968 128.729  83.530  0.00  0.00    +0.000 A 
ATOM     13  C   UNL     1     101.300 127.501  82.928  0.00  0.00    +0.000 A 
ATOM     14  C   UNL     1     100.259 126.711  82.410  0.00  0.00    +0.000 A 
ATOM     15  C   UNL     1      98.930 127.136  82.492  0.00  0.00    +0.000 A 
ENDBRANCH   1  13
TORSDOF 1
ENDMDL
