REMARK  Name = *****
REMARK  3 active torsions:
REMARK  status: ('A' for Active; 'I' for Inactive)
REMARK    1  A    between atoms: C_5  and  C_7
REMARK    2  A    between atoms: C_7  and  O_9
REMARK    3  A    between atoms: O_9  and  C_10
REMARK                            x       y       z     vdW  Elec       q    Type
REMARK                         _______ _______ _______ _____ _____    ______ ____
ROOT
ATOM      1  C   UNL     1       0.956  -2.120   0.763  0.00  0.00    +0.000 C 
ATOM      2  O   UNL     1       0.514  -3.260   0.763  0.00  0.00    +0.000 OA
ENDROOT
BRANCH   1   7
ATOM      3  C   UNL     1      -1.982  -0.010  -0.277  0.00  0.00    +0.000 A 
ATOM      4  C   UNL     1      -1.360   1.147  -0.746  0.00  0.00    +0.000 A 
ATOM      5  C   UNL     1       0.032   1.242  -0.735  0.00  0.00    +0.000 A 
ATOM      6  C   UNL     1       0.798   0.184  -0.247  0.00  0.00    +0.000 A 
ATOM      7  C   UNL     1       0.186  -0.972   0.239  0.00  0.00    +0.000 A 
ATOM      8  C   UNL     1      -1.213  -1.069   0.211  0.00  0.00    +0.000 A 
ATOM      9  F   UNL     1       2.133   0.304  -0.288  0.00  0.00    +0.000 F 
ENDBRANCH   1   7
BRANCH   1  10
ATOM     10  O   UNL     1       2.151  -1.683   1.297  0.00  0.00    +0.000 OA
BRANCH  10  11
ATOM     11  C   UNL     1       2.919  -2.715   1.838  0.00  0.00    +0.000 A 
ATOM     12  C   UNL     1       2.678  -3.149   3.139  0.00  0.00    +0.000 A 
ATOM     13  C   UNL     1       3.490  -4.146   3.664  0.00  0.00    +0.000 A 
ATOM     14  C   UNL     1       4.533  -4.694   2.920  0.00  0.00    +0.000 A 
ATOM     15  C   UNL     1       4.776  -4.234   1.624  0.00  0.00    +0.000 A 
ATOM     16  C   UNL     1       3.970  -3.234   1.080  0.00  0.00    +0.000 A 
ATOM     17  F   UNL     1       3.272  -4.584   4.911  0.00  0.00    +0.000 F 
ENDBRANCH  10  11
ENDBRANCH   1  10
TORSDOF 3
