MODEL 1
REMARK VINA RESULT:      -4.4      0.000      0.000
REMARK  Name = *****
REMARK  5 active torsions:
REMARK  status: ('A' for Active; 'I' for Inactive)
REMARK    1  A    between atoms: C_1  and  C_2
REMARK    2  A    between atoms: C_5  and  S_8
REMARK    3  A    between atoms: S_8  and  O_10
REMARK    4  A    between atoms: O_10  and  C_11
REMARK    5  A    between atoms: C_11  and  C_12
REMARK                            x       y       z     vdW  Elec       q    Type
REMARK                         _______ _______ _______ _____ _____    ______ ____
ROOT
ATOM      1  S   UNL     1      89.163  67.306  86.044  0.00  0.00    +0.000 S 
ATOM      2  O   UNL     1      90.542  66.934  86.503  0.00  0.00    +0.000 OA
ENDROOT
BRANCH   1   7
ATOM      3  C   UNL     1      87.174  71.723  89.790  0.00  0.00    +0.000 C 
ATOM      4  C   UNL     1      87.657  70.658  88.850  0.00  0.00    +0.000 A 
ATOM      5  C   UNL     1      86.867  69.531  88.596  0.00  0.00    +0.000 A 
ATOM      6  C   UNL     1      87.328  68.519  87.750  0.00  0.00    +0.000 A 
ATOM      7  C   UNL     1      88.591  68.617  87.155  0.00  0.00    +0.000 A 
ATOM      8  C   UNL     1      89.386  69.737  87.415  0.00  0.00    +0.000 A 
ATOM      9  C   UNL     1      88.924  70.747  88.264  0.00  0.00    +0.000 A 
ENDBRANCH   1   7
BRANCH   1  10
ATOM     10  O   UNL     1      88.132  66.228  86.654  0.00  0.00    +0.000 OA
BRANCH  10  11
ATOM     11  C   UNL     1      88.737  65.048  87.171  0.00  0.00    +0.000 C 
BRANCH  11  12
ATOM     12  C   UNL     1      88.194  64.796  88.556  0.00  0.00    +0.000 A 
ATOM     13  C   UNL     1      86.945  65.308  88.938  0.00  0.00    +0.000 A 
ATOM     14  C   UNL     1      86.449  65.080  90.223  0.00  0.00    +0.000 A 
ATOM     15  C   UNL     1      87.194  64.339  91.138  0.00  0.00    +0.000 A 
ATOM     16  C   UNL     1      88.436  63.824  90.770  0.00  0.00    +0.000 A 
ATOM     17  C   UNL     1      88.934  64.052  89.487  0.00  0.00    +0.000 A 
ENDBRANCH  11  12
ENDBRANCH  10  11
ENDBRANCH   1  10
TORSDOF 4
ENDMDL
