MODEL 1
REMARK VINA RESULT:      -4.9      0.000      0.000
REMARK  Name = *****
REMARK  4 active torsions:
REMARK  status: ('A' for Active; 'I' for Inactive)
REMARK    1  A    between atoms: C_1  and  C_2
REMARK    2  A    between atoms: C_4  and  C_8
REMARK    3  A    between atoms: C_9  and  C_10
REMARK    4  A    between atoms: C_10  and  C_11
REMARK                            x       y       z     vdW  Elec       q    Type
REMARK                         _______ _______ _______ _____ _____    ______ ____
ROOT
ATOM      1  C   UNL     1     101.404 126.425  82.803  0.00  0.00    +0.000 C 
ATOM      2  C   UNL     1     100.180 126.866  82.470  0.00  0.00    +0.000 C 
ENDROOT
BRANCH   1   6
ATOM      3  C   UNL     1     104.856 123.610  80.463  0.00  0.00    +0.000 C 
ATOM      4  C   UNL     1     104.192 124.935  80.697  0.00  0.00    +0.000 A 
ATOM      5  C   UNL     1     103.121 125.043  81.597  0.00  0.00    +0.000 A 
ATOM      6  C   UNL     1     102.510 126.280  81.846  0.00  0.00    +0.000 A 
ATOM      7  C   UNL     1     103.011 127.421  81.210  0.00  0.00    +0.000 A 
ATOM      8  C   UNL     1     104.085 127.326  80.323  0.00  0.00    +0.000 A 
ATOM      9  C   UNL     1     104.675 126.088  80.070  0.00  0.00    +0.000 A 
ENDBRANCH   1   6
BRANCH   2  10
ATOM     10  C   UNL     1      99.050 127.013  83.451  0.00  0.00    +0.000 C 
BRANCH  10  11
ATOM     11  C   UNL     1      98.979 128.403  84.037  0.00  0.00    +0.000 A 
ATOM     12  C   UNL     1      99.450 129.505  83.307  0.00  0.00    +0.000 A 
ATOM     13  C   UNL     1      99.397 130.789  83.850  0.00  0.00    +0.000 A 
ATOM     14  C   UNL     1      98.875 130.985  85.128  0.00  0.00    +0.000 A 
ATOM     15  C   UNL     1      98.411 129.897  85.865  0.00  0.00    +0.000 A 
ATOM     16  C   UNL     1      98.465 128.611  85.324  0.00  0.00    +0.000 A 
ENDBRANCH  10  11
ENDBRANCH   2  10
TORSDOF 3
ENDMDL
