MODEL 1
REMARK VINA RESULT:      -4.8      0.000      0.000
REMARK  Name = *****
REMARK  5 active torsions:
REMARK  status: ('A' for Active; 'I' for Inactive)
REMARK    1  A    between atoms: C_4  and  C_7
REMARK    2  A    between atoms: C_7  and  C_8
REMARK    3  A    between atoms: C_7  and  N_17
REMARK    4  A    between atoms: C_8  and  C_9
REMARK    5  A    between atoms: C_8  and  N_15
REMARK                            x       y       z     vdW  Elec       q    Type
REMARK                         _______ _______ _______ _____ _____    ______ ____
ROOT
ATOM      1  C   UNL     1     101.469 126.755  83.974  0.00  0.00    +0.000 C 
ENDROOT
BRANCH   1   5
ATOM      2  C   UNL     1     103.862 126.748  80.352  0.00  0.00    +0.000 A 
ATOM      3  C   UNL     1     103.659 127.928  81.062  0.00  0.00    +0.000 A 
ATOM      4  C   UNL     1     102.887 127.920  82.225  0.00  0.00    +0.000 A 
ATOM      5  C   UNL     1     102.300 126.731  82.692  0.00  0.00    +0.000 A 
ATOM      6  C   UNL     1     102.528 125.546  81.970  0.00  0.00    +0.000 A 
ATOM      7  C   UNL     1     103.298 125.558  80.805  0.00  0.00    +0.000 A 
ENDBRANCH   1   5
BRANCH   1   8
ATOM      8  N   UNL     1     101.661 125.426  84.676  0.00  0.00    +0.000 NA
ATOM      9  O   UNL     1     100.773 125.204  85.508  0.00  0.00    +0.000 OA
ENDBRANCH   1   8
BRANCH   1  10
ATOM     10  C   UNL     1      99.949 127.026  83.773  0.00  0.00    +0.000 C 
BRANCH  10  11
ATOM     11  C   UNL     1      99.506 128.403  84.266  0.00  0.00    +0.000 A 
ATOM     12  C   UNL     1      99.846 129.581  83.578  0.00  0.00    +0.000 A 
ATOM     13  C   UNL     1      99.441 130.828  84.057  0.00  0.00    +0.000 A 
ATOM     14  C   UNL     1      98.695 130.918  85.230  0.00  0.00    +0.000 A 
ATOM     15  C   UNL     1      98.349 129.761  85.923  0.00  0.00    +0.000 A 
ATOM     16  C   UNL     1      98.750 128.511  85.446  0.00  0.00    +0.000 A 
ENDBRANCH  10  11
BRANCH  10  17
ATOM     17  N   UNL     1      99.586 126.898  82.308  0.00  0.00    +0.000 NA
ATOM     18  O   UNL     1      98.365 126.793  82.135  0.00  0.00    +0.000 OA
ENDBRANCH  10  17
ENDBRANCH   1  10
TORSDOF 5
ENDMDL
