MODEL 1
REMARK VINA RESULT:      -4.7      0.000      0.000
REMARK  Name = *****
REMARK  5 active torsions:
REMARK  status: ('A' for Active; 'I' for Inactive)
REMARK    1  A    between atoms: C_1  and  C_2
REMARK    2  A    between atoms: C_2  and  C_3
REMARK    3  A    between atoms: C_2  and  C_10
REMARK    4  A    between atoms: C_3  and  C_4
REMARK    5  A    between atoms: C_10  and  C_11
REMARK                            x       y       z     vdW  Elec       q    Type
REMARK                         _______ _______ _______ _____ _____    ______ ____
ROOT
ATOM      1  C   UNL     1     103.368 127.537  81.126  0.00  0.00    +0.000 C 
ATOM      2  C   UNL     1     103.215 126.134  81.717  0.00  0.00    +0.000 C 
ATOM      3  F   UNL     1     102.556 125.357  80.804  0.00  0.00    +0.000 F 
ENDROOT
BRANCH   2   4
ATOM      4  C   UNL     1     104.582 125.469  82.007  0.00  0.00    +0.000 C 
BRANCH   4   5
ATOM      5  C   UNL     1     104.617 123.961  81.897  0.00  0.00    +0.000 A 
ATOM      6  C   UNL     1     104.443 123.159  83.033  0.00  0.00    +0.000 A 
ATOM      7  C   UNL     1     104.471 121.768  82.929  0.00  0.00    +0.000 A 
ATOM      8  C   UNL     1     104.672 121.163  81.690  0.00  0.00    +0.000 A 
ATOM      9  C   UNL     1     104.843 121.949  80.553  0.00  0.00    +0.000 A 
ATOM     10  C   UNL     1     104.814 123.341  80.654  0.00  0.00    +0.000 A 
ENDBRANCH   4   5
ENDBRANCH   2   4
BRANCH   2  11
ATOM     11  C   UNL     1     102.387 126.137  83.025  0.00  0.00    +0.000 C 
BRANCH  11  12
ATOM     12  C   UNL     1     101.179 127.047  83.037  0.00  0.00    +0.000 A 
ATOM     13  C   UNL     1      99.973 126.640  82.450  0.00  0.00    +0.000 A 
ATOM     14  C   UNL     1      98.857 127.480  82.467  0.00  0.00    +0.000 A 
ATOM     15  C   UNL     1      98.934 128.732  83.073  0.00  0.00    +0.000 A 
ATOM     16  C   UNL     1     100.127 129.144  83.664  0.00  0.00    +0.000 A 
ATOM     17  C   UNL     1     101.243 128.307  83.648  0.00  0.00    +0.000 A 
ENDBRANCH  11  12
ENDBRANCH   2  11
TORSDOF 4
ENDMDL
