MODEL 1
REMARK VINA RESULT:      -4.3      0.000      0.000
REMARK  Name = *****
REMARK  2 active torsions:
REMARK  status: ('A' for Active; 'I' for Inactive)
REMARK    1  A    between atoms: C_2  and  C_11
REMARK    2  A    between atoms: C_3  and  C_4
REMARK                            x       y       z     vdW  Elec       q    Type
REMARK                         _______ _______ _______ _____ _____    ______ ____
ROOT
ATOM      1  C   UNL     1      86.986  62.981  87.436  0.00  0.00    +0.000 C 
ATOM      2  C   UNL     1      85.594  63.069  88.003  0.00  0.00    +0.000 C 
ATOM      3  C   UNL     1      86.635  64.130  88.356  0.00  0.00    +0.000 C 
ATOM      4 BR   UNL     1      86.405  65.855  87.496  0.00  0.00    +0.000 Br
ENDROOT
BRANCH   3   5
ATOM      5  C   UNL     1      87.303  64.228  89.713  0.00  0.00    +0.000 A 
ATOM      6  C   UNL     1      86.603  64.675  90.850  0.00  0.00    +0.000 A 
ATOM      7  C   UNL     1      87.212  64.753  92.106  0.00  0.00    +0.000 A 
ATOM      8  C   UNL     1      88.541  64.374  92.259  0.00  0.00    +0.000 A 
ATOM      9  C   UNL     1      89.256  63.909  91.160  0.00  0.00    +0.000 A 
ATOM     10  C   UNL     1      88.640  63.832  89.907  0.00  0.00    +0.000 A 
ENDBRANCH   3   5
BRANCH   2  11
ATOM     11  C   UNL     1      85.074  62.084  89.031  0.00  0.00    +0.000 A 
ATOM     12  C   UNL     1      85.859  61.057  89.581  0.00  0.00    +0.000 A 
ATOM     13  C   UNL     1      85.337  60.156  90.514  0.00  0.00    +0.000 A 
ATOM     14  C   UNL     1      84.007  60.253  90.911  0.00  0.00    +0.000 A 
ATOM     15  C   UNL     1      83.199  61.247  90.370  0.00  0.00    +0.000 A 
ATOM     16  C   UNL     1      83.728  62.144  89.438  0.00  0.00    +0.000 A 
ENDBRANCH   2  11
TORSDOF 2
ENDMDL
