MODEL 1
REMARK VINA RESULT:      -4.4      0.000      0.000
REMARK  Name = *****
REMARK  6 active torsions:
REMARK  status: ('A' for Active; 'I' for Inactive)
REMARK    1  A    between atoms: C_1  and  C_2
REMARK    2  A    between atoms: C_5  and  C_16
REMARK    3  A    between atoms: C_6  and  O_8
REMARK    4  A    between atoms: O_8  and  C_9
REMARK    5  A    between atoms: C_9  and  C_10
REMARK    6  A    between atoms: C_16  and  C_18
REMARK                            x       y       z     vdW  Elec       q    Type
REMARK                         _______ _______ _______ _____ _____    ______ ____
ROOT
ATOM      1  C   UNL     1      88.743  68.334  83.606  0.00  0.00    +0.000 C 
ATOM      2  C   UNL     1      89.906  68.719  84.525  0.00  0.00    +0.000 C 
ATOM      3  C   UNL     1      89.991  67.786  85.742  0.00  0.00    +0.000 C 
ATOM      4  C   UNL     1      88.962  68.106  86.829  0.00  0.00    +0.000 C 
ATOM      5  C   UNL     1      89.054  69.581  87.253  0.00  0.00    +0.000 C 
ATOM      6  C   UNL     1      88.831  70.524  86.041  0.00  0.00    +0.000 C 
ATOM      7  C   UNL     1      89.869  70.201  84.949  0.00  0.00    +0.000 C 
ENDROOT
BRANCH   5   8
ATOM      8  C   UNL     1      88.176  69.889  88.466  0.00  0.00    +0.000 C 
ATOM      9  C   UNL     1      88.427  70.955  89.247  0.00  0.00    +0.000 C 
ATOM     10  C   UNL     1      87.032  68.967  88.790  0.00  0.00    +0.000 C 
ENDBRANCH   5   8
BRANCH   6  11
ATOM     11  O   UNL     1      87.512  70.351  85.515  0.00  0.00    +0.000 OA
BRANCH  11  12
ATOM     12  C   UNL     1      87.005  71.517  84.864  0.00  0.00    +0.000 C 
BRANCH  12  13
ATOM     13  C   UNL     1      85.734  71.998  85.524  0.00  0.00    +0.000 A 
ATOM     14  C   UNL     1      84.661  72.519  84.787  0.00  0.00    +0.000 A 
ATOM     15  C   UNL     1      83.489  72.926  85.425  0.00  0.00    +0.000 A 
ATOM     16  C   UNL     1      83.368  72.810  86.807  0.00  0.00    +0.000 A 
ATOM     17  C   UNL     1      84.421  72.283  87.553  0.00  0.00    +0.000 A 
ATOM     18  C   UNL     1      85.594  71.877  86.916  0.00  0.00    +0.000 A 
ENDBRANCH  12  13
ENDBRANCH  11  12
ENDBRANCH   6  11
TORSDOF 4
ENDMDL
