MODEL 1
REMARK VINA RESULT:      -4.1      0.000      0.000
REMARK  Name = *****
REMARK  3 active torsions:
REMARK  status: ('A' for Active; 'I' for Inactive)
REMARK    1  A    between atoms: C_2  and  C_3
REMARK    2  A    between atoms: C_7  and  C_8
REMARK    3  A    between atoms: C_9  and  C_10
REMARK                            x       y       z     vdW  Elec       q    Type
REMARK                         _______ _______ _______ _____ _____    ______ ____
ROOT
ATOM      1  C   UNL     1      88.130  63.695  88.493  0.00  0.00    +0.000 A 
ATOM      2  C   UNL     1      88.574  64.457  87.432  0.00  0.00    +0.000 A 
ATOM      3  S   UNL     1      87.694  64.144  85.998  0.00  0.00    +0.000 S 
ATOM      4  C   UNL     1      86.713  62.986  86.791  0.00  0.00    +0.000 A 
ATOM      5  C   UNL     1      87.049  62.841  88.119  0.00  0.00    +0.000 A 
ENDROOT
BRANCH   1   7
ATOM      6  C   UNL     1      89.210  63.865  90.887  0.00  0.00    +0.000 C 
ATOM      7  C   UNL     1      88.717  63.786  89.795  0.00  0.00    +0.000 C 
ENDBRANCH   1   7
BRANCH   5   8
ATOM      8  C   UNL     1      86.364  61.928  88.983  0.00  0.00    +0.000 C 
ATOM      9  C   UNL     1      85.788  61.161  89.705  0.00  0.00    +0.000 C 
BRANCH   9  10
ATOM     10  C   UNL     1      85.083  60.219  90.580  0.00  0.00    +0.000 C 
ATOM     11  C   UNL     1      84.870  60.771  91.990  0.00  0.00    +0.000 C 
ATOM     12  C   UNL     1      84.828  59.551  92.911  0.00  0.00    +0.000 C 
ATOM     13  C   UNL     1      85.197  58.348  92.048  0.00  0.00    +0.000 C 
ATOM     14  C   UNL     1      85.876  58.941  90.823  0.00  0.00    +0.000 C 
ENDBRANCH   9  10
ENDBRANCH   5   8
TORSDOF 3
ENDMDL
