MODEL 1
REMARK VINA RESULT:      -4.3      0.000      0.000
REMARK  Name = *****
REMARK  5 active torsions:
REMARK  status: ('A' for Active; 'I' for Inactive)
REMARK    1  A    between atoms: C_1  and  N_2
REMARK    2  A    between atoms: N_2  and  C_3
REMARK    3  A    between atoms: N_2  and  P_9
REMARK    4  A    between atoms: P_9  and  C_10
REMARK    5  A    between atoms: P_9  and  C_12
REMARK                            x       y       z     vdW  Elec       q    Type
REMARK                         _______ _______ _______ _____ _____    ______ ____
ROOT
ATOM      1  P   UNL     1     103.281 127.389  83.109  0.00  0.00    +0.000 P 
ENDROOT
BRANCH   1   2
ATOM      2  C   UNL     1     101.479 127.611  83.055  0.00  0.00    +0.000 A 
ATOM      3  C   UNL     1     100.870 128.783  83.531  0.00  0.00    +0.000 A 
ATOM      4  C   UNL     1      99.484 128.963  83.464  0.00  0.00    +0.000 A 
ATOM      5  C   UNL     1      98.681 127.978  82.899  0.00  0.00    +0.000 A 
ATOM      6  C   UNL     1      99.263 126.821  82.392  0.00  0.00    +0.000 A 
ATOM      7  C   UNL     1     100.650 126.644  82.462  0.00  0.00    +0.000 A 
ENDBRANCH   1   2
BRANCH   1   9
ATOM      8  C   UNL     1     103.513 127.098  80.525  0.00  0.00    +0.000 C 
ATOM      9  N   UNL     1     103.640 126.406  81.820  0.00  0.00    +0.000 N 
BRANCH   9  10
ATOM     10  C   UNL     1     104.024 125.030  81.745  0.00  0.00    +0.000 A 
ATOM     11  C   UNL     1     104.438 124.422  80.540  0.00  0.00    +0.000 A 
ATOM     12  C   UNL     1     104.827 123.076  80.471  0.00  0.00    +0.000 A 
ATOM     13  C   UNL     1     104.817 122.287  81.613  0.00  0.00    +0.000 A 
ATOM     14  C   UNL     1     104.419 122.846  82.818  0.00  0.00    +0.000 A 
ATOM     15  C   UNL     1     104.033 124.193  82.878  0.00  0.00    +0.000 A 
ENDBRANCH   9  10
ENDBRANCH   1   9
BRANCH   1  16
ATOM     16  C   UNL     1     103.995 128.962  82.594  0.00  0.00    +0.000 C 
ATOM     17  C   UNL     1     105.109 129.444  83.158  0.00  0.00    +0.000 C 
ENDBRANCH   1  16
TORSDOF 4
ENDMDL
