MODEL 1
REMARK VINA RESULT:      -4.6      0.000      0.000
REMARK  Name = *****
REMARK  3 active torsions:
REMARK  status: ('A' for Active; 'I' for Inactive)
REMARK    1  A    between atoms: C_4  and  C_7
REMARK    2  A    between atoms: C_7  and  O_8
REMARK    3  A    between atoms: O_8  and  C_9
REMARK                            x       y       z     vdW  Elec       q    Type
REMARK                         _______ _______ _______ _____ _____    ______ ____
ROOT
ATOM      1  O   UNL     1     101.436 125.901  82.097  0.00  0.00    +0.000 OA
ENDROOT
BRANCH   1   2
ATOM      2  C   UNL     1     100.677 126.941  82.565  0.00  0.00    +0.000 A 
ATOM      3  C   UNL     1      99.284 127.062  82.508  0.00  0.00    +0.000 A 
ATOM      4  C   UNL     1      98.637 128.186  83.028  0.00  0.00    +0.000 A 
ATOM      5  C   UNL     1      99.383 129.207  83.611  0.00  0.00    +0.000 A 
ATOM      6  C   UNL     1     100.768 129.091  83.667  0.00  0.00    +0.000 A 
ATOM      7  C   UNL     1     101.416 127.973  83.150  0.00  0.00    +0.000 A 
ATOM      8  F   UNL     1     101.488 130.070  84.226  0.00  0.00    +0.000 F 
ATOM      9  F   UNL     1      98.518 126.111  81.956  0.00  0.00    +0.000 F 
ENDBRANCH   1   2
BRANCH   1  10
ATOM     10  C   UNL     1     102.787 126.192  81.732  0.00  0.00    +0.000 C 
BRANCH  10  14
ATOM     11  C   UNL     1     105.100 122.540  81.699  0.00  0.00    +0.000 A 
ATOM     12  C   UNL     1     104.588 123.020  82.903  0.00  0.00    +0.000 A 
ATOM     13  C   UNL     1     103.852 124.207  82.928  0.00  0.00    +0.000 A 
ATOM     14  C   UNL     1     103.631 124.935  81.749  0.00  0.00    +0.000 A 
ATOM     15  C   UNL     1     104.144 124.432  80.543  0.00  0.00    +0.000 A 
ATOM     16  C   UNL     1     104.878 123.245  80.519  0.00  0.00    +0.000 A 
ENDBRANCH  10  14
ENDBRANCH   1  10
TORSDOF 3
ENDMDL
