MODEL 1
REMARK VINA RESULT:      -4.5      0.000      0.000
REMARK  Name = *****
REMARK  4 active torsions:
REMARK  status: ('A' for Active; 'I' for Inactive)
REMARK    1  A    between atoms: C_1  and  O_2
REMARK    2  A    between atoms: O_2  and  C_3
REMARK    3  A    between atoms: C_6  and  C_9
REMARK    4  A    between atoms: C_10  and  C_11
REMARK                            x       y       z     vdW  Elec       q    Type
REMARK                         _______ _______ _______ _____ _____    ______ ____
ROOT
ATOM      1  C   UNL     1     103.149 125.848  82.338  0.00  0.00    +0.000 C 
ATOM      2  C   UNL     1     101.812 125.951  82.422  0.00  0.00    +0.000 C 
ENDROOT
BRANCH   2   3
ATOM      3  C   UNL     1     101.111 127.167  82.856  0.00  0.00    +0.000 A 
ATOM      4  C   UNL     1      99.725 127.323  82.711  0.00  0.00    +0.000 A 
ATOM      5  C   UNL     1      99.088 128.482  83.167  0.00  0.00    +0.000 A 
ATOM      6  C   UNL     1      99.833 129.487  83.779  0.00  0.00    +0.000 A 
ATOM      7  C   UNL     1     101.208 129.340  83.945  0.00  0.00    +0.000 A 
ATOM      8  C   UNL     1     101.843 128.180  83.489  0.00  0.00    +0.000 A 
ATOM      9 CL   UNL     1      99.051 130.912  84.340  0.00  0.00    +0.000 Cl
ENDBRANCH   2   3
BRANCH   1  13
ATOM     10  C   UNL     1     105.263 122.288  81.213  0.00  0.00    +0.000 A 
ATOM     11  C   UNL     1     104.981 123.257  80.252  0.00  0.00    +0.000 A 
ATOM     12  C   UNL     1     104.284 124.421  80.606  0.00  0.00    +0.000 A 
ATOM     13  C   UNL     1     103.852 124.627  81.922  0.00  0.00    +0.000 A 
ATOM     14  C   UNL     1     104.155 123.658  82.885  0.00  0.00    +0.000 A 
ATOM     15  C   UNL     1     104.850 122.498  82.530  0.00  0.00    +0.000 A 
BRANCH  10  17
ATOM     16  C   UNL     1     106.039 120.228  82.108  0.00  0.00    +0.000 C 
ATOM     17  O   UNL     1     105.932 121.115  81.002  0.00  0.00    +0.000 OA
ENDBRANCH  10  17
ENDBRANCH   1  13
TORSDOF 3
ENDMDL
