MODEL 1
REMARK VINA RESULT:      -4.7      0.000      0.000
REMARK  Name = *****
REMARK  4 active torsions:
REMARK  status: ('A' for Active; 'I' for Inactive)
REMARK    1  A    between atoms: C_1  and  O_2
REMARK    2  A    between atoms: O_2  and  C_3
REMARK    3  A    between atoms: C_8  and  C_9
REMARK    4  A    between atoms: C_10  and  C_11
REMARK                            x       y       z     vdW  Elec       q    Type
REMARK                         _______ _______ _______ _____ _____    ______ ____
ROOT
ATOM      1  C   UNL     1     104.409 123.481  82.233  0.00  0.00    +0.000 A 
ATOM      2  C   UNL     1     105.417 122.629  81.763  0.00  0.00    +0.000 A 
ATOM      3  C   UNL     1     105.957 122.806  80.484  0.00  0.00    +0.000 A 
ATOM      4  C   UNL     1     105.497 123.833  79.664  0.00  0.00    +0.000 A 
ATOM      5  C   UNL     1     104.495 124.686  80.121  0.00  0.00    +0.000 A 
ATOM      6  C   UNL     1     103.950 124.516  81.399  0.00  0.00    +0.000 A 
ENDROOT
BRANCH   1   8
ATOM      7  C   UNL     1     104.481 122.592  84.449  0.00  0.00    +0.000 C 
ATOM      8  O   UNL     1     103.823 123.382  83.470  0.00  0.00    +0.000 OA
ENDBRANCH   1   8
BRANCH   6   9
ATOM      9  C   UNL     1     102.920 125.420  81.827  0.00  0.00    +0.000 C 
ATOM     10  C   UNL     1     102.058 126.176  82.185  0.00  0.00    +0.000 C 
BRANCH  10  11
ATOM     11  C   UNL     1     101.027 127.072  82.611  0.00  0.00    +0.000 A 
ATOM     12  C   UNL     1      99.687 126.774  82.350  0.00  0.00    +0.000 A 
ATOM     13  C   UNL     1      98.684 127.651  82.767  0.00  0.00    +0.000 A 
ATOM     14  C   UNL     1      99.018 128.823  83.445  0.00  0.00    +0.000 A 
ATOM     15  C   UNL     1     100.356 129.122  83.706  0.00  0.00    +0.000 A 
ATOM     16  C   UNL     1     101.360 128.246  83.290  0.00  0.00    +0.000 A 
ENDBRANCH  10  11
ENDBRANCH   6   9
TORSDOF 3
ENDMDL
