MODEL 1
REMARK VINA RESULT:      -4.6      0.000      0.000
REMARK  Name = *****
REMARK  7 active torsions:
REMARK  status: ('A' for Active; 'I' for Inactive)
REMARK    1  A    between atoms: C_1  and  C_2
REMARK    2  A    between atoms: C_3  and  C_8
REMARK    3  A    between atoms: C_8  and  C_9
REMARK    4  A    between atoms: C_9  and  C_10
REMARK    5  A    between atoms: C_10  and  C_16
REMARK    6  A    between atoms: C_16  and  O_18
REMARK    7  A    between atoms: O_18  and  C_19
REMARK                            x       y       z     vdW  Elec       q    Type
REMARK                         _______ _______ _______ _____ _____    ______ ____
ROOT
ATOM      1  C   UNL     1     104.095 125.586  81.808  0.00  0.00    +0.000 C 
ATOM      2  C   UNL     1     105.462 126.301  81.942  0.00  0.00    +0.000 C 
ATOM      3  C   UNL     1     105.353 127.826  81.851  0.00  0.00    +0.000 C 
ATOM      4  C   UNL     1     104.435 128.281  80.757  0.00  0.00    +0.000 C 
ATOM      5  C   UNL     1     103.601 127.455  80.113  0.00  0.00    +0.000 C 
ATOM      6  C   UNL     1     103.474 125.992  80.441  0.00  0.00    +0.000 C 
ENDROOT
BRANCH   1   7
ATOM      7  C   UNL     1     104.232 124.059  81.776  0.00  0.00    +0.000 C 
ATOM      8  O   UNL     1     104.220 123.353  82.778  0.00  0.00    +0.000 OA
BRANCH   7   9
ATOM      9  O   UNL     1     104.416 123.585  80.513  0.00  0.00    +0.000 OA
ATOM     10  C   UNL     1     105.243 122.423  80.436  0.00  0.00    +0.000 C 
ENDBRANCH   7   9
ENDBRANCH   1   7
BRANCH   1  11
ATOM     11  C   UNL     1     103.111 125.943  82.959  0.00  0.00    +0.000 C 
BRANCH  11  12
ATOM     12  C   UNL     1     101.645 126.101  82.527  0.00  0.00    +0.000 C 
BRANCH  12  15
ATOM     13  C   UNL     1      98.663 126.799  82.418  0.00  0.00    +0.000 C 
ATOM     14  C   UNL     1      99.727 127.691  83.005  0.00  0.00    +0.000 C 
ATOM     15  C   UNL     1     101.050 127.400  83.038  0.00  0.00    +0.000 C 
ATOM     16  C   UNL     1     102.077 128.356  83.619  0.00  0.00    +0.000 C 
ATOM     17  C   UNL     1     101.507 129.636  84.151  0.00  0.00    +0.000 C 
ATOM     18  C   UNL     1     100.198 129.922  84.123  0.00  0.00    +0.000 C 
ATOM     19  C   UNL     1      99.170 128.993  83.555  0.00  0.00    +0.000 C 
ENDBRANCH  12  15
ENDBRANCH  11  12
ENDBRANCH   1  11
TORSDOF 5
ENDMDL
