MODEL 1
REMARK VINA RESULT:      -4.8      0.000      0.000
REMARK  Name = *****
REMARK  3 active torsions:
REMARK  status: ('A' for Active; 'I' for Inactive)
REMARK    1  A    between atoms: C_1  and  C_2
REMARK    2  A    between atoms: C_2  and  C_11
REMARK    3  A    between atoms: C_3  and  C_4
REMARK                            x       y       z     vdW  Elec       q    Type
REMARK                         _______ _______ _______ _____ _____    ______ ____
ROOT
ATOM      1  C   UNL     1     103.169 127.071  80.799  0.00  0.00    +0.000 C 
ATOM      2  C   UNL     1     102.867 125.933  81.739  0.00  0.00    +0.000 C 
ATOM      3  C   UNL     1     101.892 125.935  82.672  0.00  0.00    +0.000 C 
ENDROOT
BRANCH   3   4
ATOM      4  C   UNL     1     100.966 127.048  82.926  0.00  0.00    +0.000 A 
ATOM      5  C   UNL     1      99.649 126.953  82.451  0.00  0.00    +0.000 A 
ATOM      6  C   UNL     1      98.741 127.992  82.664  0.00  0.00    +0.000 A 
ATOM      7  C   UNL     1      99.137 129.137  83.350  0.00  0.00    +0.000 A 
ATOM      8  C   UNL     1     100.446 129.247  83.823  0.00  0.00    +0.000 A 
ATOM      9  C   UNL     1     101.358 128.209  83.611  0.00  0.00    +0.000 A 
ATOM     10 CL   UNL     1     102.965 128.409  84.220  0.00  0.00    +0.000 Cl
ENDBRANCH   3   4
BRANCH   2  11
ATOM     11  C   UNL     1     103.751 124.756  81.588  0.00  0.00    +0.000 A 
ATOM     12  C   UNL     1     104.355 124.435  80.372  0.00  0.00    +0.000 A 
ATOM     13  C   UNL     1     105.183 123.316  80.304  0.00  0.00    +0.000 A 
ATOM     14  C   UNL     1     105.389 122.553  81.445  0.00  0.00    +0.000 A 
ATOM     15  C   UNL     1     104.759 122.945  82.614  0.00  0.00    +0.000 A 
ATOM     16  N   UNL     1     103.953 124.025  82.710  0.00  0.00    +0.000 NA
ENDBRANCH   2  11
TORSDOF 2
ENDMDL
