MODEL 1
REMARK VINA RESULT:      -4.3      0.000      0.000
REMARK  Name = *****
REMARK  4 active torsions:
REMARK  status: ('A' for Active; 'I' for Inactive)
REMARK    1  A    between atoms: C_1  and  C_2
REMARK    2  A    between atoms: C_5  and  C_7
REMARK    3  A    between atoms: C_7  and  C_8
REMARK    4  A    between atoms: C_8  and  C_9
REMARK                            x       y       z     vdW  Elec       q    Type
REMARK                         _______ _______ _______ _____ _____    ______ ____
ROOT
ATOM      1  C   UNL     1     103.013 126.502  81.212  0.00  0.00    +0.000 C 
ENDROOT
BRANCH   1   6
ATOM      2  C   UNL     1     104.733 122.069  80.620  0.00  0.00    +0.000 C 
ATOM      3  C   UNL     1     104.824 123.553  80.725  0.00  0.00    +0.000 C 
ATOM      4  C   UNL     1     105.176 124.395  79.745  0.00  0.00    +0.000 C 
ATOM      5  C   UNL     1     105.218 125.843  80.121  0.00  0.00    +0.000 C 
ATOM      6  C   UNL     1     104.454 126.022  81.445  0.00  0.00    +0.000 C 
ATOM      7  S   UNL     1     104.489 124.359  82.227  0.00  0.00    +0.000 S 
ENDBRANCH   1   6
BRANCH   1   8
ATOM      8  C   UNL     1     102.015 125.940  82.231  0.00  0.00    +0.000 C 
BRANCH   8   9
ATOM      9  C   UNL     1     100.983 126.972  82.617  0.00  0.00    +0.000 A 
ATOM     10  C   UNL     1     101.367 128.140  83.289  0.00  0.00    +0.000 A 
ATOM     11  C   UNL     1     100.413 129.086  83.664  0.00  0.00    +0.000 A 
ATOM     12  C   UNL     1      99.066 128.872  83.375  0.00  0.00    +0.000 A 
ATOM     13  C   UNL     1      98.673 127.711  82.713  0.00  0.00    +0.000 A 
ATOM     14  C   UNL     1      99.626 126.763  82.336  0.00  0.00    +0.000 A 
ENDBRANCH   8   9
ENDBRANCH   1   8
TORSDOF 3
ENDMDL
