MODEL 1
REMARK VINA RESULT:      -4.7      0.000      0.000
REMARK  Name = *****
REMARK  4 active torsions:
REMARK  status: ('A' for Active; 'I' for Inactive)
REMARK    1  A    between atoms: C_1  and  C_2
REMARK    2  A    between atoms: C_5  and  S_8
REMARK    3  A    between atoms: S_8  and  N_10
REMARK    4  A    between atoms: C_12  and  C_13
REMARK                            x       y       z     vdW  Elec       q    Type
REMARK                         _______ _______ _______ _____ _____    ______ ____
ROOT
ATOM      1  S   UNL     1      88.831  64.162  85.264  0.00  0.00    +0.000 S 
ATOM      2  O   UNL     1      89.702  62.981  84.951  0.00  0.00    +0.000 OA
ENDROOT
BRANCH   1   7
ATOM      3  C   UNL     1      86.527  63.324  90.878  0.00  0.00    +0.000 C 
ATOM      4  C   UNL     1      87.118  63.504  89.511  0.00  0.00    +0.000 A 
ATOM      5  C   UNL     1      87.956  64.591  89.240  0.00  0.00    +0.000 A 
ATOM      6  C   UNL     1      88.479  64.780  87.958  0.00  0.00    +0.000 A 
ATOM      7  C   UNL     1      88.167  63.884  86.927  0.00  0.00    +0.000 A 
ATOM      8  C   UNL     1      87.313  62.809  87.191  0.00  0.00    +0.000 A 
ATOM      9  C   UNL     1      86.790  62.622  88.473  0.00  0.00    +0.000 A 
ENDBRANCH   1   7
BRANCH   1  10
ATOM     10  N   UNL     1      89.693  65.507  85.749  0.00  0.00    +0.000 NA
ATOM     11  C   UNL     1      91.041  65.737  85.244  0.00  0.00    +0.000 C 
ATOM     12  C   UNL     1      89.890  66.619  84.813  0.00  0.00    +0.000 C 
BRANCH  12  13
ATOM     13  C   UNL     1      89.818  68.037  85.333  0.00  0.00    +0.000 A 
ATOM     14  C   UNL     1      90.010  69.116  84.453  0.00  0.00    +0.000 A 
ATOM     15  C   UNL     1      89.939  70.442  84.891  0.00  0.00    +0.000 A 
ATOM     16  C   UNL     1      89.673  70.719  86.228  0.00  0.00    +0.000 A 
ATOM     17  C   UNL     1      89.480  69.673  87.123  0.00  0.00    +0.000 A 
ATOM     18  C   UNL     1      89.549  68.349  86.678  0.00  0.00    +0.000 A 
ENDBRANCH  12  13
ENDBRANCH   1  10
TORSDOF 3
ENDMDL
