MODEL 1
REMARK VINA RESULT:      -4.4      0.000      0.000
REMARK  Name = *****
REMARK  3 active torsions:
REMARK  status: ('A' for Active; 'I' for Inactive)
REMARK    1  A    between atoms: C_4  and  C_6
REMARK    2  A    between atoms: C_6  and  C_15
REMARK    3  A    between atoms: C_7  and  C_8
REMARK                            x       y       z     vdW  Elec       q    Type
REMARK                         _______ _______ _______ _____ _____    ______ ____
ROOT
ATOM      1  C   UNL     1     100.356 128.210  83.347  0.00  0.00    +0.000 C 
ATOM      2  C   UNL     1     101.694 128.056  83.256  0.00  0.00    +0.000 C 
ENDROOT
BRANCH   2   3
ATOM      3  C   UNL     1     102.385 127.053  82.437  0.00  0.00    +0.000 A 
ATOM      4  C   UNL     1     102.848 127.359  81.149  0.00  0.00    +0.000 A 
ATOM      5  C   UNL     1     103.514 126.392  80.394  0.00  0.00    +0.000 A 
ATOM      6  C   UNL     1     103.725 125.127  80.931  0.00  0.00    +0.000 A 
ATOM      7  C   UNL     1     103.283 124.811  82.210  0.00  0.00    +0.000 A 
ATOM      8  C   UNL     1     102.615 125.776  82.967  0.00  0.00    +0.000 A 
ATOM      9  F   UNL     1     104.368 124.202  80.207  0.00  0.00    +0.000 F 
ENDBRANCH   2   3
BRANCH   1  13
ATOM     10  C   UNL     1      99.049 131.299  85.016  0.00  0.00    +0.000 A 
ATOM     11  C   UNL     1      98.912 130.514  86.136  0.00  0.00    +0.000 A 
ATOM     12  S   UNL     1      99.418 128.909  85.859  0.00  0.00    +0.000 S 
ATOM     13  C   UNL     1      99.811 129.227  84.204  0.00  0.00    +0.000 A 
ATOM     14  C   UNL     1      99.572 130.564  83.913  0.00  0.00    +0.000 A 
ENDBRANCH   1  13
BRANCH   1  15
ATOM     15  C   UNL     1      99.454 127.340  82.650  0.00  0.00    +0.000 C 
ATOM     16  N   UNL     1      98.711 126.640  82.097  0.00  0.00    +0.000 NA
ENDBRANCH   1  15
TORSDOF 3
ENDMDL
