MODEL 1
REMARK VINA RESULT:      -4.4      0.000      0.000
REMARK  Name = *****
REMARK  4 active torsions:
REMARK  status: ('A' for Active; 'I' for Inactive)
REMARK    1  A    between atoms: C_4  and  C_7
REMARK    2  A    between atoms: C_7  and  C_8
REMARK    3  A    between atoms: C_8  and  C_9
REMARK    4  A    between atoms: C_9  and  C_10
REMARK                            x       y       z     vdW  Elec       q    Type
REMARK                         _______ _______ _______ _____ _____    ______ ____
ROOT
ATOM      1  C   UNL     1      87.461  70.000  88.482  0.00  0.00    +0.000 C 
ENDROOT
BRANCH   1   2
ATOM      2  C   UNL     1      88.952  70.246  88.248  0.00  0.00    +0.000 C 
BRANCH   2   6
ATOM      3  C   UNL     1      90.102  69.186  84.229  0.00  0.00    +0.000 A 
ATOM      4  C   UNL     1      90.074  70.524  84.616  0.00  0.00    +0.000 A 
ATOM      5  C   UNL     1      89.706  70.867  85.918  0.00  0.00    +0.000 A 
ATOM      6  C   UNL     1      89.367  69.874  86.846  0.00  0.00    +0.000 A 
ATOM      7  C   UNL     1      89.391  68.532  86.445  0.00  0.00    +0.000 A 
ATOM      8  C   UNL     1      89.760  68.190  85.142  0.00  0.00    +0.000 A 
ENDBRANCH   2   6
ENDBRANCH   1   2
BRANCH   1   9
ATOM      9  C   UNL     1      86.741  71.302  88.838  0.00  0.00    +0.000 C 
BRANCH   9  10
ATOM     10  C   UNL     1      85.774  71.719  87.759  0.00  0.00    +0.000 A 
ATOM     11  C   UNL     1      86.110  71.567  86.406  0.00  0.00    +0.000 A 
ATOM     12  C   UNL     1      85.222  71.968  85.408  0.00  0.00    +0.000 A 
ATOM     13  C   UNL     1      83.993  72.529  85.750  0.00  0.00    +0.000 A 
ATOM     14  C   UNL     1      83.653  72.691  87.091  0.00  0.00    +0.000 A 
ATOM     15  C   UNL     1      84.540  72.291  88.092  0.00  0.00    +0.000 A 
ENDBRANCH   9  10
ENDBRANCH   1   9
TORSDOF 4
ENDMDL
