MODEL 1
REMARK VINA RESULT:      -4.4      0.000      0.000
REMARK  Name = *****
REMARK  5 active torsions:
REMARK  status: ('A' for Active; 'I' for Inactive)
REMARK    1  A    between atoms: C_1  and  C_2
REMARK    2  A    between atoms: C_5  and  S_8
REMARK    3  A    between atoms: S_8  and  C_9
REMARK    4  A    between atoms: C_9  and  C_10
REMARK    5  A    between atoms: C_10  and  C_12
REMARK                            x       y       z     vdW  Elec       q    Type
REMARK                         _______ _______ _______ _____ _____    ______ ____
ROOT
ATOM      1  S   UNL     1     102.013 127.293  82.456  0.00  0.00    +0.000 S 
ENDROOT
BRANCH   1   6
ATOM      2  C   UNL     1     105.460 122.677  80.464  0.00  0.00    +0.000 C 
ATOM      3  C   UNL     1     104.586 123.801  80.938  0.00  0.00    +0.000 A 
ATOM      4  C   UNL     1     104.244 124.846  80.073  0.00  0.00    +0.000 A 
ATOM      5  C   UNL     1     103.460 125.911  80.524  0.00  0.00    +0.000 A 
ATOM      6  C   UNL     1     103.009 125.946  81.847  0.00  0.00    +0.000 A 
ATOM      7  C   UNL     1     103.374 124.919  82.719  0.00  0.00    +0.000 A 
ATOM      8  C   UNL     1     104.158 123.853  82.269  0.00  0.00    +0.000 A 
ENDBRANCH   1   6
BRANCH   1   9
ATOM      9  C   UNL     1     100.392 126.458  82.540  0.00  0.00    +0.000 C 
BRANCH   9  10
ATOM     10  C   UNL     1      99.228 127.441  82.687  0.00  0.00    +0.000 C 
ATOM     11  O   UNL     1      98.193 127.335  82.028  0.00  0.00    +0.000 OA
BRANCH  10  12
ATOM     12  C   UNL     1      99.384 128.535  83.650  0.00  0.00    +0.000 A 
ATOM     13  C   UNL     1      99.353 129.888  83.361  0.00  0.00    +0.000 A 
ATOM     14  C   UNL     1      99.534 130.705  84.513  0.00  0.00    +0.000 A 
ATOM     15  C   UNL     1      99.700 129.951  85.652  0.00  0.00    +0.000 A 
ATOM     16  S   UNL     1      99.636 128.276  85.325  0.00  0.00    +0.000 S 
ENDBRANCH  10  12
ENDBRANCH   9  10
ENDBRANCH   1   9
TORSDOF 4
ENDMDL
