MODEL 1
REMARK VINA RESULT:      -5.0      0.000      0.000
REMARK  Name = *****
REMARK  4 active torsions:
REMARK  status: ('A' for Active; 'I' for Inactive)
REMARK    1  A    between atoms: C_1  and  O_2
REMARK    2  A    between atoms: O_2  and  C_3
REMARK    3  A    between atoms: C_6  and  C_11
REMARK    4  A    between atoms: C_12  and  C_13
REMARK                            x       y       z     vdW  Elec       q    Type
REMARK                         _______ _______ _______ _____ _____    ______ ____
ROOT
ATOM      1  C   UNL     1     105.630 123.076  80.720  0.00  0.00    +0.000 A 
ATOM      2  C   UNL     1     105.046 123.010  81.987  0.00  0.00    +0.000 A 
ATOM      3  C   UNL     1     104.176 124.003  82.444  0.00  0.00    +0.000 A 
ATOM      4  C   UNL     1     103.866 125.113  81.652  0.00  0.00    +0.000 A 
ATOM      5  C   UNL     1     104.442 125.163  80.376  0.00  0.00    +0.000 A 
ATOM      6  C   UNL     1     105.311 124.170  79.918  0.00  0.00    +0.000 A 
ATOM      7  F   UNL     1     105.822 124.302  78.685  0.00  0.00    +0.000 F 
ATOM      8  F   UNL     1     104.163 126.193  79.559  0.00  0.00    +0.000 F 
ATOM      9  F   UNL     1     103.631 123.856  83.661  0.00  0.00    +0.000 F 
ATOM     10  F   UNL     1     105.314 121.968  82.791  0.00  0.00    +0.000 F 
ENDROOT
BRANCH   1  12
ATOM     11  C   UNL     1     107.862 122.260  80.486  0.00  0.00    +0.000 C 
ATOM     12  O   UNL     1     106.460 122.035  80.403  0.00  0.00    +0.000 OA
ENDBRANCH   1  12
BRANCH   4  13
ATOM     13  C   UNL     1     102.938 126.186  82.057  0.00  0.00    +0.000 C 
ATOM     14  C   UNL     1     101.618 126.036  82.254  0.00  0.00    +0.000 C 
BRANCH  14  15
ATOM     15  C   UNL     1     100.725 127.125  82.682  0.00  0.00    +0.000 A 
ATOM     16  C   UNL     1      99.338 127.082  82.479  0.00  0.00    +0.000 A 
ATOM     17  C   UNL     1      98.522 128.123  82.928  0.00  0.00    +0.000 A 
ATOM     18  C   UNL     1      99.081 129.211  83.595  0.00  0.00    +0.000 A 
ATOM     19  C   UNL     1     100.455 129.257  83.817  0.00  0.00    +0.000 A 
ATOM     20  C   UNL     1     101.272 128.217  83.368  0.00  0.00    +0.000 A 
ENDBRANCH  14  15
ENDBRANCH   4  13
TORSDOF 3
ENDMDL
