MODEL 1
REMARK VINA RESULT:      -5.1      0.000      0.000
REMARK  Name = *****
REMARK  5 active torsions:
REMARK  status: ('A' for Active; 'I' for Inactive)
REMARK    1  A    between atoms: C_1  and  C_2
REMARK    2  A    between atoms: C_5  and  C_6
REMARK    3  A    between atoms: C_7  and  C_9
REMARK    4  A    between atoms: C_9  and  O_11
REMARK    5  A    between atoms: O_11  and  C_12
REMARK                            x       y       z     vdW  Elec       q    Type
REMARK                         _______ _______ _______ _____ _____    ______ ____
ROOT
ATOM      1  O   UNL     1      87.971  69.417  85.203  0.00  0.00    +0.000 OA
ENDROOT
BRANCH   1   2
ATOM      2  C   UNL     1      88.317  68.207  85.798  0.00  0.00    +0.000 A 
ATOM      3  C   UNL     1      87.399  67.540  86.605  0.00  0.00    +0.000 A 
ATOM      4  C   UNL     1      87.745  66.325  87.186  0.00  0.00    +0.000 A 
ATOM      5  C   UNL     1      89.000  65.775  86.951  0.00  0.00    +0.000 A 
ATOM      6  C   UNL     1      89.911  66.435  86.133  0.00  0.00    +0.000 A 
ATOM      7  C   UNL     1      89.569  67.649  85.550  0.00  0.00    +0.000 A 
ATOM      8  F   UNL     1      90.440  68.283  84.752  0.00  0.00    +0.000 F 
ATOM      9  F   UNL     1      91.115  65.894  85.898  0.00  0.00    +0.000 F 
ATOM     10  F   UNL     1      89.329  64.600  87.506  0.00  0.00    +0.000 F 
ATOM     11  F   UNL     1      86.864  65.680  87.964  0.00  0.00    +0.000 F 
ATOM     12  F   UNL     1      86.186  68.068  86.820  0.00  0.00    +0.000 F 
ENDBRANCH   1   2
BRANCH   1  13
ATOM     13  C   UNL     1      88.380  70.483  85.987  0.00  0.00    +0.000 C 
ATOM     14  O   UNL     1      89.522  70.909  86.097  0.00  0.00    +0.000 OA
BRANCH  13  21
ATOM     15  C   UNL     1      84.037  72.584  85.981  0.00  0.00    +0.000 C 
ATOM     16  C   UNL     1      85.048  72.081  86.708  0.00  0.00    +0.000 A 
ATOM     17  C   UNL     1      84.994  72.128  88.167  0.00  0.00    +0.000 A 
ATOM     18  C   UNL     1      85.983  71.586  88.898  0.00  0.00    +0.000 A 
ATOM     19  C   UNL     1      87.124  70.934  88.241  0.00  0.00    +0.000 A 
ATOM     20  C   UNL     1      88.019  70.297  89.014  0.00  0.00    +0.000 C 
ATOM     21  C   UNL     1      87.223  70.980  86.770  0.00  0.00    +0.000 A 
ATOM     22  C   UNL     1      86.219  71.513  86.041  0.00  0.00    +0.000 A 
ENDBRANCH  13  21
ENDBRANCH   1  13
TORSDOF 3
ENDMDL
