REMARK  Name = *****
REMARK  3 active torsions:
REMARK  status: ('A' for Active; 'I' for Inactive)
REMARK    1  A    between atoms: C_1  and  C_2
REMARK    2  A    between atoms: C_2  and  C_10
REMARK    3  A    between atoms: N_3  and  C_4
REMARK                            x       y       z     vdW  Elec       q    Type
REMARK                         _______ _______ _______ _____ _____    ______ ____
ROOT
ATOM      1  C   UNL     1       1.333   0.469  -0.716  0.00  0.00    +0.000 C 
ATOM      2  C   UNL     1       2.624   0.042  -0.039  0.00  0.00    +0.000 C 
ATOM      3  N   UNL     1       3.137   0.643   0.996  0.00  0.00    +0.000 NA
ENDROOT
BRANCH   2   4
ATOM      4  C   UNL     1       3.342  -1.151  -0.587  0.00  0.00    +0.000 A 
ATOM      5  C   UNL     1       2.656  -2.180  -1.247  0.00  0.00    +0.000 A 
ATOM      6  C   UNL     1       3.359  -3.283  -1.740  0.00  0.00    +0.000 A 
ATOM      7  C   UNL     1       4.736  -3.357  -1.566  0.00  0.00    +0.000 A 
ATOM      8  C   UNL     1       5.429  -2.351  -0.903  0.00  0.00    +0.000 A 
ATOM      9  C   UNL     1       4.731  -1.247  -0.409  0.00  0.00    +0.000 A 
ATOM     10  F   UNL     1       5.404  -4.417  -2.039  0.00  0.00    +0.000 F 
ENDBRANCH   2   4
BRANCH   3  11
ATOM     11  C   UNL     1       2.488   1.745   1.565  0.00  0.00    +0.000 A 
ATOM     12  C   UNL     1       1.476   1.564   2.511  0.00  0.00    +0.000 A 
ATOM     13  C   UNL     1       0.846   2.666   3.093  0.00  0.00    +0.000 A 
ATOM     14  C   UNL     1       1.237   3.958   2.741  0.00  0.00    +0.000 A 
ATOM     15  C   UNL     1       2.261   4.146   1.813  0.00  0.00    +0.000 A 
ATOM     16  C   UNL     1       2.889   3.042   1.233  0.00  0.00    +0.000 A 
ENDBRANCH   3  11
TORSDOF 2
