MODEL 1
REMARK VINA RESULT:      -3.8      0.000      0.000
REMARK  Name = *****
REMARK  5 active torsions:
REMARK  status: ('A' for Active; 'I' for Inactive)
REMARK    1  A    between atoms: C_1  and  C_2
REMARK    2  A    between atoms: C_6  and  C_9
REMARK    3  A    between atoms: C_6  and  C_10
REMARK    4  A    between atoms: C_10  and  S_11
REMARK    5  A    between atoms: S_11  and  C_12
REMARK                            x       y       z     vdW  Elec       q    Type
REMARK                         _______ _______ _______ _____ _____    ______ ____
ROOT
ATOM      1  C   UNL     1      90.102  71.040  84.571  0.00  0.00    +0.000 C 
ATOM      2  C   UNL     1      89.186  70.793  85.728  0.00  0.00    +0.000 C 
ATOM      3  C   UNL     1      89.611  70.603  86.985  0.00  0.00    +0.000 C 
ATOM      4  C   UNL     1      88.725  70.375  88.090  0.00  0.00    +0.000 C 
ATOM      5  C   UNL     1      87.399  70.327  87.926  0.00  0.00    +0.000 C 
ATOM      6  C   UNL     1      86.708  70.501  86.584  0.00  0.00    +0.000 C 
ATOM      7  C   UNL     1      87.718  70.762  85.439  0.00  0.00    +0.000 C 
ATOM      8  O   UNL     1      87.338  70.938  84.278  0.00  0.00    +0.000 OA
ATOM      9  C   UNL     1      85.789  71.733  86.656  0.00  0.00    +0.000 C 
ENDROOT
BRANCH   6  10
ATOM     10  C   UNL     1      85.939  69.218  86.176  0.00  0.00    +0.000 C 
BRANCH  10  11
ATOM     11  S   UNL     1      86.448  67.685  87.056  0.00  0.00    +0.000 S 
BRANCH  11  12
ATOM     12  C   UNL     1      87.941  67.274  86.169  0.00  0.00    +0.000 A 
ATOM     13  C   UNL     1      89.130  66.938  86.825  0.00  0.00    +0.000 A 
ATOM     14  C   UNL     1      90.280  66.633  86.091  0.00  0.00    +0.000 A 
ATOM     15  C   UNL     1      90.251  66.673  84.698  0.00  0.00    +0.000 A 
ATOM     16  C   UNL     1      89.075  67.023  84.038  0.00  0.00    +0.000 A 
ATOM     17  C   UNL     1      87.926  67.327  84.772  0.00  0.00    +0.000 A 
ENDBRANCH  11  12
ENDBRANCH  10  11
ENDBRANCH   6  10
TORSDOF 3
ENDMDL
