REMARK  Name = *****
REMARK  7 active torsions:
REMARK  status: ('A' for Active; 'I' for Inactive)
REMARK    1  A    between atoms: C_1  and  C_2
REMARK    2  A    between atoms: C_4  and  S_8
REMARK    3  A    between atoms: S_8  and  C_9
REMARK    4  A    between atoms: C_9  and  C_10
REMARK    5  A    between atoms: C_11  and  C_18
REMARK    6  A    between atoms: C_13  and  C_17
REMARK    7  A    between atoms: C_15  and  C_16
REMARK                            x       y       z     vdW  Elec       q    Type
REMARK                         _______ _______ _______ _____ _____    ______ ____
ROOT
ATOM      1  C   UNL     1       0.842  -4.114  -0.072  0.00  0.00    +0.000 C 
ENDROOT
BRANCH   1   2
ATOM      2  C   UNL     1       1.593  -5.434   0.011  0.00  0.00    +0.000 A 
ATOM      3  C   UNL     1       0.889  -6.665   0.008  0.00  0.00    +0.000 A 
ATOM      4  C   UNL     1       1.600  -7.875   0.083  0.00  0.00    +0.000 A 
ATOM      5  C   UNL     1       2.993  -7.895   0.160  0.00  0.00    +0.000 A 
ATOM      6  C   UNL     1       3.685  -6.682   0.191  0.00  0.00    +0.000 A 
ATOM      7  C   UNL     1       3.007  -5.453   0.118  0.00  0.00    +0.000 A 
ATOM      8  C   UNL     1       3.825  -4.187   0.140  0.00  0.00    +0.000 C 
ATOM      9  C   UNL     1       3.733  -9.194   0.276  0.00  0.00    +0.000 C 
ATOM     10  C   UNL     1      -0.613  -6.727  -0.091  0.00  0.00    +0.000 C 
ENDBRANCH   1   2
BRANCH   1  11
ATOM     11  S   UNL     1       0.394  -3.493   1.584  0.00  0.00    +0.000 S 
BRANCH  11  15
ATOM     12  C   UNL     1      -2.329   0.798   2.898  0.00  0.00    +0.000 C 
ATOM     13  C   UNL     1      -1.690  -0.039   1.832  0.00  0.00    +0.000 A 
ATOM     14  C   UNL     1      -1.019  -1.221   2.160  0.00  0.00    +0.000 A 
ATOM     15  C   UNL     1      -0.466  -1.994   1.144  0.00  0.00    +0.000 A 
ATOM     16  N   UNL     1      -0.556  -1.657  -0.161  0.00  0.00    +0.000 NA
ATOM     17  C   UNL     1      -1.221  -0.520  -0.459  0.00  0.00    +0.000 A 
ATOM     18  C   UNL     1      -1.802   0.308   0.487  0.00  0.00    +0.000 A 
ENDBRANCH  11  15
ENDBRANCH   1  11
TORSDOF 3
