MODEL 1
REMARK VINA RESULT:      -4.7      0.000      0.000
REMARK  Name = *****
REMARK  3 active torsions:
REMARK  status: ('A' for Active; 'I' for Inactive)
REMARK    1  A    between atoms: C_4  and  C_7
REMARK    2  A    between atoms: C_7  and  C_9
REMARK    3  A    between atoms: C_9  and  C_10
REMARK                            x       y       z     vdW  Elec       q    Type
REMARK                         _______ _______ _______ _____ _____    ______ ____
ROOT
ATOM      1  C   UNL     1     101.793 125.950  82.775  0.00  0.00    +0.000 C 
ENDROOT
BRANCH   1   2
ATOM      2  C   UNL     1     100.927 127.157  83.052  0.00  0.00    +0.000 A 
ATOM      3  C   UNL     1      99.613 127.184  82.561  0.00  0.00    +0.000 A 
ATOM      4  C   UNL     1      98.767 128.272  82.764  0.00  0.00    +0.000 A 
ATOM      5  C   UNL     1      99.228 129.382  83.461  0.00  0.00    +0.000 A 
ATOM      6  C   UNL     1     100.537 129.395  83.943  0.00  0.00    +0.000 A 
ATOM      7  C   UNL     1     101.382 128.296  83.734  0.00  0.00    +0.000 A 
ATOM      8 CL   UNL     1     102.991 128.420  84.351  0.00  0.00    +0.000 Cl
ATOM      9  F   UNL     1      99.138 126.139  81.870  0.00  0.00    +0.000 F 
ENDBRANCH   1   2
BRANCH   1  10
ATOM     10  C   UNL     1     102.790 126.116  81.641  0.00  0.00    +0.000 C 
ATOM     11  O   UNL     1     102.858 127.165  81.001  0.00  0.00    +0.000 OA
BRANCH  10  15
ATOM     12  C   UNL     1     105.535 122.989  80.614  0.00  0.00    +0.000 A 
ATOM     13  C   UNL     1     105.256 124.013  79.712  0.00  0.00    +0.000 A 
ATOM     14  C   UNL     1     104.362 125.026  80.063  0.00  0.00    +0.000 A 
ATOM     15  C   UNL     1     103.737 125.013  81.316  0.00  0.00    +0.000 A 
ATOM     16  C   UNL     1     104.032 123.990  82.224  0.00  0.00    +0.000 A 
ATOM     17  C   UNL     1     104.927 122.979  81.869  0.00  0.00    +0.000 A 
ENDBRANCH  10  15
ENDBRANCH   1  10
TORSDOF 3
ENDMDL
