REMARK  Name = *****
REMARK  5 active torsions:
REMARK  status: ('A' for Active; 'I' for Inactive)
REMARK    1  A    between atoms: C_1  and  C_2
REMARK    2  A    between atoms: C_5  and  C_8
REMARK    3  A    between atoms: C_8  and  S_9
REMARK    4  A    between atoms: S_9  and  C_10
REMARK    5  A    between atoms: S_9  and  C_11
REMARK                            x       y       z     vdW  Elec       q    Type
REMARK                         _______ _______ _______ _____ _____    ______ ____
ROOT
ATOM      1  C   UNL     1      -3.224   0.453  -0.404  0.00  0.00    +0.000 C 
ENDROOT
BRANCH   1   6
ATOM      2  C   UNL     1       2.528  -0.190   0.281  0.00  0.00    +0.000 C 
ATOM      3  C   UNL     1       1.052   0.005   0.101  0.00  0.00    +0.000 A 
ATOM      4  C   UNL     1       0.229   0.242   1.207  0.00  0.00    +0.000 A 
ATOM      5  C   UNL     1      -1.150   0.391   1.045  0.00  0.00    +0.000 A 
ATOM      6  C   UNL     1      -1.734   0.302  -0.226  0.00  0.00    +0.000 A 
ATOM      7  C   UNL     1      -0.909   0.043  -1.329  0.00  0.00    +0.000 A 
ATOM      8  C   UNL     1       0.470  -0.108  -1.166  0.00  0.00    +0.000 A 
ENDBRANCH   1   6
BRANCH   1   9
ATOM      9  S   UNL     1      -3.835   2.108   0.082  0.00  0.00    +0.000 S 
ATOM     10  C   UNL     1      -3.074   3.001  -1.296  0.00  0.00    +0.000 C 
BRANCH   9  11
ATOM     11  C   UNL     1      -5.541   1.945  -0.496  0.00  0.00    +0.000 A 
ATOM     12  C   UNL     1      -6.332   0.907   0.015  0.00  0.00    +0.000 A 
ATOM     13  C   UNL     1      -7.663   0.759  -0.382  0.00  0.00    +0.000 A 
ATOM     14  C   UNL     1      -8.227   1.662  -1.278  0.00  0.00    +0.000 A 
ATOM     15  C   UNL     1      -7.463   2.720  -1.764  0.00  0.00    +0.000 A 
ATOM     16  C   UNL     1      -6.131   2.866  -1.367  0.00  0.00    +0.000 A 
ENDBRANCH   9  11
ENDBRANCH   1   9
TORSDOF 3
