REMARK  Name = *****
REMARK  3 active torsions:
REMARK  status: ('A' for Active; 'I' for Inactive)
REMARK    1  A    between atoms: C_4  and  O_7
REMARK    2  A    between atoms: O_7  and  C_8
REMARK    3  A    between atoms: C_8  and  C_10
REMARK                            x       y       z     vdW  Elec       q    Type
REMARK                         _______ _______ _______ _____ _____    ______ ____
ROOT
ATOM      1  C   UNL     1       3.426  -1.782   0.282  0.00  0.00    +0.000 C 
ATOM      2  O   UNL     1       3.059  -2.446   1.239  0.00  0.00    +0.000 OA
ENDROOT
BRANCH   1   3
ATOM      3  C   UNL     1       4.705  -2.026  -0.414  0.00  0.00    +0.000 A 
ATOM      4  C   UNL     1       5.391  -1.017  -1.094  0.00  0.00    +0.000 A 
ATOM      5  C   UNL     1       6.595  -1.300  -1.729  0.00  0.00    +0.000 A 
ATOM      6  C   UNL     1       7.124  -2.584  -1.683  0.00  0.00    +0.000 A 
ATOM      7  C   UNL     1       6.462  -3.599  -0.999  0.00  0.00    +0.000 A 
ATOM      8  C   UNL     1       5.252  -3.320  -0.358  0.00  0.00    +0.000 A 
ATOM      9  F   UNL     1       8.284  -2.856  -2.294  0.00  0.00    +0.000 F 
ATOM     10  F   UNL     1       7.252  -0.329  -2.379  0.00  0.00    +0.000 F 
ATOM     11  F   UNL     1       4.927   0.241  -1.125  0.00  0.00    +0.000 F 
ENDBRANCH   1   3
BRANCH   1  12
ATOM     12  O   UNL     1       2.725  -0.808  -0.339  0.00  0.00    +0.000 OA
BRANCH  12  16
ATOM     13  C   UNL     1      -1.349   0.372  -0.251  0.00  0.00    +0.000 C 
ATOM     14  C   UNL     1      -1.020  -1.063   0.148  0.00  0.00    +0.000 C 
ATOM     15  C   UNL     1       0.383  -1.463  -0.297  0.00  0.00    +0.000 C 
ATOM     16  C   UNL     1       1.441  -0.486   0.226  0.00  0.00    +0.000 C 
ATOM     17  C   UNL     1       1.106   0.948  -0.191  0.00  0.00    +0.000 C 
ATOM     18  C   UNL     1      -0.295   1.354   0.253  0.00  0.00    +0.000 C 
ENDBRANCH  12  16
ENDBRANCH   1  12
TORSDOF 3
