REMARK  Name = *****
REMARK  3 active torsions:
REMARK  status: ('A' for Active; 'I' for Inactive)
REMARK    1  A    between atoms: C_4  and  C_6
REMARK    2  A    between atoms: C_6  and  C_7
REMARK    3  A    between atoms: C_8  and  C_9
REMARK                            x       y       z     vdW  Elec       q    Type
REMARK                         _______ _______ _______ _____ _____    ______ ____
ROOT
ATOM      1  C   UNL     1      -2.798   1.119   1.849  0.00  0.00    +0.000 C 
ATOM      2  C   UNL     1      -3.295   0.545   2.956  0.00  0.00    +0.000 C 
ENDROOT
BRANCH   2   3
ATOM      3  C   UNL     1      -4.719   0.246   3.163  0.00  0.00    +0.000 A 
ATOM      4  C   UNL     1      -5.073  -0.920   3.854  0.00  0.00    +0.000 A 
ATOM      5  C   UNL     1      -6.415  -1.225   4.097  0.00  0.00    +0.000 A 
ATOM      6  C   UNL     1      -7.416  -0.360   3.660  0.00  0.00    +0.000 A 
ATOM      7  C   UNL     1      -7.076   0.811   2.986  0.00  0.00    +0.000 A 
ATOM      8  C   UNL     1      -5.734   1.115   2.743  0.00  0.00    +0.000 A 
ENDBRANCH   2   3
BRANCH   1   9
ATOM      9  C   UNL     1      -1.336   1.408   1.647  0.00  0.00    +0.000 C 
BRANCH   9  13
ATOM     10  C   UNL     1       1.219  -0.191  -0.653  0.00  0.00    +0.000 C 
ATOM     11  C   UNL     1       0.269  -1.362  -0.401  0.00  0.00    +0.000 C 
ATOM     12  C   UNL     1      -0.730  -0.878   0.645  0.00  0.00    +0.000 C 
ATOM     13  C   UNL     1      -0.753   0.639   0.460  0.00  0.00    +0.000 C 
ATOM     14  C   UNL     1       0.723   0.954   0.225  0.00  0.00    +0.000 C 
ENDBRANCH   9  13
ENDBRANCH   1   9
TORSDOF 3
