MODEL 1
REMARK VINA RESULT:      -4.9      0.000      0.000
REMARK  Name = *****
REMARK  6 active torsions:
REMARK  status: ('A' for Active; 'I' for Inactive)
REMARK    1  A    between atoms: C_1  and  C_2
REMARK    2  A    between atoms: C_4  and  C_17
REMARK    3  A    between atoms: C_6  and  N_8
REMARK    4  A    between atoms: N_8  and  C_9
REMARK    5  A    between atoms: N_8  and  C_10
REMARK    6  A    between atoms: C_10  and  C_11
REMARK                            x       y       z     vdW  Elec       q    Type
REMARK                         _______ _______ _______ _____ _____    ______ ____
ROOT
ATOM      1  N   UNL     1      88.717  69.926  86.733  0.00  0.00    +0.000 N 
ATOM      2  C   UNL     1      89.747  70.708  86.059  0.00  0.00    +0.000 C 
ENDROOT
BRANCH   1   8
ATOM      3  C   UNL     1      91.187  65.829  85.453  0.00  0.00    +0.000 C 
ATOM      4  C   UNL     1      90.023  66.468  86.148  0.00  0.00    +0.000 A 
ATOM      5  C   UNL     1      89.068  65.698  86.813  0.00  0.00    +0.000 A 
ATOM      6  C   UNL     1      88.003  66.314  87.469  0.00  0.00    +0.000 A 
ATOM      7  C   UNL     1      87.893  67.717  87.440  0.00  0.00    +0.000 A 
ATOM      8  C   UNL     1      88.815  68.530  86.762  0.00  0.00    +0.000 A 
ATOM      9  C   UNL     1      89.884  67.867  86.131  0.00  0.00    +0.000 A 
ATOM     10  C   UNL     1      86.967  65.502  88.189  0.00  0.00    +0.000 C 
ENDBRANCH   1   8
BRANCH   1  11
ATOM     11  C   UNL     1      88.060  70.592  87.873  0.00  0.00    +0.000 C 
BRANCH  11  12
ATOM     12  C   UNL     1      86.723  71.214  87.517  0.00  0.00    +0.000 A 
ATOM     13  C   UNL     1      85.855  71.606  88.550  0.00  0.00    +0.000 A 
ATOM     14  C   UNL     1      84.630  72.212  88.263  0.00  0.00    +0.000 A 
ATOM     15  C   UNL     1      84.260  72.444  86.941  0.00  0.00    +0.000 A 
ATOM     16  C   UNL     1      85.115  72.073  85.906  0.00  0.00    +0.000 A 
ATOM     17  C   UNL     1      86.340  71.467  86.192  0.00  0.00    +0.000 A 
ENDBRANCH  11  12
ENDBRANCH   1  11
TORSDOF 3
ENDMDL
