MODEL 1
REMARK VINA RESULT:      -5.0      0.000      0.000
REMARK  Name = *****
REMARK  1 active torsions:
REMARK  status: ('A' for Active; 'I' for Inactive)
REMARK    1  A    between atoms: C_6  and  C_11
REMARK                            x       y       z     vdW  Elec       q    Type
REMARK                         _______ _______ _______ _____ _____    ______ ____
ROOT
ATOM      1  C   UNL     1     106.778 123.868  81.329  0.00  0.00    +0.000 C 
ATOM      2  C   UNL     1     106.398 123.820  82.807  0.00  0.00    +0.000 C 
ATOM      3  C   UNL     1     105.299 124.796  83.228  0.00  0.00    +0.000 C 
ATOM      4  C   UNL     1     103.936 124.496  82.597  0.00  0.00    +0.000 C 
ATOM      5  C   UNL     1     102.849 125.306  83.263  0.00  0.00    +0.000 C 
ATOM      6  C   UNL     1     102.236 126.116  82.374  0.00  0.00    +0.000 C 
ATOM      7  C   UNL     1     102.853 125.889  81.078  0.00  0.00    +0.000 C 
ATOM      8  C   UNL     1     103.821 124.962  81.170  0.00  0.00    +0.000 C 
ATOM      9  C   UNL     1     104.645 124.457  80.037  0.00  0.00    +0.000 C 
ATOM     10  C   UNL     1     105.678 123.384  80.384  0.00  0.00    +0.000 C 
ENDROOT
BRANCH   6  11
ATOM     11  C   UNL     1     101.128 127.032  82.690  0.00  0.00    +0.000 A 
ATOM     12  C   UNL     1     101.378 128.250  83.342  0.00  0.00    +0.000 A 
ATOM     13  C   UNL     1     100.334 129.125  83.656  0.00  0.00    +0.000 A 
ATOM     14  C   UNL     1      99.023 128.798  83.318  0.00  0.00    +0.000 A 
ATOM     15  C   UNL     1      98.757 127.595  82.669  0.00  0.00    +0.000 A 
ATOM     16  C   UNL     1      99.801 126.718  82.361  0.00  0.00    +0.000 A 
ENDBRANCH   6  11
TORSDOF 1
ENDMDL
