MODEL 1
REMARK VINA RESULT:      -5.2      0.000      0.000
REMARK  Name = *****
REMARK  2 active torsions:
REMARK  status: ('A' for Active; 'I' for Inactive)
REMARK    1  A    between atoms: C_1  and  C_2
REMARK    2  A    between atoms: C_4  and  C_8
REMARK                            x       y       z     vdW  Elec       q    Type
REMARK                         _______ _______ _______ _____ _____    ______ ____
ROOT
ATOM      1  C   UNL     1     102.825 126.165  81.807  0.00  0.00    +0.000 C 
ATOM      2  C   UNL     1     103.172 124.919  82.193  0.00  0.00    +0.000 C 
ATOM      3  C   UNL     1     104.176 124.415  81.273  0.00  0.00    +0.000 A 
ATOM      4  C   UNL     1     104.826 123.194  81.253  0.00  0.00    +0.000 A 
ATOM      5  C   UNL     1     105.759 122.959  80.239  0.00  0.00    +0.000 A 
ATOM      6  C   UNL     1     106.026 123.941  79.268  0.00  0.00    +0.000 A 
ATOM      7  C   UNL     1     105.365 125.170  79.297  0.00  0.00    +0.000 A 
ATOM      8  C   UNL     1     104.443 125.390  80.307  0.00  0.00    +0.000 A 
ATOM      9  C   UNL     1     103.606 126.603  80.578  0.00  0.00    +0.000 C 
ENDROOT
BRANCH   1  13
ATOM     10  C   UNL     1      98.045 127.271  82.918  0.00  0.00    +0.000 C 
ATOM     11  C   UNL     1      99.508 127.587  83.023  0.00  0.00    +0.000 A 
ATOM     12  C   UNL     1     100.458 126.754  82.407  0.00  0.00    +0.000 A 
ATOM     13  C   UNL     1     101.834 127.040  82.459  0.00  0.00    +0.000 A 
ATOM     14  C   UNL     1     102.232 128.205  83.131  0.00  0.00    +0.000 A 
ATOM     15  C   UNL     1     101.295 129.049  83.735  0.00  0.00    +0.000 A 
ATOM     16  C   UNL     1      99.938 128.743  83.678  0.00  0.00    +0.000 A 
ENDBRANCH   1  13
TORSDOF 1
ENDMDL
