MODEL 1
REMARK VINA RESULT:      -4.9      0.000      0.000
REMARK  Name = *****
REMARK  2 active torsions:
REMARK  status: ('A' for Active; 'I' for Inactive)
REMARK    1  A    between atoms: C_5  and  C_7
REMARK    2  A    between atoms: N_8  and  C_9
REMARK                            x       y       z     vdW  Elec       q    Type
REMARK                         _______ _______ _______ _____ _____    ______ ____
ROOT
ATOM      1  C   UNL     1     102.727 125.969  82.522  0.00  0.00    +0.000 C 
ATOM      2  N   UNL     1     101.439 125.914  82.386  0.00  0.00    +0.000 NA
ENDROOT
BRANCH   1   7
ATOM      3  C   UNL     1     104.878 122.875  82.786  0.00  0.00    +0.000 A 
ATOM      4  C   UNL     1     105.217 122.677  81.447  0.00  0.00    +0.000 A 
ATOM      5  C   UNL     1     104.744 123.554  80.469  0.00  0.00    +0.000 A 
ATOM      6  C   UNL     1     103.932 124.624  80.837  0.00  0.00    +0.000 A 
ATOM      7  C   UNL     1     103.589 124.827  82.172  0.00  0.00    +0.000 A 
ATOM      8  C   UNL     1     104.062 123.950  83.152  0.00  0.00    +0.000 A 
ATOM      9  F   UNL     1     103.489 125.455  79.882  0.00  0.00    +0.000 F 
ENDBRANCH   1   7
BRANCH   2  10
ATOM     10  C   UNL     1     100.705 127.064  82.735  0.00  0.00    +0.000 A 
ATOM     11  C   UNL     1     101.381 128.116  83.360  0.00  0.00    +0.000 A 
ATOM     12  C   UNL     1     100.700 129.272  83.754  0.00  0.00    +0.000 A 
ATOM     13  C   UNL     1      99.327 129.384  83.536  0.00  0.00    +0.000 A 
ATOM     14  C   UNL     1      98.634 128.339  82.928  0.00  0.00    +0.000 A 
ATOM     15  C   UNL     1      99.321 127.190  82.538  0.00  0.00    +0.000 A 
ATOM     16  F   UNL     1      98.628 126.197  81.959  0.00  0.00    +0.000 F 
ENDBRANCH   2  10
TORSDOF 2
ENDMDL
