MODEL 1
REMARK VINA RESULT:      -4.6      0.000      0.000
REMARK  Name = *****
REMARK  3 active torsions:
REMARK  status: ('A' for Active; 'I' for Inactive)
REMARK    1  A    between atoms: C_1  and  C_2
REMARK    2  A    between atoms: C_7  and  C_8
REMARK    3  A    between atoms: C_10  and  C_11
REMARK                            x       y       z     vdW  Elec       q    Type
REMARK                         _______ _______ _______ _____ _____    ______ ____
ROOT
ATOM      1  C   UNL     1      88.436  66.147  86.677  0.00  0.00    +0.000 C 
ATOM      2  C   UNL     1      89.624  65.691  85.869  0.00  0.00    +0.000 C 
ATOM      3  C   UNL     1      89.729  66.955  86.680  0.00  0.00    +0.000 C 
ENDROOT
BRANCH   1  10
ATOM      4  C   UNL     1      86.416  67.225  88.627  0.00  0.00    +0.000 C 
ATOM      5  C   UNL     1      87.071  65.886  88.840  0.00  0.00    +0.000 A 
ATOM      6  C   UNL     1      86.705  65.127  89.966  0.00  0.00    +0.000 A 
ATOM      7  C   UNL     1      87.284  63.884  90.208  0.00  0.00    +0.000 A 
ATOM      8  C   UNL     1      88.232  63.383  89.326  0.00  0.00    +0.000 A 
ATOM      9  C   UNL     1      88.590  64.123  88.198  0.00  0.00    +0.000 A 
ATOM     10  C   UNL     1      88.011  65.377  87.913  0.00  0.00    +0.000 A 
ENDBRANCH   1  10
BRANCH   3  11
ATOM     11  C   UNL     1      89.770  68.300  85.995  0.00  0.00    +0.000 A 
ATOM     12  C   UNL     1      89.626  69.493  86.725  0.00  0.00    +0.000 A 
ATOM     13  C   UNL     1      89.680  70.741  86.099  0.00  0.00    +0.000 A 
ATOM     14  C   UNL     1      89.887  70.822  84.725  0.00  0.00    +0.000 A 
ATOM     15  C   UNL     1      90.043  69.656  83.981  0.00  0.00    +0.000 A 
ATOM     16  C   UNL     1      89.988  68.411  84.613  0.00  0.00    +0.000 A 
ENDBRANCH   3  11
TORSDOF 2
ENDMDL
