REMARK  Name = *****
REMARK  6 active torsions:
REMARK  status: ('A' for Active; 'I' for Inactive)
REMARK    1  A    between atoms: C_1  and  C_2
REMARK    2  A    between atoms: C_4  and  C_17
REMARK    3  A    between atoms: C_5  and  C_8
REMARK    4  A    between atoms: C_8  and  O_9
REMARK    5  A    between atoms: O_9  and  O_10
REMARK    6  A    between atoms: O_10  and  C_11
REMARK                            x       y       z     vdW  Elec       q    Type
REMARK                         _______ _______ _______ _____ _____    ______ ____
ROOT
ATOM      1  C   UNL     1      -2.512  -1.924  -0.143  0.00  0.00    +0.000 C 
ENDROOT
BRANCH   1   6
ATOM      2  C   UNL     1       2.495   1.053   0.135  0.00  0.00    +0.000 C 
ATOM      3  C   UNL     1       1.201   0.301   0.037  0.00  0.00    +0.000 A 
ATOM      4  C   UNL     1      -0.023   0.981   0.075  0.00  0.00    +0.000 A 
ATOM      5  C   UNL     1      -1.245   0.289   0.021  0.00  0.00    +0.000 A 
ATOM      6  C   UNL     1      -1.238  -1.117  -0.080  0.00  0.00    +0.000 A 
ATOM      7  C   UNL     1      -0.007  -1.794  -0.088  0.00  0.00    +0.000 A 
ATOM      8  C   UNL     1       1.198  -1.093  -0.028  0.00  0.00    +0.000 A 
ATOM      9  C   UNL     1      -2.530   1.070   0.064  0.00  0.00    +0.000 C 
ENDBRANCH   1   6
BRANCH   1  10
ATOM     10  O   UNL     1      -3.043  -2.053   1.174  0.00  0.00    +0.000 OA
BRANCH  10  11
ATOM     11  O   UNL     1      -4.240  -2.876   1.035  0.00  0.00    +0.000 OA
BRANCH  11  12
ATOM     12  C   UNL     1      -4.032  -4.068   1.691  0.00  0.00    +0.000 A 
ATOM     13  C   UNL     1      -3.097  -4.245   2.712  0.00  0.00    +0.000 A 
ATOM     14  C   UNL     1      -2.967  -5.491   3.330  0.00  0.00    +0.000 A 
ATOM     15  C   UNL     1      -3.774  -6.557   2.932  0.00  0.00    +0.000 A 
ATOM     16  C   UNL     1      -4.717  -6.378   1.921  0.00  0.00    +0.000 A 
ATOM     17  C   UNL     1      -4.848  -5.133   1.304  0.00  0.00    +0.000 A 
ENDBRANCH  11  12
ENDBRANCH  10  11
ENDBRANCH   1  10
TORSDOF 4
