MODEL 1
REMARK VINA RESULT:      -4.8      0.000      0.000
REMARK  Name = *****
REMARK  3 active torsions:
REMARK  status: ('A' for Active; 'I' for Inactive)
REMARK    1  A    between atoms: C_6  and  C_7
REMARK    2  A    between atoms: C_7  and  O_9
REMARK    3  A    between atoms: O_9  and  C_10
REMARK                            x       y       z     vdW  Elec       q    Type
REMARK                         _______ _______ _______ _____ _____    ______ ____
ROOT
ATOM      1  C   UNL     1      88.989  68.515  86.218  0.00  0.00    +0.000 C 
ATOM      2  O   UNL     1      88.427  68.559  85.135  0.00  0.00    +0.000 OA
ENDROOT
BRANCH   1   8
ATOM      3  C   UNL     1      87.310  68.485  88.035  0.00  0.00    +0.000 A 
ATOM      4  C   UNL     1      86.730  69.025  89.186  0.00  0.00    +0.000 A 
ATOM      5  C   UNL     1      87.242  70.200  89.725  0.00  0.00    +0.000 A 
ATOM      6  C   UNL     1      88.320  70.842  89.126  0.00  0.00    +0.000 A 
ATOM      7  C   UNL     1      88.902  70.308  87.982  0.00  0.00    +0.000 A 
ATOM      8  C   UNL     1      88.411  69.121  87.435  0.00  0.00    +0.000 A 
ATOM      9  F   UNL     1      89.918  70.968  87.407  0.00  0.00    +0.000 F 
ATOM     10  F   UNL     1      88.795  71.982  89.648  0.00  0.00    +0.000 F 
ATOM     11  F   UNL     1      86.681  70.714  90.828  0.00  0.00    +0.000 F 
ENDBRANCH   1   8
BRANCH   1  12
ATOM     12  O   UNL     1      90.160  67.853  86.533  0.00  0.00    +0.000 OA
BRANCH  12  13
ATOM     13  C   UNL     1      90.176  66.494  86.204  0.00  0.00    +0.000 A 
ATOM     14  C   UNL     1      91.249  66.025  85.449  0.00  0.00    +0.000 A 
ATOM     15  C   UNL     1      91.318  64.668  85.154  0.00  0.00    +0.000 A 
ATOM     16  C   UNL     1      90.349  63.782  85.611  0.00  0.00    +0.000 A 
ATOM     17  C   UNL     1      89.301  64.270  86.382  0.00  0.00    +0.000 A 
ATOM     18  C   UNL     1      89.205  65.623  86.694  0.00  0.00    +0.000 A 
ATOM     19  F   UNL     1      88.370  63.423  86.838  0.00  0.00    +0.000 F 
ATOM     20  F   UNL     1      92.339  64.205  84.423  0.00  0.00    +0.000 F 
ENDBRANCH  12  13
ENDBRANCH   1  12
TORSDOF 3
ENDMDL
