MODEL 1
REMARK VINA RESULT:      -4.5      0.000      0.000
REMARK  Name = *****
REMARK  4 active torsions:
REMARK  status: ('A' for Active; 'I' for Inactive)
REMARK    1  A    between atoms: C_1  and  C_2
REMARK    2  A    between atoms: C_5  and  S_8
REMARK    3  A    between atoms: S_8  and  C_9
REMARK    4  A    between atoms: C_9  and  C_11
REMARK                            x       y       z     vdW  Elec       q    Type
REMARK                         _______ _______ _______ _____ _____    ______ ____
ROOT
ATOM      1  S   UNL     1      89.164  70.410  86.844  0.00  0.00    +0.000 S 
ENDROOT
BRANCH   1   6
ATOM      2  C   UNL     1      88.865  64.322  86.778  0.00  0.00    +0.000 C 
ATOM      3  C   UNL     1      88.954  65.818  86.822  0.00  0.00    +0.000 A 
ATOM      4  C   UNL     1      87.918  66.574  87.384  0.00  0.00    +0.000 A 
ATOM      5  C   UNL     1      87.983  67.969  87.393  0.00  0.00    +0.000 A 
ATOM      6  C   UNL     1      89.083  68.628  86.838  0.00  0.00    +0.000 A 
ATOM      7  C   UNL     1      90.109  67.878  86.255  0.00  0.00    +0.000 A 
ATOM      8  C   UNL     1      90.043  66.482  86.245  0.00  0.00    +0.000 A 
ENDBRANCH   1   6
BRANCH   1   9
ATOM      9  C   UNL     1      87.789  70.744  85.840  0.00  0.00    +0.000 C 
ATOM     10  C   UNL     1      87.790  70.455  84.532  0.00  0.00    +0.000 C 
BRANCH   9  11
ATOM     11  C   UNL     1      86.596  71.312  86.488  0.00  0.00    +0.000 A 
ATOM     12  C   UNL     1      85.563  71.872  85.724  0.00  0.00    +0.000 A 
ATOM     13  C   UNL     1      84.436  72.415  86.345  0.00  0.00    +0.000 A 
ATOM     14  C   UNL     1      84.333  72.404  87.735  0.00  0.00    +0.000 A 
ATOM     15  C   UNL     1      85.355  71.854  88.506  0.00  0.00    +0.000 A 
ATOM     16  C   UNL     1      86.484  71.312  87.886  0.00  0.00    +0.000 A 
ENDBRANCH   9  11
ENDBRANCH   1   9
TORSDOF 3
ENDMDL
