MODEL 1
REMARK VINA RESULT:      -4.7      0.000      0.000
REMARK  Name = *****
REMARK  5 active torsions:
REMARK  status: ('A' for Active; 'I' for Inactive)
REMARK    1  A    between atoms: C_1  and  C_2
REMARK    2  A    between atoms: C_5  and  N_8
REMARK    3  A    between atoms: N_8  and  C_9
REMARK    4  A    between atoms: N_10  and  C_11
REMARK    5  A    between atoms: C_14  and  C_17
REMARK                            x       y       z     vdW  Elec       q    Type
REMARK                         _______ _______ _______ _____ _____    ______ ____
ROOT
ATOM      1  C   UNL     1      88.943  66.108  86.617  0.00  0.00    +0.000 C 
ATOM      2  N   UNL     1      89.999  66.854  86.646  0.00  0.00    +0.000 NA
ENDROOT
BRANCH   2   3
ATOM      3  C   UNL     1      89.870  68.132  86.084  0.00  0.00    +0.000 A 
ATOM      4  C   UNL     1      89.670  69.260  86.883  0.00  0.00    +0.000 A 
ATOM      5  C   UNL     1      89.574  70.531  86.311  0.00  0.00    +0.000 A 
ATOM      6  C   UNL     1      89.679  70.692  84.923  0.00  0.00    +0.000 A 
ATOM      7  C   UNL     1      89.909  69.564  84.125  0.00  0.00    +0.000 A 
ATOM      8  C   UNL     1      90.002  68.296  84.705  0.00  0.00    +0.000 A 
ATOM      9  C   UNL     1      89.613  72.058  84.311  0.00  0.00    +0.000 C 
ENDBRANCH   2   3
BRANCH   1  10
ATOM     10  N   UNL     1      88.956  64.889  87.143  0.00  0.00    +0.000 NA
BRANCH  10  15
ATOM     11  C   UNL     1      86.377  64.492  92.211  0.00  0.00    +0.000 C 
ATOM     12  C   UNL     1      87.048  64.559  90.875  0.00  0.00    +0.000 A 
ATOM     13  C   UNL     1      88.235  63.864  90.636  0.00  0.00    +0.000 A 
ATOM     14  C   UNL     1      88.877  63.958  89.395  0.00  0.00    +0.000 A 
ATOM     15  C   UNL     1      88.357  64.741  88.351  0.00  0.00    +0.000 A 
ATOM     16  C   UNL     1      87.186  65.461  88.624  0.00  0.00    +0.000 A 
ATOM     17  C   UNL     1      86.536  65.374  89.862  0.00  0.00    +0.000 A 
ENDBRANCH  10  15
ENDBRANCH   1  10
TORSDOF 3
ENDMDL
