REMARK  Name = *****
REMARK  3 active torsions:
REMARK  status: ('A' for Active; 'I' for Inactive)
REMARK    1  A    between atoms: C_1  and  C_2
REMARK    2  A    between atoms: C_4  and  C_18
REMARK    3  A    between atoms: C_6  and  C_8
REMARK                            x       y       z     vdW  Elec       q    Type
REMARK                         _______ _______ _______ _____ _____    ______ ____
ROOT
ATOM      1  C   UNL     1      -0.035  -3.205  -0.061  0.00  0.00    +0.000 A 
ATOM      2  C   UNL     1      -1.010  -3.953  -0.707  0.00  0.00    +0.000 A 
ATOM      3  C   UNL     1      -0.952  -5.353  -0.674  0.00  0.00    +0.000 A 
ATOM      4  C   UNL     1      -1.923  -6.148  -1.310  0.00  0.00    +0.000 A 
ATOM      5  C   UNL     1      -1.844  -7.539  -1.256  0.00  0.00    +0.000 A 
ATOM      6  C   UNL     1      -0.796  -8.142  -0.570  0.00  0.00    +0.000 A 
ATOM      7  C   UNL     1       0.170  -7.350   0.057  0.00  0.00    +0.000 A 
ATOM      8  C   UNL     1       0.109  -5.960   0.016  0.00  0.00    +0.000 A 
ATOM      9  N   UNL     1       1.042  -5.211   0.619  0.00  0.00    +0.000 NA
ATOM     10  N   UNL     1       0.975  -3.832   0.581  0.00  0.00    +0.000 NA
ENDROOT
BRANCH   1  16
ATOM     11  C   UNL     1       2.558   1.088   0.046  0.00  0.00    +0.000 C 
ATOM     12  C   UNL     1       1.235   0.380   0.017  0.00  0.00    +0.000 A 
ATOM     13  C   UNL     1       0.035   1.097   0.021  0.00  0.00    +0.000 A 
ATOM     14  C   UNL     1      -1.192   0.428   0.006  0.00  0.00    +0.000 A 
ATOM     15  C   UNL     1      -1.208  -0.975  -0.019  0.00  0.00    +0.000 A 
ATOM     16  C   UNL     1      -0.021  -1.731  -0.032  0.00  0.00    +0.000 A 
ATOM     17  C   UNL     1       1.195  -1.022  -0.006  0.00  0.00    +0.000 A 
ATOM     18  C   UNL     1      -2.486   1.188   0.025  0.00  0.00    +0.000 C 
ENDBRANCH   1  16
TORSDOF 1
