MODEL 1
REMARK VINA RESULT:      -4.8      0.000      0.000
REMARK  Name = *****
REMARK  3 active torsions:
REMARK  status: ('A' for Active; 'I' for Inactive)
REMARK    1  A    between atoms: C_1  and  C_2
REMARK    2  A    between atoms: C_5  and  S_8
REMARK    3  A    between atoms: S_8  and  N_10
REMARK                            x       y       z     vdW  Elec       q    Type
REMARK                         _______ _______ _______ _____ _____    ______ ____
ROOT
ATOM      1  S   UNL     1      89.236  70.505  86.985  0.00  0.00    +0.000 S 
ATOM      2  O   UNL     1      90.162  70.769  85.829  0.00  0.00    +0.000 OA
ENDROOT
BRANCH   1   3
ATOM      3  N   UNL     1      87.680  70.900  86.629  0.00  0.00    +0.000 N 
ATOM      4  C   UNL     1      87.202  71.008  85.348  0.00  0.00    +0.000 A 
ATOM      5  C   UNL     1      85.900  71.445  85.423  0.00  0.00    +0.000 A 
ATOM      6  C   UNL     1      85.595  71.658  86.797  0.00  0.00    +0.000 A 
ATOM      7  C   UNL     1      84.447  72.125  87.469  0.00  0.00    +0.000 A 
ATOM      8  C   UNL     1      84.468  72.257  88.861  0.00  0.00    +0.000 A 
ATOM      9  C   UNL     1      85.611  71.935  89.584  0.00  0.00    +0.000 A 
ATOM     10  C   UNL     1      86.763  71.471  88.943  0.00  0.00    +0.000 A 
ATOM     11  C   UNL     1      86.735  71.326  87.543  0.00  0.00    +0.000 A 
ENDBRANCH   1   3
BRANCH   1  16
ATOM     12  C   UNL     1      88.352  64.441  87.032  0.00  0.00    +0.000 C 
ATOM     13  C   UNL     1      88.541  65.930  86.983  0.00  0.00    +0.000 A 
ATOM     14  C   UNL     1      87.634  66.790  87.612  0.00  0.00    +0.000 A 
ATOM     15  C   UNL     1      87.839  68.172  87.594  0.00  0.00    +0.000 A 
ATOM     16  C   UNL     1      88.950  68.713  86.938  0.00  0.00    +0.000 A 
ATOM     17  C   UNL     1      89.867  67.854  86.324  0.00  0.00    +0.000 A 
ATOM     18  C   UNL     1      89.662  66.472  86.343  0.00  0.00    +0.000 A 
ENDBRANCH   1  16
TORSDOF 2
ENDMDL
