MODEL 1
REMARK VINA RESULT:      -4.4      0.000      0.000
REMARK  Name = *****
REMARK  3 active torsions:
REMARK  status: ('A' for Active; 'I' for Inactive)
REMARK    1  A    between atoms: C_4  and  C_7
REMARK    2  A    between atoms: C_7  and  C_8
REMARK    3  A    between atoms: C_8  and  C_9
REMARK                            x       y       z     vdW  Elec       q    Type
REMARK                         _______ _______ _______ _____ _____    ______ ____
ROOT
ATOM      1  C   UNL     1      88.963  70.511  88.195  0.00  0.00    +0.000 C 
ENDROOT
BRANCH   1   5
ATOM      2  C   UNL     1      90.100  68.987  84.362  0.00  0.00    +0.000 A 
ATOM      3  C   UNL     1      89.724  68.101  85.370  0.00  0.00    +0.000 A 
ATOM      4  C   UNL     1      89.355  68.587  86.628  0.00  0.00    +0.000 A 
ATOM      5  C   UNL     1      89.368  69.961  86.895  0.00  0.00    +0.000 A 
ATOM      6  C   UNL     1      89.735  70.842  85.868  0.00  0.00    +0.000 A 
ATOM      7  C   UNL     1      90.104  70.358  84.610  0.00  0.00    +0.000 A 
ENDBRANCH   1   5
BRANCH   1   8
ATOM      8  C   UNL     1      87.628  70.567  88.749  0.00  0.00    +0.000 C 
BRANCH   8   9
ATOM      9  C   UNL     1      86.452  71.223  88.166  0.00  0.00    +0.000 A 
ATOM     10  C   UNL     1      85.467  71.744  89.017  0.00  0.00    +0.000 A 
ATOM     11  C   UNL     1      84.347  72.394  88.496  0.00  0.00    +0.000 A 
ATOM     12  C   UNL     1      84.203  72.541  87.119  0.00  0.00    +0.000 A 
ATOM     13  C   UNL     1      85.182  72.042  86.262  0.00  0.00    +0.000 A 
ATOM     14  C   UNL     1      86.303  71.390  86.784  0.00  0.00    +0.000 A 
ENDBRANCH   8   9
ENDBRANCH   1   8
TORSDOF 3
ENDMDL
