REMARK  Name = *****
REMARK  4 active torsions:
REMARK  status: ('A' for Active; 'I' for Inactive)
REMARK    1  A    between atoms: C_6  and  C_7
REMARK    2  A    between atoms: C_7  and  C_8
REMARK    3  A    between atoms: C_8  and  C_9
REMARK    4  A    between atoms: C_9  and  C_11
REMARK                            x       y       z     vdW  Elec       q    Type
REMARK                         _______ _______ _______ _____ _____    ______ ____
ROOT
ATOM      1  C   UNL     1       4.466   1.438   0.050  0.00  0.00    +0.000 C 
ENDROOT
BRANCH   1   2
ATOM      2  C   UNL     1       5.984   1.446   0.074  0.00  0.00    +0.000 C 
ATOM      3  O   UNL     1       6.643   0.410   0.122  0.00  0.00    +0.000 OA
BRANCH   2   4
ATOM      4  C   UNL     1       6.695   2.761   0.038  0.00  0.00    +0.000 A 
ATOM      5  C   UNL     1       6.010   3.985   0.016  0.00  0.00    +0.000 A 
ATOM      6  C   UNL     1       6.725   5.187  -0.019  0.00  0.00    +0.000 A 
ATOM      7  C   UNL     1       8.115   5.164  -0.033  0.00  0.00    +0.000 A 
ATOM      8  C   UNL     1       8.809   3.962  -0.011  0.00  0.00    +0.000 A 
ATOM      9  C   UNL     1       8.100   2.759   0.024  0.00  0.00    +0.000 A 
ATOM     10  F   UNL     1       8.792   6.318  -0.068  0.00  0.00    +0.000 F 
ENDBRANCH   2   4
ENDBRANCH   1   2
BRANCH   1  11
ATOM     11  C   UNL     1       3.909   0.014   0.049  0.00  0.00    +0.000 C 
BRANCH  11  17
ATOM     12  C   UNL     1       1.664   0.014   1.209  0.00  0.00    +0.000 A 
ATOM     13  C   UNL     1       0.268   0.038   1.178  0.00  0.00    +0.000 A 
ATOM     14  C   UNL     1      -0.397   0.067  -0.046  0.00  0.00    +0.000 A 
ATOM     15  C   UNL     1       0.322   0.073  -1.239  0.00  0.00    +0.000 A 
ATOM     16  C   UNL     1       1.718   0.049  -1.209  0.00  0.00    +0.000 A 
ATOM     17  C   UNL     1       2.400   0.016   0.016  0.00  0.00    +0.000 A 
ATOM     18 CL   UNL     1      -2.117   0.098  -0.084  0.00  0.00    +0.000 Cl
ENDBRANCH  11  17
ENDBRANCH   1  11
TORSDOF 4
