MODEL 1
REMARK VINA RESULT:      -4.0      0.000      0.000
REMARK  Name = *****
REMARK  2 active torsions:
REMARK  status: ('A' for Active; 'I' for Inactive)
REMARK    1  A    between atoms: C_4  and  P_7
REMARK    2  A    between atoms: P_7  and  C_8
REMARK                            x       y       z     vdW  Elec       q    Type
REMARK                         _______ _______ _______ _____ _____    ______ ____
ROOT
ATOM      1  P   UNL     1     102.122 125.993  83.815  0.00  0.00    +0.000 P 
ATOM      2  H   UNL     1     103.163 126.394  84.627  0.00  0.00    +0.000 HD
ENDROOT
BRANCH   1   6
ATOM      3  C   UNL     1     104.777 125.831  79.950  0.00  0.00    +0.000 C 
ATOM      4  C   UNL     1     104.271 124.507  80.513  0.00  0.00    +0.000 C 
ATOM      5  C   UNL     1     103.759 124.659  81.944  0.00  0.00    +0.000 C 
ATOM      6  C   UNL     1     102.682 125.749  82.046  0.00  0.00    +0.000 C 
ATOM      7  C   UNL     1     103.205 127.080  81.482  0.00  0.00    +0.000 C 
ATOM      8  C   UNL     1     103.716 126.922  80.051  0.00  0.00    +0.000 C 
ENDBRANCH   1   6
BRANCH   1   9
ATOM      9  C   UNL     1     100.893 127.316  83.598  0.00  0.00    +0.000 A 
ATOM     10  C   UNL     1     101.138 128.592  84.121  0.00  0.00    +0.000 A 
ATOM     11  C   UNL     1     100.203 129.618  83.959  0.00  0.00    +0.000 A 
ATOM     12  C   UNL     1      99.017 129.378  83.270  0.00  0.00    +0.000 A 
ATOM     13  C   UNL     1      98.765 128.115  82.740  0.00  0.00    +0.000 A 
ATOM     14  C   UNL     1      99.699 127.088  82.901  0.00  0.00    +0.000 A 
ENDBRANCH   1   9
TORSDOF 2
ENDMDL
