MODEL 1
REMARK VINA RESULT:      -4.5      0.000      0.000
REMARK  Name = *****
REMARK  3 active torsions:
REMARK  status: ('A' for Active; 'I' for Inactive)
REMARK    1  A    between atoms: C_4  and  C_7
REMARK    2  A    between atoms: C_8  and  C_9
REMARK    3  A    between atoms: C_14  and  C_15
REMARK                            x       y       z     vdW  Elec       q    Type
REMARK                         _______ _______ _______ _____ _____    ______ ____
ROOT
ATOM      1  C   UNL     1      89.710  68.996  86.665  0.00  0.00    +0.000 C 
ATOM      2  C   UNL     1      89.847  67.822  86.448  0.00  0.00    +0.000 C 
ENDROOT
BRANCH   1   6
ATOM      3  C   UNL     1      86.678  71.160  86.768  0.00  0.00    +0.000 C 
ATOM      4  C   UNL     1      87.224  70.393  87.969  0.00  0.00    +0.000 C 
ATOM      5  C   UNL     1      88.709  70.679  88.193  0.00  0.00    +0.000 C 
ATOM      6  C   UNL     1      89.562  70.441  86.939  0.00  0.00    +0.000 C 
ATOM      7  C   UNL     1      88.979  71.175  85.723  0.00  0.00    +0.000 C 
ATOM      8  C   UNL     1      87.492  70.889  85.508  0.00  0.00    +0.000 C 
ENDBRANCH   1   6
BRANCH   2   9
ATOM      9  C   UNL     1      90.030  66.424  86.190  0.00  0.00    +0.000 A 
ATOM     10  C   UNL     1      91.116  66.024  85.403  0.00  0.00    +0.000 A 
ATOM     11  C   UNL     1      91.331  64.672  85.130  0.00  0.00    +0.000 A 
ATOM     12  C   UNL     1      90.463  63.711  85.644  0.00  0.00    +0.000 A 
ATOM     13  C   UNL     1      89.377  64.102  86.431  0.00  0.00    +0.000 A 
ATOM     14  C   UNL     1      89.154  65.458  86.708  0.00  0.00    +0.000 A 
BRANCH  14  15
ATOM     15  C   UNL     1      88.028  65.821  87.520  0.00  0.00    +0.000 C 
ATOM     16  N   UNL     1      87.131  66.143  88.184  0.00  0.00    +0.000 NA
ENDBRANCH  14  15
ENDBRANCH   2   9
TORSDOF 3
ENDMDL
