MODEL 1
REMARK VINA RESULT:      -4.8      0.000      0.000
REMARK  Name = *****
REMARK  4 active torsions:
REMARK  status: ('A' for Active; 'I' for Inactive)
REMARK    1  A    between atoms: C_1  and  O_2
REMARK    2  A    between atoms: O_2  and  C_3
REMARK    3  A    between atoms: C_6  and  C_9
REMARK    4  A    between atoms: C_10  and  C_11
REMARK                            x       y       z     vdW  Elec       q    Type
REMARK                         _______ _______ _______ _____ _____    ______ ____
ROOT
ATOM      1  C   UNL     1     102.437 125.873  82.160  0.00  0.00    +0.000 C 
ATOM      2  C   UNL     1     103.201 125.950  81.057  0.00  0.00    +0.000 C 
ATOM      3  F   UNL     1     103.128 127.053  80.275  0.00  0.00    +0.000 F 
ENDROOT
BRANCH   1   7
ATOM      4  C   UNL     1      99.659 128.843  83.535  0.00  0.00    +0.000 A 
ATOM      5  C   UNL     1      99.186 127.700  82.894  0.00  0.00    +0.000 A 
ATOM      6  C   UNL     1     100.084 126.728  82.431  0.00  0.00    +0.000 A 
ATOM      7  C   UNL     1     101.465 126.891  82.591  0.00  0.00    +0.000 A 
ATOM      8  C   UNL     1     101.930 128.034  83.250  0.00  0.00    +0.000 A 
ATOM      9  C   UNL     1     101.034 129.002  83.712  0.00  0.00    +0.000 A 
BRANCH   4  11
ATOM     10  C   UNL     1      99.518 131.137  84.140  0.00  0.00    +0.000 C 
ATOM     11  O   UNL     1      98.896 129.861  84.035  0.00  0.00    +0.000 OA
ENDBRANCH   4  11
ENDBRANCH   1   7
BRANCH   2  12
ATOM     12  C   UNL     1     104.185 124.930  80.648  0.00  0.00    +0.000 A 
ATOM     13  C   UNL     1     105.108 125.132  79.610  0.00  0.00    +0.000 A 
ATOM     14  C   UNL     1     106.032 124.139  79.271  0.00  0.00    +0.000 A 
ATOM     15  C   UNL     1     106.051 122.935  79.970  0.00  0.00    +0.000 A 
ATOM     16  C   UNL     1     105.151 122.723  81.011  0.00  0.00    +0.000 A 
ATOM     17  C   UNL     1     104.228 123.716  81.350  0.00  0.00    +0.000 A 
ENDBRANCH   2  12
TORSDOF 3
ENDMDL
