REMARK  Name = *****
REMARK  3 active torsions:
REMARK  status: ('A' for Active; 'I' for Inactive)
REMARK    1  A    between atoms: N_4  and  C_7
REMARK    2  A    between atoms: C_7  and  C_9
REMARK    3  A    between atoms: C_9  and  C_10
REMARK                            x       y       z     vdW  Elec       q    Type
REMARK                         _______ _______ _______ _____ _____    ______ ____
ROOT
ATOM      1  C   UNL     1       3.519  -0.699   1.645  0.00  0.00    +0.000 C 
ENDROOT
BRANCH   1   2
ATOM      2  C   UNL     1       4.159  -1.695   0.696  0.00  0.00    +0.000 A 
ATOM      3  C   UNL     1       4.690  -1.318  -0.546  0.00  0.00    +0.000 A 
ATOM      4  C   UNL     1       5.300  -2.267  -1.368  0.00  0.00    +0.000 A 
ATOM      5  C   UNL     1       5.413  -3.592  -0.978  0.00  0.00    +0.000 A 
ATOM      6  C   UNL     1       4.910  -3.964   0.258  0.00  0.00    +0.000 A 
ATOM      7  C   UNL     1       4.295  -3.035   1.096  0.00  0.00    +0.000 A 
ATOM      8  F   UNL     1       5.017  -5.238   0.658  0.00  0.00    +0.000 F 
ATOM      9  F   UNL     1       5.789  -1.887  -2.556  0.00  0.00    +0.000 F 
ENDBRANCH   1   2
BRANCH   1  10
ATOM     10  C   UNL     1       2.694   0.415   0.977  0.00  0.00    +0.000 C 
ATOM     11  S   UNL     1       3.370   1.969   0.995  0.00  0.00    +0.000 S 
BRANCH  10  15
ATOM     12  C   UNL     1      -1.298  -0.498  -0.444  0.00  0.00    +0.000 C 
ATOM     13  C   UNL     1      -0.842   0.930  -0.182  0.00  0.00    +0.000 C 
ATOM     14  C   UNL     1       0.667   1.074  -0.357  0.00  0.00    +0.000 C 
ATOM     15  N   UNL     1       1.430   0.096   0.445  0.00  0.00    +0.000 N 
ATOM     16  C   UNL     1       0.982  -1.296   0.273  0.00  0.00    +0.000 C 
ATOM     17  C   UNL     1      -0.526  -1.458   0.448  0.00  0.00    +0.000 C 
ENDBRANCH  10  15
ENDBRANCH   1  10
TORSDOF 3
