MODEL 1
REMARK VINA RESULT:      -4.6      0.000      0.000
REMARK  Name = *****
REMARK  4 active torsions:
REMARK  status: ('A' for Active; 'I' for Inactive)
REMARK    1  A    between atoms: C_1  and  C_2
REMARK    2  A    between atoms: C_2  and  C_3
REMARK    3  A    between atoms: C_2  and  C_10
REMARK    4  A    between atoms: C_3  and  C_4
REMARK                            x       y       z     vdW  Elec       q    Type
REMARK                         _______ _______ _______ _____ _____    ______ ____
ROOT
ATOM      1  C   UNL     1      88.419  71.651  84.798  0.00  0.00    +0.000 C 
ATOM      2  C   UNL     1      87.758  70.660  85.764  0.00  0.00    +0.000 C 
ENDROOT
BRANCH   2   3
ATOM      3  C   UNL     1      86.542  71.287  86.434  0.00  0.00    +0.000 A 
ATOM      4  C   UNL     1      86.453  71.310  87.834  0.00  0.00    +0.000 A 
ATOM      5  C   UNL     1      85.352  71.886  88.470  0.00  0.00    +0.000 A 
ATOM      6  C   UNL     1      84.324  72.447  87.714  0.00  0.00    +0.000 A 
ATOM      7  C   UNL     1      84.399  72.433  86.323  0.00  0.00    +0.000 A 
ATOM      8  C   UNL     1      85.500  71.858  85.687  0.00  0.00    +0.000 A 
ENDBRANCH   2   3
BRANCH   2   9
ATOM      9  C   UNL     1      88.745  70.127  86.827  0.00  0.00    +0.000 C 
BRANCH   9  10
ATOM     10  C   UNL     1      88.870  68.621  86.839  0.00  0.00    +0.000 A 
ATOM     11  C   UNL     1      90.002  67.995  86.301  0.00  0.00    +0.000 A 
ATOM     12  C   UNL     1      90.111  66.603  86.305  0.00  0.00    +0.000 A 
ATOM     13  C   UNL     1      89.090  65.825  86.847  0.00  0.00    +0.000 A 
ATOM     14  C   UNL     1      87.960  66.437  87.385  0.00  0.00    +0.000 A 
ATOM     15  C   UNL     1      87.850  67.828  87.381  0.00  0.00    +0.000 A 
ENDBRANCH   9  10
ENDBRANCH   2   9
TORSDOF 3
ENDMDL
