MODEL 1
REMARK VINA RESULT:      -4.6      0.000      0.000
REMARK  Name = *****
REMARK  4 active torsions:
REMARK  status: ('A' for Active; 'I' for Inactive)
REMARK    1  A    between atoms: C_1  and  C_9
REMARK    2  A    between atoms: C_2  and  C_3
REMARK    3  A    between atoms: C_14  and  O_15
REMARK    4  A    between atoms: O_15  and  C_16
REMARK                            x       y       z     vdW  Elec       q    Type
REMARK                         _______ _______ _______ _____ _____    ______ ____
ROOT
ATOM      1  C   UNL     1     102.911 125.877  82.399  0.00  0.00    +0.000 C 
ATOM      2  C   UNL     1     101.582 125.949  82.212  0.00  0.00    +0.000 C 
ENDROOT
BRANCH   2   3
ATOM      3  C   UNL     1     100.753 127.063  82.693  0.00  0.00    +0.000 A 
ATOM      4  C   UNL     1      99.371 127.111  82.476  0.00  0.00    +0.000 A 
ATOM      5  C   UNL     1      98.620 128.204  82.917  0.00  0.00    +0.000 A 
ATOM      6  C   UNL     1      99.246 129.262  83.572  0.00  0.00    +0.000 A 
ATOM      7  C   UNL     1     100.623 129.233  83.780  0.00  0.00    +0.000 A 
ATOM      8  C   UNL     1     101.374 128.141  83.337  0.00  0.00    +0.000 A 
ENDBRANCH   2   3
BRANCH   1   9
ATOM      9  C   UNL     1     103.753 124.772  81.899  0.00  0.00    +0.000 A 
ATOM     10  C   UNL     1     104.176 124.761  80.560  0.00  0.00    +0.000 A 
ATOM     11  C   UNL     1     104.946 123.709  80.063  0.00  0.00    +0.000 A 
ATOM     12  C   UNL     1     105.290 122.649  80.896  0.00  0.00    +0.000 A 
ATOM     13  C   UNL     1     104.863 122.636  82.226  0.00  0.00    +0.000 A 
ATOM     14  C   UNL     1     104.092 123.688  82.737  0.00  0.00    +0.000 A 
BRANCH  14  15
ATOM     15  O   UNL     1     103.626 123.746  84.029  0.00  0.00    +0.000 OA
ATOM     16  C   UNL     1     104.586 123.836  85.072  0.00  0.00    +0.000 C 
ENDBRANCH  14  15
ENDBRANCH   1   9
TORSDOF 3
ENDMDL
