MODEL 1
REMARK VINA RESULT:      -5.1      0.000      0.000
REMARK  Name = *****
REMARK  4 active torsions:
REMARK  status: ('A' for Active; 'I' for Inactive)
REMARK    1  A    between atoms: C_1  and  C_2
REMARK    2  A    between atoms: C_5  and  C_8
REMARK    3  A    between atoms: C_9  and  C_10
REMARK    4  A    between atoms: C_15  and  C_16
REMARK                            x       y       z     vdW  Elec       q    Type
REMARK                         _______ _______ _______ _____ _____    ______ ____
ROOT
ATOM      1  C   UNL     1     102.436 126.750  82.631  0.00  0.00    +0.000 C 
ATOM      2  C   UNL     1     101.829 127.683  83.083  0.00  0.00    +0.000 C 
ENDROOT
BRANCH   1   7
ATOM      3  C   UNL     1     105.410 122.356  80.455  0.00  0.00    +0.000 C 
ATOM      4  C   UNL     1     104.658 123.518  81.032  0.00  0.00    +0.000 A 
ATOM      5  C   UNL     1     104.324 123.543  82.392  0.00  0.00    +0.000 A 
ATOM      6  C   UNL     1     103.595 124.611  82.922  0.00  0.00    +0.000 A 
ATOM      7  C   UNL     1     103.183 125.656  82.093  0.00  0.00    +0.000 A 
ATOM      8  C   UNL     1     103.499 125.630  80.733  0.00  0.00    +0.000 A 
ATOM      9  C   UNL     1     104.228 124.562  80.205  0.00  0.00    +0.000 A 
ENDBRANCH   1   7
BRANCH   2  10
ATOM     10  C   UNL     1     101.128 128.810  83.624  0.00  0.00    +0.000 A 
ATOM     11  C   UNL     1     101.855 129.781  84.324  0.00  0.00    +0.000 A 
ATOM     12  C   UNL     1     101.208 130.893  84.866  0.00  0.00    +0.000 A 
ATOM     13  C   UNL     1      99.832 131.043  84.714  0.00  0.00    +0.000 A 
ATOM     14  C   UNL     1      99.099 130.079  84.017  0.00  0.00    +0.000 A 
ATOM     15  C   UNL     1      99.741 128.959  83.469  0.00  0.00    +0.000 A 
BRANCH  15  16
ATOM     16  C   UNL     1      98.957 127.989  82.759  0.00  0.00    +0.000 C 
ATOM     17  N   UNL     1      98.318 127.193  82.206  0.00  0.00    +0.000 NA
ENDBRANCH  15  16
ENDBRANCH   2  10
TORSDOF 3
ENDMDL
