REMARK  Name = *****
REMARK  4 active torsions:
REMARK  status: ('A' for Active; 'I' for Inactive)
REMARK    1  A    between atoms: C_5  and  C_7
REMARK    2  A    between atoms: C_7  and  S_8
REMARK    3  A    between atoms: S_8  and  C_9
REMARK    4  A    between atoms: C_12  and  C_14
REMARK                            x       y       z     vdW  Elec       q    Type
REMARK                         _______ _______ _______ _____ _____    ______ ____
ROOT
ATOM      1  S   UNL     1      -1.935  -2.321  -0.863  0.00  0.00    +0.000 S 
ENDROOT
BRANCH   1   2
ATOM      2  C   UNL     1      -2.797  -3.817  -0.705  0.00  0.00    +0.000 A 
ATOM      3  N   UNL     1      -2.378  -4.869  -0.032  0.00  0.00    +0.000 NA
ATOM      4  N   UNL     1      -3.347  -5.841  -0.162  0.00  0.00    +0.000 NA
ATOM      5  C   UNL     1      -4.301  -5.320  -0.910  0.00  0.00    +0.000 A 
ATOM      6  O   UNL     1      -4.014  -4.032  -1.295  0.00  0.00    +0.000 OA
BRANCH   5   7
ATOM      7  C   UNL     1      -5.585  -5.902  -1.376  0.00  0.00    +0.000 C 
ATOM      8  F   UNL     1      -5.750  -7.195  -0.990  0.00  0.00    +0.000 F 
ATOM      9  F   UNL     1      -6.660  -5.217  -0.900  0.00  0.00    +0.000 F 
ATOM     10  F   UNL     1      -5.690  -5.890  -2.733  0.00  0.00    +0.000 F 
ENDBRANCH   5   7
ENDBRANCH   1   2
BRANCH   1  11
ATOM     11  C   UNL     1      -0.563  -2.619   0.290  0.00  0.00    +0.000 C 
BRANCH  11  16
ATOM     12  C   UNL     1       2.344  -0.271  -0.444  0.00  0.00    +0.000 A 
ATOM     13  C   UNL     1       2.110   0.779   0.439  0.00  0.00    +0.000 A 
ATOM     14  C   UNL     1       1.003   0.740   1.286  0.00  0.00    +0.000 A 
ATOM     15  C   UNL     1       0.129  -0.351   1.255  0.00  0.00    +0.000 A 
ATOM     16  C   UNL     1       0.356  -1.424   0.376  0.00  0.00    +0.000 A 
ATOM     17  C   UNL     1       1.474  -1.362  -0.478  0.00  0.00    +0.000 A 
ATOM     18 CL   UNL     1      -1.223  -0.320   2.330  0.00  0.00    +0.000 Cl
ENDBRANCH  11  16
ENDBRANCH   1  11
TORSDOF 4
