MODEL 1
REMARK VINA RESULT:      -5.0      0.000      0.000
REMARK  Name = *****
REMARK  4 active torsions:
REMARK  status: ('A' for Active; 'I' for Inactive)
REMARK    1  A    between atoms: C_1  and  O_2
REMARK    2  A    between atoms: O_2  and  C_3
REMARK    3  A    between atoms: C_6  and  C_9
REMARK    4  A    between atoms: C_10  and  C_11
REMARK                            x       y       z     vdW  Elec       q    Type
REMARK                         _______ _______ _______ _____ _____    ______ ____
ROOT
ATOM      1  C   UNL     1     101.326 127.226  82.766  0.00  0.00    +0.000 A 
ATOM      2  C   UNL     1      99.961 127.077  82.515  0.00  0.00    +0.000 A 
ATOM      3  C   UNL     1      99.054 128.048  82.928  0.00  0.00    +0.000 A 
ATOM      4  C   UNL     1      99.502 129.179  83.597  0.00  0.00    +0.000 A 
ATOM      5  C   UNL     1     100.857 129.339  83.852  0.00  0.00    +0.000 A 
ATOM      6  C   UNL     1     101.766 128.368  83.438  0.00  0.00    +0.000 A 
ATOM      7  F   UNL     1     103.070 128.540  83.697  0.00  0.00    +0.000 F 
ATOM      8  F   UNL     1     101.292 130.430  84.498  0.00  0.00    +0.000 F 
ATOM      9  F   UNL     1      98.629 130.112  83.997  0.00  0.00    +0.000 F 
ATOM     10  F   UNL     1      97.746 127.890  82.683  0.00  0.00    +0.000 F 
ATOM     11  F   UNL     1      99.506 125.990  81.872  0.00  0.00    +0.000 F 
ENDROOT
BRANCH   1  13
ATOM     12  C   UNL     1     103.037 125.372  82.023  0.00  0.00    +0.000 C 
ATOM     13  C   UNL     1     102.254 126.222  82.350  0.00  0.00    +0.000 C 
BRANCH  12  17
ATOM     14  C   UNL     1     105.865 122.399  80.974  0.00  0.00    +0.000 A 
ATOM     15  C   UNL     1     105.422 123.315  80.019  0.00  0.00    +0.000 A 
ATOM     16  C   UNL     1     104.480 124.292  80.365  0.00  0.00    +0.000 A 
ATOM     17  C   UNL     1     103.975 124.354  81.666  0.00  0.00    +0.000 A 
ATOM     18  C   UNL     1     104.404 123.430  82.618  0.00  0.00    +0.000 A 
ATOM     19  C   UNL     1     105.343 122.456  82.270  0.00  0.00    +0.000 A 
BRANCH  14  21
ATOM     20  C   UNL     1     106.679 120.257  81.596  0.00  0.00    +0.000 C 
ATOM     21  O   UNL     1     106.786 121.410  80.771  0.00  0.00    +0.000 OA
ENDBRANCH  14  21
ENDBRANCH  12  17
ENDBRANCH   1  13
TORSDOF 3
ENDMDL
