MODEL 1
REMARK VINA RESULT:      -4.7      0.000      0.000
REMARK  Name = *****
REMARK  5 active torsions:
REMARK  status: ('A' for Active; 'I' for Inactive)
REMARK    1  A    between atoms: C_1  and  C_2
REMARK    2  A    between atoms: C_5  and  O_8
REMARK    3  A    between atoms: O_8  and  C_9
REMARK    4  A    between atoms: C_9  and  C_11
REMARK    5  A    between atoms: C_15  and  C_17
REMARK                            x       y       z     vdW  Elec       q    Type
REMARK                         _______ _______ _______ _____ _____    ______ ____
ROOT
ATOM      1  C   UNL     1      87.993  70.575  88.166  0.00  0.00    +0.000 C 
ATOM      2  O   UNL     1      88.605  70.542  89.223  0.00  0.00    +0.000 OA
ENDROOT
BRANCH   1   3
ATOM      3  C   UNL     1      86.667  71.237  88.014  0.00  0.00    +0.000 A 
ATOM      4  C   UNL     1      85.867  71.592  89.109  0.00  0.00    +0.000 A 
ATOM      5  C   UNL     1      84.636  72.219  88.903  0.00  0.00    +0.000 A 
ATOM      6  C   UNL     1      84.195  72.491  87.608  0.00  0.00    +0.000 A 
ATOM      7  C   UNL     1      84.972  72.129  86.502  0.00  0.00    +0.000 A 
ATOM      8  C   UNL     1      86.213  71.513  86.714  0.00  0.00    +0.000 A 
ATOM      9  C   UNL     1      84.515  72.453  85.111  0.00  0.00    +0.000 C 
ENDBRANCH   1   3
BRANCH   1  10
ATOM     10  O   UNL     1      88.385  70.033  86.954  0.00  0.00    +0.000 OA
BRANCH  10  15
ATOM     11  C   UNL     1      89.303  64.431  86.604  0.00  0.00    +0.000 C 
ATOM     12  C   UNL     1      89.067  65.906  86.737  0.00  0.00    +0.000 A 
ATOM     13  C   UNL     1      87.851  66.383  87.246  0.00  0.00    +0.000 A 
ATOM     14  C   UNL     1      87.613  67.755  87.343  0.00  0.00    +0.000 A 
ATOM     15  C   UNL     1      88.601  68.650  86.936  0.00  0.00    +0.000 A 
ATOM     16  C   UNL     1      89.800  68.195  86.395  0.00  0.00    +0.000 A 
ATOM     17  C   UNL     1      90.033  66.823  86.298  0.00  0.00    +0.000 A 
ENDBRANCH  10  15
ENDBRANCH   1  10
TORSDOF 3
ENDMDL
