MODEL 1
REMARK VINA RESULT:      -4.7      0.000      0.000
REMARK  Name = *****
REMARK  5 active torsions:
REMARK  status: ('A' for Active; 'I' for Inactive)
REMARK    1  A    between atoms: C_1  and  C_2
REMARK    2  A    between atoms: C_5  and  O_8
REMARK    3  A    between atoms: O_8  and  C_9
REMARK    4  A    between atoms: C_9  and  C_11
REMARK    5  A    between atoms: C_16  and  C_17
REMARK                            x       y       z     vdW  Elec       q    Type
REMARK                         _______ _______ _______ _____ _____    ______ ____
ROOT
ATOM      1  C   UNL     1      88.523  70.301  86.427  0.00  0.00    +0.000 C 
ATOM      2  O   UNL     1      89.629  70.812  86.482  0.00  0.00    +0.000 OA
ENDROOT
BRANCH   1   3
ATOM      3  C   UNL     1      87.268  70.937  86.958  0.00  0.00    +0.000 A 
ATOM      4  C   UNL     1      86.306  71.455  86.069  0.00  0.00    +0.000 A 
ATOM      5  C   UNL     1      85.135  72.054  86.540  0.00  0.00    +0.000 A 
ATOM      6  C   UNL     1      84.905  72.146  87.906  0.00  0.00    +0.000 A 
ATOM      7  C   UNL     1      85.842  71.638  88.804  0.00  0.00    +0.000 A 
ATOM      8  C   UNL     1      87.028  71.031  88.351  0.00  0.00    +0.000 A 
ATOM      9  C   UNL     1      87.990  70.510  89.386  0.00  0.00    +0.000 C 
ENDBRANCH   1   3
BRANCH   1  10
ATOM     10  O   UNL     1      88.222  69.061  85.869  0.00  0.00    +0.000 OA
BRANCH  10  15
ATOM     11  C   UNL     1      88.481  63.989  88.488  0.00  0.00    +0.000 C 
ATOM     12  C   UNL     1      88.381  65.327  87.816  0.00  0.00    +0.000 A 
ATOM     13  C   UNL     1      87.311  66.188  88.089  0.00  0.00    +0.000 A 
ATOM     14  C   UNL     1      87.219  67.433  87.461  0.00  0.00    +0.000 A 
ATOM     15  C   UNL     1      88.194  67.816  86.546  0.00  0.00    +0.000 A 
ATOM     16  C   UNL     1      89.260  66.962  86.254  0.00  0.00    +0.000 A 
ATOM     17  C   UNL     1      89.350  65.720  86.885  0.00  0.00    +0.000 A 
ENDBRANCH  10  15
ENDBRANCH   1  10
TORSDOF 3
ENDMDL
