MODEL 1
REMARK VINA RESULT:      -4.6      0.000      0.000
REMARK  Name = *****
REMARK  6 active torsions:
REMARK  status: ('A' for Active; 'I' for Inactive)
REMARK    1  A    between atoms: C_1  and  C_2
REMARK    2  A    between atoms: C_4  and  C_9
REMARK    3  A    between atoms: C_5  and  C_8
REMARK    4  A    between atoms: C_9  and  C_10
REMARK    5  A    between atoms: C_10  and  C_11
REMARK    6  A    between atoms: C_11  and  C_13
REMARK                            x       y       z     vdW  Elec       q    Type
REMARK                         _______ _______ _______ _____ _____    ______ ____
ROOT
ATOM      1  C   UNL     1      88.157  69.908  83.611  0.00  0.00    +0.000 C 
ENDROOT
BRANCH   1   2
ATOM      2  C   UNL     1      88.949  68.614  83.580  0.00  0.00    +0.000 C 
ATOM      3  O   UNL     1      89.638  68.288  82.616  0.00  0.00    +0.000 OA
BRANCH   2   4
ATOM      4  C   UNL     1      88.886  67.708  84.770  0.00  0.00    +0.000 A 
ATOM      5  C   UNL     1      90.089  67.183  85.273  0.00  0.00    +0.000 A 
ATOM      6  C   UNL     1      90.081  66.332  86.380  0.00  0.00    +0.000 A 
ATOM      7  C   UNL     1      88.874  66.006  86.982  0.00  0.00    +0.000 A 
ATOM      8  C   UNL     1      87.673  66.516  86.499  0.00  0.00    +0.000 A 
ATOM      9  C   UNL     1      87.676  67.369  85.392  0.00  0.00    +0.000 A 
ATOM     10  F   UNL     1      88.864  65.189  88.043  0.00  0.00    +0.000 F 
ENDBRANCH   2   4
ENDBRANCH   1   2
BRANCH   1  11
ATOM     11  C   UNL     1      88.708  70.886  84.650  0.00  0.00    +0.000 C 
BRANCH  11  15
ATOM     12  C   UNL     1      84.204  72.476  86.203  0.00  0.00    +0.000 C 
ATOM     13  C   UNL     1      85.520  71.827  86.516  0.00  0.00    +0.000 A 
ATOM     14  C   UNL     1      86.479  71.648  85.513  0.00  0.00    +0.000 A 
ATOM     15  C   UNL     1      87.735  71.077  85.794  0.00  0.00    +0.000 A 
ATOM     16  C   UNL     1      88.030  70.677  87.111  0.00  0.00    +0.000 A 
ATOM     17  C   UNL     1      87.071  70.881  88.117  0.00  0.00    +0.000 A 
ATOM     18  C   UNL     1      85.832  71.452  87.824  0.00  0.00    +0.000 A 
ATOM     19  C   UNL     1      89.357  70.075  87.486  0.00  0.00    +0.000 C 
ENDBRANCH  11  15
ENDBRANCH   1  11
TORSDOF 4
ENDMDL
