MODEL 1
REMARK VINA RESULT:      -4.5      0.000      0.000
REMARK  Name = *****
REMARK  3 active torsions:
REMARK  status: ('A' for Active; 'I' for Inactive)
REMARK    1  A    between atoms: C_4  and  S_7
REMARK    2  A    between atoms: S_7  and  C_8
REMARK    3  A    between atoms: C_8  and  C_10
REMARK                            x       y       z     vdW  Elec       q    Type
REMARK                         _______ _______ _______ _____ _____    ______ ____
ROOT
ATOM      1  C   UNL     1     103.440 126.833  81.422  0.00  0.00    +0.000 C 
ATOM      2  O   UNL     1     103.293 127.380  80.335  0.00  0.00    +0.000 OA
ENDROOT
BRANCH   1   3
ATOM      3  C   UNL     1     103.887 125.407  81.485  0.00  0.00    +0.000 A 
ATOM      4  C   UNL     1     104.376 124.692  80.380  0.00  0.00    +0.000 A 
ATOM      5  C   UNL     1     104.777 123.357  80.521  0.00  0.00    +0.000 A 
ATOM      6  C   UNL     1     104.690 122.730  81.762  0.00  0.00    +0.000 A 
ATOM      7  C   UNL     1     104.202 123.422  82.865  0.00  0.00    +0.000 A 
ATOM      8  C   UNL     1     103.799 124.754  82.727  0.00  0.00    +0.000 A 
ATOM      9 CL   UNL     1     105.187 121.092  81.928  0.00  0.00    +0.000 Cl
ENDBRANCH   1   3
BRANCH   1  10
ATOM     10  S   UNL     1     103.122 127.665  82.941  0.00  0.00    +0.000 S 
BRANCH  10  14
ATOM     11  C   UNL     1      98.542 127.875  82.957  0.00  0.00    +0.000 A 
ATOM     12  C   UNL     1      99.280 128.911  83.526  0.00  0.00    +0.000 A 
ATOM     13  C   UNL     1     100.676 128.852  83.537  0.00  0.00    +0.000 A 
ATOM     14  C   UNL     1     101.343 127.750  82.989  0.00  0.00    +0.000 A 
ATOM     15  C   UNL     1     100.595 126.721  82.409  0.00  0.00    +0.000 A 
ATOM     16  C   UNL     1      99.199 126.781  82.397  0.00  0.00    +0.000 A 
ENDBRANCH  10  14
ENDBRANCH   1  10
TORSDOF 3
ENDMDL
