MODEL 1
REMARK VINA RESULT:      -4.8      0.000      0.000
REMARK  Name = *****
REMARK  4 active torsions:
REMARK  status: ('A' for Active; 'I' for Inactive)
REMARK    1  A    between atoms: C_1  and  C_2
REMARK    2  A    between atoms: C_5  and  S_8
REMARK    3  A    between atoms: S_8  and  C_10
REMARK    4  A    between atoms: C_10  and  C_12
REMARK                            x       y       z     vdW  Elec       q    Type
REMARK                         _______ _______ _______ _____ _____    ______ ____
ROOT
ATOM      1  S   UNL     1      89.046  70.498  86.735  0.00  0.00    +0.000 S 
ATOM      2  O   UNL     1      90.112  70.794  85.720  0.00  0.00    +0.000 OA
ENDROOT
BRANCH   1   7
ATOM      3  C   UNL     1      88.811  64.393  87.063  0.00  0.00    +0.000 C 
ATOM      4  C   UNL     1      88.851  65.889  86.958  0.00  0.00    +0.000 A 
ATOM      5  C   UNL     1      89.949  66.528  86.369  0.00  0.00    +0.000 A 
ATOM      6  C   UNL     1      90.001  67.922  86.296  0.00  0.00    +0.000 A 
ATOM      7  C   UNL     1      88.962  68.693  86.827  0.00  0.00    +0.000 A 
ATOM      8  C   UNL     1      87.868  68.058  87.422  0.00  0.00    +0.000 A 
ATOM      9  C   UNL     1      87.816  66.664  87.495  0.00  0.00    +0.000 A 
ENDBRANCH   1   7
BRANCH   1  10
ATOM     10  C   UNL     1      87.464  70.821  85.948  0.00  0.00    +0.000 C 
ATOM     11  C   UNL     1      87.305  70.476  84.660  0.00  0.00    +0.000 C 
BRANCH  10  12
ATOM     12  C   UNL     1      86.338  71.383  86.711  0.00  0.00    +0.000 A 
ATOM     13  C   UNL     1      85.248  71.973  86.059  0.00  0.00    +0.000 A 
ATOM     14  C   UNL     1      84.192  72.519  86.793  0.00  0.00    +0.000 A 
ATOM     15  C   UNL     1      84.217  72.483  88.186  0.00  0.00    +0.000 A 
ATOM     16  C   UNL     1      85.297  71.899  88.846  0.00  0.00    +0.000 A 
ATOM     17  C   UNL     1      86.352  71.352  88.113  0.00  0.00    +0.000 A 
ENDBRANCH  10  12
ENDBRANCH   1  10
TORSDOF 3
ENDMDL
