REMARK  Name = *****
REMARK  6 active torsions:
REMARK  status: ('A' for Active; 'I' for Inactive)
REMARK    1  A    between atoms: C_1  and  C_2
REMARK    2  A    between atoms: C_4  and  C_8
REMARK    3  A    between atoms: C_8  and  C_9
REMARK    4  A    between atoms: C_8  and  C_10
REMARK    5  A    between atoms: C_8  and  C_17
REMARK    6  A    between atoms: C_10  and  C_11
REMARK                            x       y       z     vdW  Elec       q    Type
REMARK                         _______ _______ _______ _____ _____    ______ ____
ROOT
ATOM      1  C   UNL     1      -1.762   2.418   0.126  0.00  0.00    +0.000 C 
ATOM      2  C   UNL     1      -2.430   2.735  -1.231  0.00  0.00    +0.000 C 
ENDROOT
BRANCH   1   6
ATOM      3  C   UNL     1       1.351  -0.793   2.503  0.00  0.00    +0.000 C 
ATOM      4  C   UNL     1       0.406  -0.516   1.371  0.00  0.00    +0.000 A 
ATOM      5  C   UNL     1      -0.217   0.735   1.259  0.00  0.00    +0.000 A 
ATOM      6  C   UNL     1      -1.088   1.037   0.190  0.00  0.00    +0.000 A 
ATOM      7  C   UNL     1      -1.316   0.036  -0.767  0.00  0.00    +0.000 A 
ATOM      8  C   UNL     1      -0.687  -1.207  -0.671  0.00  0.00    +0.000 A 
ATOM      9  C   UNL     1       0.176  -1.480   0.388  0.00  0.00    +0.000 A 
ENDBRANCH   1   6
BRANCH   1  10
ATOM     10  C   UNL     1      -0.666   3.488   0.251  0.00  0.00    +0.000 C 
ATOM     11  O   UNL     1      -0.601   4.330   1.143  0.00  0.00    +0.000 OA
ENDBRANCH   1  10
BRANCH   1  12
ATOM     12  C   UNL     1      -2.782   2.614   1.288  0.00  0.00    +0.000 C 
BRANCH  12  13
ATOM     13  C   UNL     1      -4.016   1.735   1.249  0.00  0.00    +0.000 A 
ATOM     14  C   UNL     1      -3.983   0.429   1.758  0.00  0.00    +0.000 A 
ATOM     15  C   UNL     1      -5.120  -0.379   1.713  0.00  0.00    +0.000 A 
ATOM     16  C   UNL     1      -6.304   0.110   1.164  0.00  0.00    +0.000 A 
ATOM     17  C   UNL     1      -6.351   1.408   0.661  0.00  0.00    +0.000 A 
ATOM     18  C   UNL     1      -5.215   2.218   0.705  0.00  0.00    +0.000 A 
ENDBRANCH  12  13
ENDBRANCH   1  12
TORSDOF 4
