MODEL 1
REMARK VINA RESULT:      -5.0      0.000      0.000
REMARK  Name = *****
REMARK  4 active torsions:
REMARK  status: ('A' for Active; 'I' for Inactive)
REMARK    1  A    between atoms: C_1  and  C_2
REMARK    2  A    between atoms: C_7  and  C_8
REMARK    3  A    between atoms: C_8  and  C_9
REMARK    4  A    between atoms: C_9  and  C_10
REMARK                            x       y       z     vdW  Elec       q    Type
REMARK                         _______ _______ _______ _____ _____    ______ ____
ROOT
ATOM      1  C   UNL     1      88.770  70.266  86.930  0.00  0.00    +0.000 C 
ATOM      2  F   UNL     1      89.984  70.855  86.685  0.00  0.00    +0.000 F 
ENDROOT
BRANCH   1   3
ATOM      3  C   UNL     1      88.870  68.753  86.888  0.00  0.00    +0.000 A 
ATOM      4  C   UNL     1      89.994  68.136  86.314  0.00  0.00    +0.000 A 
ATOM      5  C   UNL     1      90.097  66.745  86.269  0.00  0.00    +0.000 A 
ATOM      6  C   UNL     1      89.075  65.966  86.798  0.00  0.00    +0.000 A 
ATOM      7  C   UNL     1      87.955  66.554  87.375  0.00  0.00    +0.000 A 
ATOM      8  C   UNL     1      87.853  67.945  87.426  0.00  0.00    +0.000 A 
ATOM      9  F   UNL     1      89.170  64.631  86.752  0.00  0.00    +0.000 F 
ENDBRANCH   1   3
BRANCH   1  10
ATOM     10  C   UNL     1      87.767  70.801  85.896  0.00  0.00    +0.000 C 
BRANCH  10  17
ATOM     11  C   UNL     1      85.535  72.076  84.291  0.00  0.00    +0.000 C 
ATOM     12  C   UNL     1      85.477  71.958  85.790  0.00  0.00    +0.000 A 
ATOM     13  C   UNL     1      84.354  72.467  86.463  0.00  0.00    +0.000 A 
ATOM     14  C   UNL     1      84.254  72.392  87.853  0.00  0.00    +0.000 A 
ATOM     15  C   UNL     1      85.277  71.808  88.590  0.00  0.00    +0.000 A 
ATOM     16  C   UNL     1      86.400  71.303  87.938  0.00  0.00    +0.000 A 
ATOM     17  C   UNL     1      86.520  71.377  86.538  0.00  0.00    +0.000 A 
ENDBRANCH  10  17
ENDBRANCH   1  10
TORSDOF 3
ENDMDL
