MODEL 1
REMARK VINA RESULT:      -4.7      0.000      0.000
REMARK  Name = *****
REMARK  4 active torsions:
REMARK  status: ('A' for Active; 'I' for Inactive)
REMARK    1  A    between atoms: C_1  and  C_2
REMARK    2  A    between atoms: C_4  and  C_8
REMARK    3  A    between atoms: C_8  and  O_10
REMARK    4  A    between atoms: O_10  and  C_11
REMARK                            x       y       z     vdW  Elec       q    Type
REMARK                         _______ _______ _______ _____ _____    ______ ____
ROOT
ATOM      1  C   UNL     1      88.169  70.522  88.019  0.00  0.00    +0.000 C 
ATOM      2  O   UNL     1      88.783  70.495  89.075  0.00  0.00    +0.000 OA
ENDROOT
BRANCH   1   6
ATOM      3  C   UNL     1      84.438  72.429  85.183  0.00  0.00    +0.000 C 
ATOM      4  C   UNL     1      85.019  72.086  86.523  0.00  0.00    +0.000 A 
ATOM      5  C   UNL     1      86.279  71.474  86.614  0.00  0.00    +0.000 A 
ATOM      6  C   UNL     1      86.840  71.178  87.866  0.00  0.00    +0.000 A 
ATOM      7  C   UNL     1      86.135  71.511  89.030  0.00  0.00    +0.000 A 
ATOM      8  C   UNL     1      84.889  72.134  88.945  0.00  0.00    +0.000 A 
ATOM      9  C   UNL     1      84.337  72.424  87.698  0.00  0.00    +0.000 A 
ENDBRANCH   1   6
BRANCH   1  10
ATOM     10  O   UNL     1      88.563  69.975  86.812  0.00  0.00    +0.000 OA
BRANCH  10  11
ATOM     11  C   UNL     1      88.774  68.592  86.829  0.00  0.00    +0.000 A 
ATOM     12  C   UNL     1      89.941  68.039  86.304  0.00  0.00    +0.000 A 
ATOM     13  C   UNL     1      90.090  66.651  86.287  0.00  0.00    +0.000 A 
ATOM     14  C   UNL     1      89.068  65.838  86.777  0.00  0.00    +0.000 A 
ATOM     15  C   UNL     1      87.892  66.398  87.281  0.00  0.00    +0.000 A 
ATOM     16  C   UNL     1      87.739  67.785  87.301  0.00  0.00    +0.000 A 
ATOM     17 CL   UNL     1      89.252  64.127  86.751  0.00  0.00    +0.000 Cl
ENDBRANCH  10  11
ENDBRANCH   1  10
TORSDOF 3
ENDMDL
