REMARK  Name = *****
REMARK  4 active torsions:
REMARK  status: ('A' for Active; 'I' for Inactive)
REMARK    1  A    between atoms: C_1  and  C_2
REMARK    2  A    between atoms: C_5  and  C_8
REMARK    3  A    between atoms: C_8  and  C_10
REMARK    4  A    between atoms: C_10  and  C_11
REMARK                            x       y       z     vdW  Elec       q    Type
REMARK                         _______ _______ _______ _____ _____    ______ ____
ROOT
ATOM      1  C   UNL     1      -3.234   0.047   0.114  0.00  0.00    +0.000 C 
ATOM      2  O   UNL     1      -3.937  -0.970   0.131  0.00  0.00    +0.000 OA
ENDROOT
BRANCH   1   7
ATOM      3  C   UNL     1       2.320  -0.792   1.603  0.00  0.00    +0.000 C 
ATOM      4  C   UNL     1       0.880  -0.567   1.248  0.00  0.00    +0.000 A 
ATOM      5  C   UNL     1       0.138  -1.574   0.622  0.00  0.00    +0.000 A 
ATOM      6  C   UNL     1      -1.194  -1.350   0.266  0.00  0.00    +0.000 A 
ATOM      7  C   UNL     1      -1.800  -0.110   0.511  0.00  0.00    +0.000 A 
ATOM      8  C   UNL     1      -1.061   0.898   1.137  0.00  0.00    +0.000 A 
ATOM      9  C   UNL     1       0.274   0.671   1.493  0.00  0.00    +0.000 A 
ENDBRANCH   1   7
BRANCH   1  10
ATOM     10  C   UNL     1      -3.837   1.396  -0.257  0.00  0.00    +0.000 C 
ATOM     11 CL   UNL     1      -2.701   2.353  -1.260  0.00  0.00    +0.000 Cl
BRANCH  10  12
ATOM     12  C   UNL     1      -4.430   2.218   0.876  0.00  0.00    +0.000 A 
ATOM     13  C   UNL     1      -4.387   1.812   2.220  0.00  0.00    +0.000 A 
ATOM     14  C   UNL     1      -4.987   2.581   3.222  0.00  0.00    +0.000 A 
ATOM     15  C   UNL     1      -5.652   3.760   2.900  0.00  0.00    +0.000 A 
ATOM     16  C   UNL     1      -5.721   4.174   1.574  0.00  0.00    +0.000 A 
ATOM     17  C   UNL     1      -5.120   3.409   0.573  0.00  0.00    +0.000 A 
ENDBRANCH  10  12
ENDBRANCH   1  10
TORSDOF 3
