MODEL 1
REMARK VINA RESULT:      -4.8      0.000      0.000
REMARK  Name = *****
REMARK  4 active torsions:
REMARK  status: ('A' for Active; 'I' for Inactive)
REMARK    1  A    between atoms: C_1  and  C_2
REMARK    2  A    between atoms: C_2  and  C_3
REMARK    3  A    between atoms: C_2  and  C_10
REMARK    4  A    between atoms: C_3  and  C_4
REMARK                            x       y       z     vdW  Elec       q    Type
REMARK                         _______ _______ _______ _____ _____    ______ ____
ROOT
ATOM      1  C   UNL     1     103.586 127.457  80.161  0.00  0.00    +0.000 C 
ATOM      2  C   UNL     1     102.821 126.604  81.183  0.00  0.00    +0.000 C 
ENDROOT
BRANCH   2   3
ATOM      3  C   UNL     1     103.535 125.280  81.424  0.00  0.00    +0.000 A 
ATOM      4  C   UNL     1     103.578 124.738  82.717  0.00  0.00    +0.000 A 
ATOM      5  C   UNL     1     104.233 123.530  82.962  0.00  0.00    +0.000 A 
ATOM      6  C   UNL     1     104.856 122.848  81.918  0.00  0.00    +0.000 A 
ATOM      7  C   UNL     1     104.823 123.374  80.629  0.00  0.00    +0.000 A 
ATOM      8  C   UNL     1     104.168 124.583  80.383  0.00  0.00    +0.000 A 
ENDBRANCH   2   3
BRANCH   2   9
ATOM      9  C   UNL     1     102.595 127.347  82.518  0.00  0.00    +0.000 C 
BRANCH   9  10
ATOM     10  C   UNL     1     101.137 127.596  82.834  0.00  0.00    +0.000 A 
ATOM     11  C   UNL     1     100.154 126.698  82.399  0.00  0.00    +0.000 A 
ATOM     12  C   UNL     1      98.807 126.931  82.683  0.00  0.00    +0.000 A 
ATOM     13  C   UNL     1      98.431 128.063  83.405  0.00  0.00    +0.000 A 
ATOM     14  C   UNL     1      99.402 128.961  83.843  0.00  0.00    +0.000 A 
ATOM     15  C   UNL     1     100.749 128.729  83.560  0.00  0.00    +0.000 A 
ENDBRANCH   9  10
ENDBRANCH   2   9
TORSDOF 3
ENDMDL
