MODEL 1
REMARK VINA RESULT:      -4.8      0.000      0.000
REMARK  Name = *****
REMARK  4 active torsions:
REMARK  status: ('A' for Active; 'I' for Inactive)
REMARK    1  A    between atoms: C_1  and  C_2
REMARK    2  A    between atoms: C_5  and  C_8
REMARK    3  A    between atoms: C_8  and  C_17
REMARK    4  A    between atoms: C_10  and  C_11
REMARK                            x       y       z     vdW  Elec       q    Type
REMARK                         _______ _______ _______ _____ _____    ______ ____
ROOT
ATOM      1  C   UNL     1      96.713 116.985  79.536  0.00  0.00    +0.000 C 
ATOM      2  C   UNL     1      97.615 116.687  78.355  0.00  0.00    +0.000 C 
ATOM      3  C   UNL     1      97.103 115.540  79.187  0.00  0.00    +0.000 C 
ATOM      4  C   UNL     1      95.329 117.505  79.217  0.00  0.00    +0.000 C 
ENDROOT
BRANCH   1   9
ATOM      5  C   UNL     1      99.148 119.279  84.353  0.00  0.00    +0.000 C 
ATOM      6  C   UNL     1      98.499 118.709  83.127  0.00  0.00    +0.000 A 
ATOM      7  C   UNL     1      97.708 117.560  83.209  0.00  0.00    +0.000 A 
ATOM      8  C   UNL     1      97.132 117.014  82.057  0.00  0.00    +0.000 A 
ATOM      9  C   UNL     1      97.330 117.591  80.792  0.00  0.00    +0.000 A 
ATOM     10  C   UNL     1      98.147 118.731  80.727  0.00  0.00    +0.000 A 
ATOM     11  C   UNL     1      98.726 119.282  81.874  0.00  0.00    +0.000 A 
ENDBRANCH   1   9
BRANCH   3  12
ATOM     12  C   UNL     1      96.094 114.560  78.631  0.00  0.00    +0.000 A 
ATOM     13  C   UNL     1      95.909 114.394  77.248  0.00  0.00    +0.000 A 
ATOM     14  C   UNL     1      94.990 113.471  76.740  0.00  0.00    +0.000 A 
ATOM     15  C   UNL     1      94.240 112.686  77.610  0.00  0.00    +0.000 A 
ATOM     16  C   UNL     1      94.414 112.818  78.984  0.00  0.00    +0.000 A 
ATOM     17  C   UNL     1      95.335 113.741  79.484  0.00  0.00    +0.000 A 
ENDBRANCH   3  12
TORSDOF 2
ENDMDL
