MODEL 1
REMARK VINA RESULT:      -4.7      0.000      0.000
REMARK  Name = *****
REMARK  3 active torsions:
REMARK  status: ('A' for Active; 'I' for Inactive)
REMARK    1  A    between atoms: C_1  and  N_2
REMARK    2  A    between atoms: C_3  and  C_9
REMARK    3  A    between atoms: C_10  and  C_11
REMARK                            x       y       z     vdW  Elec       q    Type
REMARK                         _______ _______ _______ _____ _____    ______ ____
ROOT
ATOM      1  C   UNL     1     100.619 127.094  82.710  0.00  0.00    +0.000 C 
ATOM      2  C   UNL     1     101.920 127.427  82.693  0.00  0.00    +0.000 C 
ATOM      3 CL   UNL     1     102.590 128.631  83.739  0.00  0.00    +0.000 Cl
ENDROOT
BRANCH   1   6
ATOM      4  C   UNL     1      99.761 126.041  85.351  0.00  0.00    +0.000 C 
ATOM      5  N   UNL     1      99.266 127.334  84.770  0.00  0.00    +0.000 NA
ATOM      6  C   UNL     1      99.625 127.763  83.595  0.00  0.00    +0.000 C 
ATOM      7  C   UNL     1      98.982 129.029  83.055  0.00  0.00    +0.000 C 
ATOM      8  C   UNL     1      99.470 130.282  83.774  0.00  0.00    +0.000 C 
ATOM      9  C   UNL     1      98.760 130.528  85.102  0.00  0.00    +0.000 C 
ATOM     10  C   UNL     1      98.927 129.402  86.119  0.00  0.00    +0.000 C 
ATOM     11  C   UNL     1      98.314 128.083  85.667  0.00  0.00    +0.000 C 
ENDBRANCH   1   6
BRANCH   2  12
ATOM     12  C   UNL     1     102.857 126.772  81.768  0.00  0.00    +0.000 A 
ATOM     13  C   UNL     1     103.634 127.531  80.878  0.00  0.00    +0.000 A 
ATOM     14  C   UNL     1     104.519 126.904  79.995  0.00  0.00    +0.000 A 
ATOM     15  C   UNL     1     104.634 125.517  79.996  0.00  0.00    +0.000 A 
ATOM     16  C   UNL     1     103.875 124.749  80.875  0.00  0.00    +0.000 A 
ATOM     17  C   UNL     1     102.990 125.374  81.758  0.00  0.00    +0.000 A 
ATOM     18 CL   UNL     1     105.721 124.748  78.908  0.00  0.00    +0.000 Cl
ENDBRANCH   2  12
TORSDOF 2
ENDMDL
