MODEL 1
REMARK VINA RESULT:      -4.8      0.000      0.000
REMARK  Name = *****
REMARK  4 active torsions:
REMARK  status: ('A' for Active; 'I' for Inactive)
REMARK    1  A    between atoms: C_6  and  C_7
REMARK    2  A    between atoms: C_7  and  C_8
REMARK    3  A    between atoms: C_8  and  C_9
REMARK    4  A    between atoms: C_8  and  C_11
REMARK                            x       y       z     vdW  Elec       q    Type
REMARK                         _______ _______ _______ _____ _____    ______ ____
ROOT
ATOM      1  C   UNL     1      89.855  66.696  86.502  0.00  0.00    +0.000 C 
ENDROOT
BRANCH   1   2
ATOM      2  C   UNL     1      89.803  68.153  86.052  0.00  0.00    +0.000 A 
ATOM      3  C   UNL     1      89.966  68.472  84.692  0.00  0.00    +0.000 A 
ATOM      4  C   UNL     1      89.928  69.801  84.265  0.00  0.00    +0.000 A 
ATOM      5  C   UNL     1      89.727  70.815  85.193  0.00  0.00    +0.000 A 
ATOM      6  C   UNL     1      89.563  70.526  86.541  0.00  0.00    +0.000 A 
ATOM      7  C   UNL     1      89.601  69.198  86.972  0.00  0.00    +0.000 A 
ATOM      8  F   UNL     1      89.691  72.089  84.780  0.00  0.00    +0.000 F 
ENDBRANCH   1   2
BRANCH   1   9
ATOM      9  C   UNL     1      90.804  65.912  85.680  0.00  0.00    +0.000 C 
ATOM     10  N   UNL     1      91.552  65.285  85.051  0.00  0.00    +0.000 NA
ENDBRANCH   1   9
BRANCH   1  11
ATOM     11  C   UNL     1      88.445  66.067  86.469  0.00  0.00    +0.000 C 
BRANCH  11  17
ATOM     12  C   UNL     1      88.719  64.268  88.231  0.00  0.00    +0.000 A 
ATOM     13  C   UNL     1      88.366  63.681  89.447  0.00  0.00    +0.000 A 
ATOM     14  C   UNL     1      87.347  64.241  90.209  0.00  0.00    +0.000 A 
ATOM     15  C   UNL     1      86.676  65.379  89.778  0.00  0.00    +0.000 A 
ATOM     16  C   UNL     1      87.028  65.969  88.563  0.00  0.00    +0.000 A 
ATOM     17  C   UNL     1      88.051  65.416  87.778  0.00  0.00    +0.000 A 
ATOM     18  F   UNL     1      87.008  63.678  91.375  0.00  0.00    +0.000 F 
ENDBRANCH  11  17
ENDBRANCH   1  11
TORSDOF 4
ENDMDL
