MODEL 1
REMARK VINA RESULT:      -3.8      0.000      0.000
REMARK  Name = *****
REMARK  3 active torsions:
REMARK  status: ('A' for Active; 'I' for Inactive)
REMARK    1  A    between atoms: C_8  and  C_9
REMARK    2  A    between atoms: C_9  and  S_11
REMARK    3  A    between atoms: S_11  and  C_12
REMARK                            x       y       z     vdW  Elec       q    Type
REMARK                         _______ _______ _______ _____ _____    ______ ____
ROOT
ATOM      1  C   UNL     1      96.290 115.302  76.903  0.00  0.00    +0.000 C 
ATOM      2  C   UNL     1      95.862 114.351  78.046  0.00  0.00    +0.000 C 
ATOM      3  C   UNL     1      96.005 115.068  79.411  0.00  0.00    +0.000 C 
ATOM      4  C   UNL     1      97.435 115.561  79.506  0.00  0.00    +0.000 C 
ATOM      5  C   UNL     1      97.800 116.393  78.517  0.00  0.00    +0.000 C 
ATOM      6  C   UNL     1      96.720 116.664  77.489  0.00  0.00    +0.000 C 
ATOM      7  C   UNL     1      95.508 117.261  78.238  0.00  0.00    +0.000 C 
ATOM      8  C   UNL     1      95.066 116.309  79.394  0.00  0.00    +0.000 C 
ENDROOT
BRANCH   8   9
ATOM      9  C   UNL     1      95.030 117.019  80.748  0.00  0.00    +0.000 C 
ATOM     10  O   UNL     1      95.100 116.456  81.833  0.00  0.00    +0.000 OA
BRANCH   9  11
ATOM     11  S   UNL     1      95.031 118.788  80.654  0.00  0.00    +0.000 S 
BRANCH  11  12
ATOM     12  C   UNL     1      96.549 119.077  81.492  0.00  0.00    +0.000 A 
ATOM     13  C   UNL     1      97.819 119.042  80.954  0.00  0.00    +0.000 A 
ATOM     14  C   UNL     1      98.826 119.333  81.921  0.00  0.00    +0.000 A 
ATOM     15  C   UNL     1      98.288 119.595  83.161  0.00  0.00    +0.000 A 
ATOM     16  S   UNL     1      96.581 119.494  83.152  0.00  0.00    +0.000 S 
ENDBRANCH  11  12
ENDBRANCH   9  11
ENDBRANCH   8   9
TORSDOF 3
ENDMDL
