MODEL 1
REMARK VINA RESULT:      -2.9      0.000      0.000
REMARK  Name = *****
REMARK  1 active torsions:
REMARK  status: ('A' for Active; 'I' for Inactive)
REMARK    1  A    between atoms: C_5  and  C_6
REMARK                            x       y       z     vdW  Elec       q    Type
REMARK                         _______ _______ _______ _____ _____    ______ ____
ROOT
ATOM      1  C   UNL     1     101.608 128.166  83.558  0.00  0.00    +0.000 C 
ATOM      2  C   UNL     1     102.839 128.646  83.366  0.00  0.00    +0.000 C 
ATOM      3  S   UNL     1     103.867 127.836  82.236  0.00  0.00    +0.000 S 
ATOM      4  C   UNL     1     102.665 126.633  81.841  0.00  0.00    +0.000 C 
ATOM      5  C   UNL     1     102.855 125.633  80.960  0.00  0.00    +0.000 C 
ATOM      6  S   UNL     1     101.123 126.768  82.666  0.00  0.00    +0.000 S 
ENDROOT
BRANCH   5   7
ATOM      7  C   UNL     1     104.055 125.356  80.182  0.00  0.00    +0.000 C 
ATOM      8  C   UNL     1     104.934 124.352  80.362  0.00  0.00    +0.000 C 
ATOM      9  S   UNL     1     104.800 123.142  81.614  0.00  0.00    +0.000 S 
ATOM     10  C   UNL     1     106.248 122.331  81.133  0.00  0.00    +0.000 C 
ATOM     11  C   UNL     1     106.929 122.815  80.091  0.00  0.00    +0.000 C 
ATOM     12  S   UNL     1     106.318 124.220  79.292  0.00  0.00    +0.000 S 
ENDBRANCH   5   7
TORSDOF 1
ENDMDL
