MODEL 1
REMARK VINA RESULT:      -4.3      0.000      0.000
REMARK  Name = *****
REMARK  3 active torsions:
REMARK  status: ('A' for Active; 'I' for Inactive)
REMARK    1  A    between atoms: C_1  and  C_2
REMARK    2  A    between atoms: C_2  and  C_10
REMARK    3  A    between atoms: N_3  and  C_4
REMARK                            x       y       z     vdW  Elec       q    Type
REMARK                         _______ _______ _______ _____ _____    ______ ____
ROOT
ATOM      1  C   UNL     1     103.068 127.130  80.809  0.00  0.00    +0.000 C 
ATOM      2  C   UNL     1     102.875 125.929  81.713  0.00  0.00    +0.000 C 
ATOM      3  N   UNL     1     101.942 125.813  82.612  0.00  0.00    +0.000 NA
ENDROOT
BRANCH   3   4
ATOM      4  C   UNL     1     101.016 126.843  82.809  0.00  0.00    +0.000 A 
ATOM      5  C   UNL     1      99.701 126.710  82.357  0.00  0.00    +0.000 A 
ATOM      6  C   UNL     1      98.774 127.732  82.572  0.00  0.00    +0.000 A 
ATOM      7  C   UNL     1      99.156 128.886  83.254  0.00  0.00    +0.000 A 
ATOM      8  C   UNL     1     100.461 129.015  83.728  0.00  0.00    +0.000 A 
ATOM      9  C   UNL     1     101.386 127.992  83.512  0.00  0.00    +0.000 A 
ENDBRANCH   3   4
BRANCH   2  10
ATOM     10  C   UNL     1     103.766 124.768  81.553  0.00  0.00    +0.000 A 
ATOM     11  C   UNL     1     104.093 123.913  82.594  0.00  0.00    +0.000 A 
ATOM     12  S   UNL     1     105.146 122.650  82.127  0.00  0.00    +0.000 S 
ATOM     13  C   UNL     1     105.185 123.211  80.515  0.00  0.00    +0.000 A 
ATOM     14  C   UNL     1     104.411 124.338  80.343  0.00  0.00    +0.000 A 
ENDBRANCH   2  10
TORSDOF 2
ENDMDL
