MODEL 1
REMARK VINA RESULT:      -4.3      0.000      0.000
REMARK  Name = *****
REMARK  2 active torsions:
REMARK  status: ('A' for Active; 'I' for Inactive)
REMARK    1  A    between atoms: C_4  and  C_7
REMARK    2  A    between atoms: C_8  and  C_9
REMARK                            x       y       z     vdW  Elec       q    Type
REMARK                         _______ _______ _______ _____ _____    ______ ____
ROOT
ATOM      1  C   UNL     1     102.020 126.231  82.276  0.00  0.00    +0.000 C 
ATOM      2  C   UNL     1     102.901 125.486  81.943  0.00  0.00    +0.000 C 
ENDROOT
BRANCH   1   6
ATOM      3  C   UNL     1      98.915 128.862  83.405  0.00  0.00    +0.000 A 
ATOM      4  C   UNL     1     100.244 129.195  83.670  0.00  0.00    +0.000 A 
ATOM      5  C   UNL     1     101.270 128.325  83.297  0.00  0.00    +0.000 A 
ATOM      6  C   UNL     1     100.967 127.120  82.659  0.00  0.00    +0.000 A 
ATOM      7  C   UNL     1      99.637 126.787  82.394  0.00  0.00    +0.000 A 
ATOM      8  C   UNL     1      98.612 127.659  82.768  0.00  0.00    +0.000 A 
ENDBRANCH   1   6
BRANCH   2   9
ATOM      9  C   UNL     1     103.948 124.598  81.536  0.00  0.00    +0.000 A 
ATOM     10  C   UNL     1     104.627 123.742  82.371  0.00  0.00    +0.000 A 
ATOM     11  S   UNL     1     105.812 122.827  81.565  0.00  0.00    +0.000 S 
ATOM     12  C   UNL     1     105.437 123.568  80.067  0.00  0.00    +0.000 A 
ATOM     13  C   UNL     1     104.422 124.495  80.193  0.00  0.00    +0.000 A 
ATOM     14 BR   UNL     1     104.321 123.555  84.217  0.00  0.00    +0.000 Br
ENDBRANCH   2   9
TORSDOF 2
ENDMDL
