MODEL 1
REMARK VINA RESULT:      -4.6      0.000      0.000
REMARK  Name = *****
REMARK  3 active torsions:
REMARK  status: ('A' for Active; 'I' for Inactive)
REMARK    1  A    between atoms: C_3  and  C_4
REMARK    2  A    between atoms: C_3  and  C_11
REMARK    3  A    between atoms: C_11  and  C_13
REMARK                            x       y       z     vdW  Elec       q    Type
REMARK                         _______ _______ _______ _____ _____    ______ ____
ROOT
ATOM      1  C   UNL     1      89.537  70.820  86.300  0.00  0.00    +0.000 C 
ATOM      2  C   UNL     1      89.402  70.284  87.685  0.00  0.00    +0.000 C 
ATOM      3  C   UNL     1      88.271  70.043  86.688  0.00  0.00    +0.000 C 
ENDROOT
BRANCH   3   4
ATOM      4  C   UNL     1      86.989  70.877  86.755  0.00  0.00    +0.000 A 
ATOM      5  C   UNL     1      86.364  71.399  85.611  0.00  0.00    +0.000 A 
ATOM      6  C   UNL     1      85.204  72.163  85.714  0.00  0.00    +0.000 A 
ATOM      7  C   UNL     1      84.628  72.433  86.947  0.00  0.00    +0.000 A 
ATOM      8  C   UNL     1      85.225  71.930  88.098  0.00  0.00    +0.000 A 
ATOM      9  C   UNL     1      86.389  71.162  87.999  0.00  0.00    +0.000 A 
ATOM     10  F   UNL     1      84.635  72.644  84.601  0.00  0.00    +0.000 F 
ENDBRANCH   3   4
BRANCH   3  11
ATOM     11  C   UNL     1      88.128  68.669  86.071  0.00  0.00    +0.000 C 
ATOM     12  O   UNL     1      88.126  68.557  84.848  0.00  0.00    +0.000 OA
BRANCH  11  13
ATOM     13  C   UNL     1      87.961  67.466  86.937  0.00  0.00    +0.000 A 
ATOM     14  C   UNL     1      88.844  66.392  86.753  0.00  0.00    +0.000 A 
ATOM     15  C   UNL     1      88.732  65.239  87.534  0.00  0.00    +0.000 A 
ATOM     16  C   UNL     1      87.738  65.151  88.505  0.00  0.00    +0.000 A 
ATOM     17  C   UNL     1      86.858  66.214  88.698  0.00  0.00    +0.000 A 
ATOM     18  C   UNL     1      86.967  67.370  87.918  0.00  0.00    +0.000 A 
ENDBRANCH  11  13
ENDBRANCH   3  11
TORSDOF 3
ENDMDL
