REMARK  Name = *****
REMARK  5 active torsions:
REMARK  status: ('A' for Active; 'I' for Inactive)
REMARK    1  A    between atoms: C_1  and  C_2
REMARK    2  A    between atoms: C_5  and  C_8
REMARK    3  A    between atoms: N_9  and  C_10
REMARK    4  A    between atoms: C_11  and  C_17
REMARK    5  A    between atoms: C_13  and  C_16
REMARK                            x       y       z     vdW  Elec       q    Type
REMARK                         _______ _______ _______ _____ _____    ______ ____
ROOT
ATOM      1  C   UNL     1      -3.338   0.235  -0.062  0.00  0.00    +0.000 C 
ATOM      2  N   UNL     1      -3.991   1.279  -0.467  0.00  0.00    +0.000 NA
ENDROOT
BRANCH   2   3
ATOM      3  C   UNL     1      -5.391   1.172  -0.437  0.00  0.00    +0.000 A 
ATOM      4  C   UNL     1      -6.134   1.663   0.650  0.00  0.00    +0.000 A 
ATOM      5  C   UNL     1      -7.533   1.533   0.642  0.00  0.00    +0.000 A 
ATOM      6  C   UNL     1      -8.199   0.952  -0.445  0.00  0.00    +0.000 A 
ATOM      7  C   UNL     1      -7.449   0.476  -1.525  0.00  0.00    +0.000 A 
ATOM      8  C   UNL     1      -6.059   0.595  -1.522  0.00  0.00    +0.000 A 
ATOM      9  C   UNL     1      -9.690   0.795  -0.426  0.00  0.00    +0.000 C 
ATOM     10  C   UNL     1      -5.446   2.306   1.821  0.00  0.00    +0.000 C 
ENDBRANCH   2   3
BRANCH   1  15
ATOM     11  C   UNL     1       2.433   0.011   0.057  0.00  0.00    +0.000 C 
ATOM     12  C   UNL     1       0.934   0.084   0.052  0.00  0.00    +0.000 A 
ATOM     13  C   UNL     1       0.284   1.241  -0.398  0.00  0.00    +0.000 A 
ATOM     14  C   UNL     1      -1.110   1.301  -0.435  0.00  0.00    +0.000 A 
ATOM     15  C   UNL     1      -1.864   0.197  -0.032  0.00  0.00    +0.000 A 
ATOM     16  C   UNL     1      -1.228  -0.967   0.404  0.00  0.00    +0.000 A 
ATOM     17  C   UNL     1       0.168  -1.023   0.440  0.00  0.00    +0.000 A 
ENDBRANCH   1  15
TORSDOF 2
