MODEL 1
REMARK VINA RESULT:      -4.4      0.000      0.000
REMARK  Name = *****
REMARK  4 active torsions:
REMARK  status: ('A' for Active; 'I' for Inactive)
REMARK    1  A    between atoms: C_1  and  C_2
REMARK    2  A    between atoms: C_5  and  S_8
REMARK    3  A    between atoms: S_8  and  O_10
REMARK    4  A    between atoms: O_10  and  C_11
REMARK                            x       y       z     vdW  Elec       q    Type
REMARK                         _______ _______ _______ _____ _____    ______ ____
ROOT
ATOM      1  S   UNL     1     102.551 127.287  83.011  0.00  0.00    +0.000 S 
ATOM      2  O   UNL     1     103.190 128.473  82.351  0.00  0.00    +0.000 OA
ENDROOT
BRANCH   1   7
ATOM      3  C   UNL     1     105.153 122.391  80.417  0.00  0.00    +0.000 C 
ATOM      4  C   UNL     1     104.488 123.574  81.056  0.00  0.00    +0.000 A 
ATOM      5  C   UNL     1     104.126 124.684  80.283  0.00  0.00    +0.000 A 
ATOM      6  C   UNL     1     103.540 125.802  80.882  0.00  0.00    +0.000 A 
ATOM      7  C   UNL     1     103.317 125.829  82.264  0.00  0.00    +0.000 A 
ATOM      8  C   UNL     1     103.688 124.726  83.039  0.00  0.00    +0.000 A 
ATOM      9  C   UNL     1     104.276 123.609  82.440  0.00  0.00    +0.000 A 
ENDBRANCH   1   7
BRANCH   1  10
ATOM     10  O   UNL     1     101.152 127.029  82.251  0.00  0.00    +0.000 OA
BRANCH  10  11
ATOM     11  C   UNL     1     100.040 126.785  83.103  0.00  0.00    +0.000 C 
ATOM     12  C   UNL     1     100.267 127.373  84.511  0.00  0.00    +0.000 C 
ATOM     13  C   UNL     1      99.148 128.424  84.634  0.00  0.00    +0.000 C 
ATOM     14  C   UNL     1      97.792 127.705  84.743  0.00  0.00    +0.000 C 
ATOM     15  C   UNL     1      97.572 127.162  83.324  0.00  0.00    +0.000 C 
ATOM     16  C   UNL     1      98.842 127.612  82.584  0.00  0.00    +0.000 C 
ATOM     17  C   UNL     1      99.094 128.984  83.216  0.00  0.00    +0.000 C 
ENDBRANCH  10  11
ENDBRANCH   1  10
TORSDOF 3
ENDMDL
