MODEL 1
REMARK VINA RESULT:      -4.2      0.000      0.000
REMARK  Name = *****
REMARK  5 active torsions:
REMARK  status: ('A' for Active; 'I' for Inactive)
REMARK    1  A    between atoms: C_1  and  C_2
REMARK    2  A    between atoms: C_2  and  C_4
REMARK    3  A    between atoms: C_4  and  S_10
REMARK    4  A    between atoms: S_10  and  C_11
REMARK    5  A    between atoms: C_11  and  C_12
REMARK                            x       y       z     vdW  Elec       q    Type
REMARK                         _______ _______ _______ _____ _____    ______ ____
ROOT
ATOM      1  C   UNL     1     104.429 126.201  81.360  0.00  0.00    +0.000 C 
ATOM      2  C   UNL     1     105.932 126.111  81.722  0.00  0.00    +0.000 C 
ATOM      3  C   UNL     1     106.392 124.718  82.163  0.00  0.00    +0.000 C 
ATOM      4  C   UNL     1     106.015 123.646  81.150  0.00  0.00    +0.000 C 
ATOM      5  C   UNL     1     104.528 123.679  80.820  0.00  0.00    +0.000 C 
ATOM      6  C   UNL     1     104.092 125.070  80.360  0.00  0.00    +0.000 C 
ENDROOT
BRANCH   1   8
ATOM      7  C   UNL     1     104.617 128.826  81.396  0.00  0.00    +0.000 C 
ATOM      8  C   UNL     1     104.110 127.572  80.721  0.00  0.00    +0.000 C 
ATOM      9  O   UNL     1     103.423 127.666  79.699  0.00  0.00    +0.000 OA
ENDBRANCH   1   8
BRANCH   1  10
ATOM     10  S   UNL     1     103.437 126.064  82.931  0.00  0.00    +0.000 S 
BRANCH  10  11
ATOM     11  C   UNL     1     101.745 125.842  82.278  0.00  0.00    +0.000 C 
BRANCH  11  12
ATOM     12  C   UNL     1     100.862 127.000  82.679  0.00  0.00    +0.000 A 
ATOM     13  C   UNL     1     101.406 128.127  83.312  0.00  0.00    +0.000 A 
ATOM     14  C   UNL     1     100.587 129.191  83.691  0.00  0.00    +0.000 A 
ATOM     15  C   UNL     1      99.215 129.139  83.447  0.00  0.00    +0.000 A 
ATOM     16  C   UNL     1      98.662 128.020  82.828  0.00  0.00    +0.000 A 
ATOM     17  C   UNL     1      99.479 126.954  82.448  0.00  0.00    +0.000 A 
ENDBRANCH  11  12
ENDBRANCH  10  11
ENDBRANCH   1  10
TORSDOF 4
ENDMDL
