MODEL 1
REMARK VINA RESULT:      -4.8      0.000      0.000
REMARK  Name = *****
REMARK  6 active torsions:
REMARK  status: ('A' for Active; 'I' for Inactive)
REMARK    1  A    between atoms: C_1  and  C_2
REMARK    2  A    between atoms: C_4  and  C_18
REMARK    3  A    between atoms: C_5  and  O_9
REMARK    4  A    between atoms: C_6  and  C_8
REMARK    5  A    between atoms: O_9  and  C_10
REMARK    6  A    between atoms: C_10  and  C_12
REMARK                            x       y       z     vdW  Elec       q    Type
REMARK                         _______ _______ _______ _____ _____    ______ ____
ROOT
ATOM      1  C   UNL     1      99.098 130.986  85.324  0.00  0.00    +0.000 C 
ATOM      2  C   UNL     1      99.759 129.900  84.526  0.00  0.00    +0.000 A 
ATOM      3  C   UNL     1     101.149 129.898  84.353  0.00  0.00    +0.000 A 
ATOM      4  C   UNL     1     101.780 128.909  83.587  0.00  0.00    +0.000 A 
ATOM      5  C   UNL     1     100.985 127.905  83.015  0.00  0.00    +0.000 A 
ATOM      6  C   UNL     1      99.587 127.908  83.130  0.00  0.00    +0.000 A 
ATOM      7  C   UNL     1      98.985 128.912  83.900  0.00  0.00    +0.000 A 
ATOM      8  C   UNL     1      98.744 126.845  82.489  0.00  0.00    +0.000 C 
ATOM      9  C   UNL     1     103.272 128.909  83.437  0.00  0.00    +0.000 C 
ENDROOT
BRANCH   5  10
ATOM     10  O   UNL     1     101.593 126.918  82.226  0.00  0.00    +0.000 OA
BRANCH  10  11
ATOM     11  C   UNL     1     102.119 125.871  82.958  0.00  0.00    +0.000 C 
ATOM     12  O   UNL     1     101.836 125.547  84.102  0.00  0.00    +0.000 OA
BRANCH  11  13
ATOM     13  C   UNL     1     103.137 125.152  82.139  0.00  0.00    +0.000 A 
ATOM     14  C   UNL     1     103.823 124.083  82.733  0.00  0.00    +0.000 A 
ATOM     15  C   UNL     1     104.786 123.375  82.012  0.00  0.00    +0.000 A 
ATOM     16  C   UNL     1     105.069 123.728  80.694  0.00  0.00    +0.000 A 
ATOM     17  C   UNL     1     104.390 124.789  80.094  0.00  0.00    +0.000 A 
ATOM     18  C   UNL     1     103.425 125.501  80.813  0.00  0.00    +0.000 A 
ENDBRANCH  11  13
ENDBRANCH  10  11
ENDBRANCH   5  10
TORSDOF 3
ENDMDL
