MODEL 1
REMARK VINA RESULT:      -4.4      0.000      0.000
REMARK  Name = *****
REMARK  5 active torsions:
REMARK  status: ('A' for Active; 'I' for Inactive)
REMARK    1  A    between atoms: C_1  and  C_2
REMARK    2  A    between atoms: C_4  and  C_8
REMARK    3  A    between atoms: C_5  and  C_7
REMARK    4  A    between atoms: C_8  and  C_9
REMARK    5  A    between atoms: C_9  and  C_10
REMARK                            x       y       z     vdW  Elec       q    Type
REMARK                         _______ _______ _______ _____ _____    ______ ____
ROOT
ATOM      1  C   UNL     1      89.389  70.411  87.065  0.00  0.00    +0.000 C 
ENDROOT
BRANCH   1   5
ATOM      2  C   UNL     1      90.330  65.957  84.688  0.00  0.00    +0.000 C 
ATOM      3  C   UNL     1      90.095  67.352  85.105  0.00  0.00    +0.000 A 
ATOM      4  C   UNL     1      89.810  67.948  86.313  0.00  0.00    +0.000 A 
ATOM      5  C   UNL     1      89.691  69.346  86.064  0.00  0.00    +0.000 A 
ATOM      6  C   UNL     1      89.915  69.499  84.705  0.00  0.00    +0.000 A 
ATOM      7  O   UNL     1      90.159  68.292  84.125  0.00  0.00    +0.000 OA
ATOM      8  C   UNL     1      89.938  70.664  83.797  0.00  0.00    +0.000 C 
ENDBRANCH   1   5
BRANCH   1   9
ATOM      9  C   UNL     1      88.168  70.068  87.923  0.00  0.00    +0.000 C 
BRANCH   9  10
ATOM     10  C   UNL     1      86.963  70.886  87.531  0.00  0.00    +0.000 A 
ATOM     11  C   UNL     1      86.085  71.371  88.510  0.00  0.00    +0.000 A 
ATOM     12  C   UNL     1      84.959  72.110  88.145  0.00  0.00    +0.000 A 
ATOM     13  C   UNL     1      84.698  72.366  86.801  0.00  0.00    +0.000 A 
ATOM     14  C   UNL     1      85.562  71.883  85.819  0.00  0.00    +0.000 A 
ATOM     15  C   UNL     1      86.688  71.143  86.182  0.00  0.00    +0.000 A 
ENDBRANCH   9  10
ENDBRANCH   1   9
TORSDOF 3
ENDMDL
