REMARK  Name = *****
REMARK  3 active torsions:
REMARK  status: ('A' for Active; 'I' for Inactive)
REMARK    1  A    between atoms: C_4  and  N_7
REMARK    2  A    between atoms: N_7  and  O_8
REMARK    3  A    between atoms: O_8  and  C_9
REMARK                            x       y       z     vdW  Elec       q    Type
REMARK                         _______ _______ _______ _____ _____    ______ ____
ROOT
ATOM      1  N   UNL     1      -2.847   0.322  -0.236  0.00  0.00    +0.000 N 
ATOM      2  H   UNL     1      -3.228   1.199  -0.469  0.00  0.00    +0.000 HD
ENDROOT
BRANCH   1   6
ATOM      3  C   UNL     1       1.346  -0.097   0.022  0.00  0.00    +0.000 A 
ATOM      4  C   UNL     1       0.548  -1.225  -0.156  0.00  0.00    +0.000 A 
ATOM      5  C   UNL     1      -0.841  -1.093  -0.226  0.00  0.00    +0.000 A 
ATOM      6  C   UNL     1      -1.451   0.160  -0.093  0.00  0.00    +0.000 A 
ATOM      7  C   UNL     1      -0.634   1.288   0.047  0.00  0.00    +0.000 A 
ATOM      8  C   UNL     1       0.756   1.161   0.118  0.00  0.00    +0.000 A 
ENDBRANCH   1   6
BRANCH   1   9
ATOM      9  O   UNL     1      -3.676  -0.786  -0.039  0.00  0.00    +0.000 OA
BRANCH   9  10
ATOM     10  C   UNL     1      -4.827  -0.669  -0.784  0.00  0.00    +0.000 A 
ATOM     11  C   UNL     1      -4.862  -0.112  -2.065  0.00  0.00    +0.000 A 
ATOM     12  C   UNL     1      -6.067  -0.059  -2.769  0.00  0.00    +0.000 A 
ATOM     13  C   UNL     1      -7.232  -0.572  -2.198  0.00  0.00    +0.000 A 
ATOM     14  C   UNL     1      -7.193  -1.145  -0.926  0.00  0.00    +0.000 A 
ATOM     15  C   UNL     1      -5.989  -1.198  -0.222  0.00  0.00    +0.000 A 
ENDBRANCH   9  10
ENDBRANCH   1   9
TORSDOF 3
