REMARK  Name = *****
REMARK  2 active torsions:
REMARK  status: ('A' for Active; 'I' for Inactive)
REMARK    1  A    between atoms: C_4  and  C_7
REMARK    2  A    between atoms: C_14  and  C_15
REMARK                            x       y       z     vdW  Elec       q    Type
REMARK                         _______ _______ _______ _____ _____    ______ ____
ROOT
ATOM      1  C   UNL     1      -3.110  -0.095   0.008  0.00  0.00    +0.000 C 
ATOM      2  C   UNL     1      -4.153  -0.921  -0.165  0.00  0.00    +0.000 C 
ATOM      3  C   UNL     1      -4.250  -2.364  -0.293  0.00  0.00    +0.000 A 
ATOM      4  C   UNL     1      -5.449  -2.571  -0.952  0.00  0.00    +0.000 A 
ATOM      5  C   UNL     1      -5.906  -3.820  -1.357  0.00  0.00    +0.000 A 
ATOM      6  C   UNL     1      -5.115  -4.925  -1.065  0.00  0.00    +0.000 A 
ATOM      7  C   UNL     1      -3.933  -4.758  -0.332  0.00  0.00    +0.000 A 
ATOM      8  C   UNL     1      -3.513  -3.477   0.090  0.00  0.00    +0.000 A 
ATOM      9  C   UNL     1      -6.167  -1.309  -1.075  0.00  0.00    +0.000 C 
ATOM     10  O   UNL     1      -7.266  -1.164  -1.573  0.00  0.00    +0.000 OA
ATOM     11  O   UNL     1      -5.401  -0.341  -0.483  0.00  0.00    +0.000 OA
ENDROOT
BRANCH   1  15
ATOM     12  C   UNL     1       1.071  -0.911   0.199  0.00  0.00    +0.000 A 
ATOM     13  C   UNL     1       0.327  -1.371  -0.886  0.00  0.00    +0.000 A 
ATOM     14  C   UNL     1      -1.044  -1.114  -0.955  0.00  0.00    +0.000 A 
ATOM     15  C   UNL     1      -1.682  -0.411   0.073  0.00  0.00    +0.000 A 
ATOM     16  C   UNL     1      -0.922   0.075   1.144  0.00  0.00    +0.000 A 
ATOM     17  C   UNL     1       0.448  -0.183   1.211  0.00  0.00    +0.000 A 
ENDBRANCH   1  15
BRANCH   8  18
ATOM     18  C   UNL     1      -2.376  -3.437   1.039  0.00  0.00    +0.000 C 
ATOM     19  O   UNL     1      -1.378  -4.085   0.730  0.00  0.00    +0.000 OA
ATOM     20 CL   UNL     1      -2.622  -2.648   2.579  0.00  0.00    +0.000 Cl
ENDBRANCH   8  18
TORSDOF 2
