MODEL 1
REMARK VINA RESULT:      -4.8      0.000      0.000
REMARK  Name = *****
REMARK  6 active torsions:
REMARK  status: ('A' for Active; 'I' for Inactive)
REMARK    1  A    between atoms: C_1  and  C_2
REMARK    2  A    between atoms: C_3  and  C_9
REMARK    3  A    between atoms: C_4  and  C_8
REMARK    4  A    between atoms: C_10  and  C_11
REMARK    5  A    between atoms: C_14  and  O_17
REMARK    6  A    between atoms: O_17  and  C_18
REMARK                            x       y       z     vdW  Elec       q    Type
REMARK                         _______ _______ _______ _____ _____    ______ ____
ROOT
ATOM      1  C   UNL     1     101.898 126.922  82.801  0.00  0.00    +0.000 C 
ATOM      2  C   UNL     1     102.611 126.032  82.423  0.00  0.00    +0.000 C 
ENDROOT
BRANCH   1   5
ATOM      3  C   UNL     1     103.118 129.234  84.109  0.00  0.00    +0.000 C 
ATOM      4  C   UNL     1     101.635 129.126  83.875  0.00  0.00    +0.000 A 
ATOM      5  C   UNL     1     101.059 127.996  83.257  0.00  0.00    +0.000 A 
ATOM      6  C   UNL     1      99.661 127.918  83.078  0.00  0.00    +0.000 A 
ATOM      7  C   UNL     1      98.855 128.980  83.517  0.00  0.00    +0.000 A 
ATOM      8  C   UNL     1      99.421 130.092  84.137  0.00  0.00    +0.000 A 
ATOM      9  C   UNL     1     100.800 130.163  84.319  0.00  0.00    +0.000 A 
ATOM     10  C   UNL     1      99.014 126.738  82.405  0.00  0.00    +0.000 C 
ENDBRANCH   1   5
BRANCH   2  11
ATOM     11  C   UNL     1     103.472 124.979  81.981  0.00  0.00    +0.000 A 
ATOM     12  C   UNL     1     103.897 123.999  82.878  0.00  0.00    +0.000 A 
ATOM     13  C   UNL     1     104.728 122.966  82.437  0.00  0.00    +0.000 A 
ATOM     14  C   UNL     1     105.138 122.900  81.103  0.00  0.00    +0.000 A 
ATOM     15  C   UNL     1     104.717 123.886  80.210  0.00  0.00    +0.000 A 
ATOM     16  C   UNL     1     103.884 124.923  80.649  0.00  0.00    +0.000 A 
BRANCH  14  17
ATOM     17  O   UNL     1     105.943 121.836  80.805  0.00  0.00    +0.000 OA
ATOM     18  C   UNL     1     107.329 122.107  80.632  0.00  0.00    +0.000 C 
ENDBRANCH  14  17
ENDBRANCH   2  11
TORSDOF 3
ENDMDL
