MODEL 1
REMARK VINA RESULT:      -4.4      0.000      0.000
REMARK  Name = *****
REMARK  5 active torsions:
REMARK  status: ('A' for Active; 'I' for Inactive)
REMARK    1  A    between atoms: C_1  and  O_2
REMARK    2  A    between atoms: O_2  and  C_3
REMARK    3  A    between atoms: C_6  and  C_9
REMARK    4  A    between atoms: C_9  and  S_10
REMARK    5  A    between atoms: S_10  and  C_11
REMARK                            x       y       z     vdW  Elec       q    Type
REMARK                         _______ _______ _______ _____ _____    ______ ____
ROOT
ATOM      1  C   UNL     1     102.738 127.630  82.873  0.00  0.00    +0.000 C 
ENDROOT
BRANCH   1   5
ATOM      2  C   UNL     1      98.411 127.571  82.906  0.00  0.00    +0.000 A 
ATOM      3  C   UNL     1      99.104 128.653  83.450  0.00  0.00    +0.000 A 
ATOM      4  C   UNL     1     100.504 128.672  83.436  0.00  0.00    +0.000 A 
ATOM      5  C   UNL     1     101.230 127.613  82.875  0.00  0.00    +0.000 A 
ATOM      6  C   UNL     1     100.529 126.527  82.338  0.00  0.00    +0.000 A 
ATOM      7  C   UNL     1      99.131 126.511  82.352  0.00  0.00    +0.000 A 
BRANCH   2   9
ATOM      8  C   UNL     1      96.448 126.657  83.884  0.00  0.00    +0.000 C 
ATOM      9  O   UNL     1      97.052 127.428  82.854  0.00  0.00    +0.000 OA
ENDBRANCH   2   9
ENDBRANCH   1   5
BRANCH   1  10
ATOM     10  S   UNL     1     103.404 127.371  81.195  0.00  0.00    +0.000 S 
BRANCH  10  11
ATOM     11  C   UNL     1     103.904 125.665  81.321  0.00  0.00    +0.000 A 
ATOM     12  C   UNL     1     104.384 124.956  80.214  0.00  0.00    +0.000 A 
ATOM     13  C   UNL     1     104.780 123.621  80.349  0.00  0.00    +0.000 A 
ATOM     14  C   UNL     1     104.706 122.999  81.593  0.00  0.00    +0.000 A 
ATOM     15  C   UNL     1     104.244 123.699  82.705  0.00  0.00    +0.000 A 
ATOM     16  C   UNL     1     103.849 125.034  82.569  0.00  0.00    +0.000 A 
ATOM     17 CL   UNL     1     105.194 121.358  81.759  0.00  0.00    +0.000 Cl
ENDBRANCH  10  11
ENDBRANCH   1  10
TORSDOF 4
ENDMDL
