MODEL 1
REMARK VINA RESULT:      -4.7      0.000      0.000
REMARK  Name = *****
REMARK  5 active torsions:
REMARK  status: ('A' for Active; 'I' for Inactive)
REMARK    1  A    between atoms: C_1  and  C_2
REMARK    2  A    between atoms: C_4  and  C_18
REMARK    3  A    between atoms: C_6  and  O_8
REMARK    4  A    between atoms: O_8  and  C_9
REMARK    5  A    between atoms: C_9  and  C_11
REMARK                            x       y       z     vdW  Elec       q    Type
REMARK                         _______ _______ _______ _____ _____    ______ ____
ROOT
ATOM      1  O   UNL     1      88.407  69.715  86.495  0.00  0.00    +0.000 OA
ENDROOT
BRANCH   1   7
ATOM      2  C   UNL     1      91.259  65.795  85.457  0.00  0.00    +0.000 C 
ATOM      3  C   UNL     1      90.077  66.419  86.139  0.00  0.00    +0.000 A 
ATOM      4  C   UNL     1      89.168  65.626  86.856  0.00  0.00    +0.000 A 
ATOM      5  C   UNL     1      88.046  66.193  87.476  0.00  0.00    +0.000 A 
ATOM      6  C   UNL     1      87.820  67.568  87.349  0.00  0.00    +0.000 A 
ATOM      7  C   UNL     1      88.726  68.356  86.641  0.00  0.00    +0.000 A 
ATOM      8  C   UNL     1      89.837  67.792  86.016  0.00  0.00    +0.000 A 
ATOM      9  C   UNL     1      87.063  65.327  88.208  0.00  0.00    +0.000 C 
ENDBRANCH   1   7
BRANCH   1  10
ATOM     10  C   UNL     1      88.154  70.431  87.651  0.00  0.00    +0.000 C 
ATOM     11  O   UNL     1      88.858  70.508  88.647  0.00  0.00    +0.000 OA
BRANCH  10  12
ATOM     12  C   UNL     1      86.844  71.133  87.528  0.00  0.00    +0.000 A 
ATOM     13  C   UNL     1      86.076  71.507  88.643  0.00  0.00    +0.000 A 
ATOM     14  C   UNL     1      84.856  72.165  88.463  0.00  0.00    +0.000 A 
ATOM     15  C   UNL     1      84.406  72.444  87.178  0.00  0.00    +0.000 A 
ATOM     16  C   UNL     1      85.152  72.080  86.063  0.00  0.00    +0.000 A 
ATOM     17  C   UNL     1      86.373  71.425  86.237  0.00  0.00    +0.000 A 
ATOM     18  F   UNL     1      83.236  73.075  87.011  0.00  0.00    +0.000 F 
ENDBRANCH  10  12
ENDBRANCH   1  10
TORSDOF 3
ENDMDL
