MODEL 1
REMARK VINA RESULT:      -4.8      0.000      0.000
REMARK  Name = *****
REMARK  3 active torsions:
REMARK  status: ('A' for Active; 'I' for Inactive)
REMARK    1  A    between atoms: C_2  and  C_3
REMARK    2  A    between atoms: C_4  and  C_9
REMARK    3  A    between atoms: C_10  and  C_11
REMARK                            x       y       z     vdW  Elec       q    Type
REMARK                         _______ _______ _______ _____ _____    ______ ____
ROOT
ATOM      1  C   UNL     1     101.391 128.259  83.225  0.00  0.00    +0.000 C 
ATOM      2  C   UNL     1     101.072 127.131  82.555  0.00  0.00    +0.000 C 
ATOM      3  C   UNL     1      99.638 126.680  82.393  0.00  0.00    +0.000 C 
ATOM      4  C   UNL     1      98.608 127.762  82.720  0.00  0.00    +0.000 C 
ATOM      5  C   UNL     1      98.980 128.495  84.002  0.00  0.00    +0.000 C 
ATOM      6  C   UNL     1     100.356 129.147  83.875  0.00  0.00    +0.000 C 
ENDROOT
BRANCH   1   8
ATOM      7  C   UNL     1     104.090 129.040  83.515  0.00  0.00    +0.000 C 
ATOM      8  C   UNL     1     102.844 128.679  83.381  0.00  0.00    +0.000 C 
ENDBRANCH   1   8
BRANCH   2   9
ATOM      9  C   UNL     1     102.085 126.320  81.948  0.00  0.00    +0.000 C 
ATOM     10  C   UNL     1     102.948 125.664  81.431  0.00  0.00    +0.000 C 
BRANCH  10  11
ATOM     11  C   UNL     1     103.998 124.909  80.822  0.00  0.00    +0.000 A 
ATOM     12  C   UNL     1     104.281 123.618  81.276  0.00  0.00    +0.000 A 
ATOM     13  C   UNL     1     105.315 122.883  80.692  0.00  0.00    +0.000 A 
ATOM     14  C   UNL     1     106.066 123.437  79.656  0.00  0.00    +0.000 A 
ATOM     15  C   UNL     1     105.783 124.726  79.200  0.00  0.00    +0.000 A 
ATOM     16  C   UNL     1     104.749 125.461  79.782  0.00  0.00    +0.000 A 
ENDBRANCH  10  11
ENDBRANCH   2   9
TORSDOF 3
ENDMDL
