MODEL 1
REMARK VINA RESULT:      -4.7      0.000      0.000
REMARK  Name = *****
REMARK  4 active torsions:
REMARK  status: ('A' for Active; 'I' for Inactive)
REMARK    1  A    between atoms: C_3  and  C_8
REMARK    2  A    between atoms: C_8  and  O_9
REMARK    3  A    between atoms: O_9  and  C_10
REMARK    4  A    between atoms: C_14  and  C_16
REMARK                            x       y       z     vdW  Elec       q    Type
REMARK                         _______ _______ _______ _____ _____    ______ ____
ROOT
ATOM      1  O   UNL     1     102.680 125.521  83.221  0.00  0.00    +0.000 OA
ENDROOT
BRANCH   1   2
ATOM      2  C   UNL     1     103.397 125.315  82.077  0.00  0.00    +0.000 A 
ATOM      3  C   UNL     1     103.600 126.242  81.056  0.00  0.00    +0.000 A 
ATOM      4  C   UNL     1     104.360 125.895  79.936  0.00  0.00    +0.000 A 
ATOM      5  C   UNL     1     104.923 124.621  79.829  0.00  0.00    +0.000 A 
ATOM      6  C   UNL     1     104.727 123.680  80.847  0.00  0.00    +0.000 A 
ATOM      7  C   UNL     1     103.962 124.040  81.967  0.00  0.00    +0.000 A 
BRANCH   6   8
ATOM      8  C   UNL     1     105.311 122.300  80.782  0.00  0.00    +0.000 C 
ATOM      9  O   UNL     1     106.476 122.195  80.400  0.00  0.00    +0.000 OA
ATOM     10 CL   UNL     1     104.335 120.919  81.238  0.00  0.00    +0.000 Cl
ENDBRANCH   6   8
ENDBRANCH   1   2
BRANCH   1  11
ATOM     11  C   UNL     1     102.565 126.865  83.690  0.00  0.00    +0.000 C 
BRANCH  11  14
ATOM     12  C   UNL     1      98.946 126.998  82.474  0.00  0.00    +0.000 A 
ATOM     13  C   UNL     1     100.234 126.536  82.760  0.00  0.00    +0.000 A 
ATOM     14  C   UNL     1     101.184 127.378  83.363  0.00  0.00    +0.000 A 
ATOM     15  C   UNL     1     100.813 128.692  83.682  0.00  0.00    +0.000 A 
ATOM     16  C   UNL     1      99.528 129.141  83.393  0.00  0.00    +0.000 A 
ATOM     17  C   UNL     1      98.593 128.306  82.792  0.00  0.00    +0.000 A 
ATOM     18  F   UNL     1      99.187 130.399  83.702  0.00  0.00    +0.000 F 
ENDBRANCH  11  14
ENDBRANCH   1  11
TORSDOF 4
ENDMDL
