MODEL 1
REMARK VINA RESULT:      -4.8      0.000      0.000
REMARK  Name = *****
REMARK  3 active torsions:
REMARK  status: ('A' for Active; 'I' for Inactive)
REMARK    1  A    between atoms: C_4  and  C_7
REMARK    2  A    between atoms: C_7  and  S_9
REMARK    3  A    between atoms: S_9  and  C_10
REMARK                            x       y       z     vdW  Elec       q    Type
REMARK                         _______ _______ _______ _____ _____    ______ ____
ROOT
ATOM      1  C   UNL     1      88.009  64.608  86.637  0.00  0.00    +0.000 A 
ATOM      2  C   UNL     1      88.529  65.873  86.927  0.00  0.00    +0.000 A 
ATOM      3  C   UNL     1      89.773  66.260  86.435  0.00  0.00    +0.000 A 
ATOM      4  C   UNL     1      90.512  65.390  85.647  0.00  0.00    +0.000 A 
ATOM      5  C   UNL     1      90.011  64.130  85.353  0.00  0.00    +0.000 A 
ATOM      6  C   UNL     1      88.768  63.740  85.844  0.00  0.00    +0.000 A 
ATOM      7  F   UNL     1      88.306  62.515  85.550  0.00  0.00    +0.000 F 
ATOM      8  F   UNL     1      90.727  63.283  84.600  0.00  0.00    +0.000 F 
ATOM      9  F   UNL     1      91.711  65.761  85.180  0.00  0.00    +0.000 F 
ATOM     10  F   UNL     1      90.259  67.474  86.728  0.00  0.00    +0.000 F 
ATOM     11  F   UNL     1      87.835  66.732  87.690  0.00  0.00    +0.000 F 
ENDROOT
BRANCH   1  12
ATOM     12  S   UNL     1      86.403  64.121  87.243  0.00  0.00    +0.000 S 
BRANCH  12  13
ATOM     13  C   UNL     1      86.882  62.960  88.483  0.00  0.00    +0.000 C 
ATOM     14  O   UNL     1      86.760  61.754  88.292  0.00  0.00    +0.000 OA
BRANCH  13  18
ATOM     15  C   UNL     1      88.327  64.461  92.250  0.00  0.00    +0.000 A 
ATOM     16  C   UNL     1      86.963  64.323  92.006  0.00  0.00    +0.000 A 
ATOM     17  C   UNL     1      86.520  63.834  90.774  0.00  0.00    +0.000 A 
ATOM     18  C   UNL     1      87.438  63.477  89.772  0.00  0.00    +0.000 A 
ATOM     19  C   UNL     1      88.809  63.622  90.030  0.00  0.00    +0.000 A 
ATOM     20  C   UNL     1      89.249  64.112  91.265  0.00  0.00    +0.000 A 
ENDBRANCH  13  18
ENDBRANCH  12  13
ENDBRANCH   1  12
TORSDOF 3
ENDMDL
