REMARK  Name = *****
REMARK  2 active torsions:
REMARK  status: ('A' for Active; 'I' for Inactive)
REMARK    1  A    between atoms: C_4  and  N_7
REMARK    2  A    between atoms: C_8  and  C_9
REMARK                            x       y       z     vdW  Elec       q    Type
REMARK                         _______ _______ _______ _____ _____    ______ ____
ROOT
ATOM      1  N   UNL     1      -2.718   0.434  -0.770  0.00  0.00    +0.000 NA
ATOM      2  C   UNL     1      -3.595  -0.345  -0.221  0.00  0.00    +0.000 C 
ENDROOT
BRANCH   2   3
ATOM      3  C   UNL     1      -5.036  -0.210  -0.507  0.00  0.00    +0.000 A 
ATOM      4  C   UNL     1      -5.501   0.779  -1.379  0.00  0.00    +0.000 A 
ATOM      5  C   UNL     1      -6.867   0.882  -1.630  0.00  0.00    +0.000 A 
ATOM      6  C   UNL     1      -7.769   0.011  -1.022  0.00  0.00    +0.000 A 
ATOM      7  C   UNL     1      -7.293  -0.971  -0.155  0.00  0.00    +0.000 A 
ATOM      8  C   UNL     1      -5.929  -1.090   0.109  0.00  0.00    +0.000 A 
ATOM      9 CL   UNL     1      -8.400  -2.051   0.599  0.00  0.00    +0.000 Cl
ATOM     10 CL   UNL     1      -7.449   2.096  -2.701  0.00  0.00    +0.000 Cl
ENDBRANCH   2   3
BRANCH   1  14
ATOM     11  C   UNL     1       1.290  -0.248   0.292  0.00  0.00    +0.000 A 
ATOM     12  C   UNL     1       0.719  -0.958  -0.764  0.00  0.00    +0.000 A 
ATOM     13  C   UNL     1      -0.613  -0.731  -1.116  0.00  0.00    +0.000 A 
ATOM     14  C   UNL     1      -1.384   0.197  -0.411  0.00  0.00    +0.000 A 
ATOM     15  C   UNL     1      -0.800   0.916   0.635  0.00  0.00    +0.000 A 
ATOM     16  C   UNL     1       0.532   0.692   0.990  0.00  0.00    +0.000 A 
ENDBRANCH   1  14
TORSDOF 2
