MODEL 1
REMARK VINA RESULT:      -3.7      0.000      0.000
REMARK  Name = *****
REMARK  3 active torsions:
REMARK  status: ('A' for Active; 'I' for Inactive)
REMARK    1  A    between atoms: C_5  and  C_7
REMARK    2  A    between atoms: C_7  and  S_8
REMARK    3  A    between atoms: S_8  and  C_9
REMARK                            x       y       z     vdW  Elec       q    Type
REMARK                         _______ _______ _______ _____ _____    ______ ____
ROOT
ATOM      1  C   UNL     1      87.276  64.720  87.298  0.00  0.00    +0.000 C 
ENDROOT
BRANCH   1   6
ATOM      2  C   UNL     1      89.039  63.978  90.696  0.00  0.00    +0.000 C 
ATOM      3  C   UNL     1      87.752  64.013  91.519  0.00  0.00    +0.000 C 
ATOM      4  C   UNL     1      86.708  64.906  90.919  0.00  0.00    +0.000 C 
ATOM      5  C   UNL     1      86.770  65.370  89.662  0.00  0.00    +0.000 C 
ATOM      6  C   UNL     1      87.876  65.018  88.687  0.00  0.00    +0.000 C 
ATOM      7  C   UNL     1      88.739  63.845  89.205  0.00  0.00    +0.000 C 
ENDBRANCH   1   6
BRANCH   1   8
ATOM      8  S   UNL     1      87.188  62.926  86.939  0.00  0.00    +0.000 S 
BRANCH   8   9
ATOM      9  C   UNL     1      85.861  62.470  88.037  0.00  0.00    +0.000 A 
ATOM     10  C   UNL     1      86.069  61.580  89.096  0.00  0.00    +0.000 A 
ATOM     11  C   UNL     1      85.016  61.243  89.949  0.00  0.00    +0.000 A 
ATOM     12  C   UNL     1      83.752  61.798  89.752  0.00  0.00    +0.000 A 
ATOM     13  C   UNL     1      83.542  62.694  88.706  0.00  0.00    +0.000 A 
ATOM     14  C   UNL     1      84.594  63.032  87.853  0.00  0.00    +0.000 A 
ENDBRANCH   8   9
ENDBRANCH   1   8
TORSDOF 3
ENDMDL
