REMARK  Name = *****
REMARK  5 active torsions:
REMARK  status: ('A' for Active; 'I' for Inactive)
REMARK    1  A    between atoms: C_1  and  C_2
REMARK    2  A    between atoms: C_2  and  O_3
REMARK    3  A    between atoms: O_3  and  C_4
REMARK    4  A    between atoms: C_4  and  C_12
REMARK    5  A    between atoms: C_5  and  C_6
REMARK                            x       y       z     vdW  Elec       q    Type
REMARK                         _______ _______ _______ _____ _____    ______ ____
ROOT
ATOM      1  C   UNL     1       4.398  -0.779  -0.980  0.00  0.00    +0.000 C 
ATOM      2  C   UNL     1       5.280  -0.235  -0.120  0.00  0.00    +0.000 C 
ENDROOT
BRANCH   2   3
ATOM      3  C   UNL     1       4.948   0.474   1.126  0.00  0.00    +0.000 A 
ATOM      4  C   UNL     1       4.002  -0.014   2.036  0.00  0.00    +0.000 A 
ATOM      5  C   UNL     1       3.738   0.672   3.224  0.00  0.00    +0.000 A 
ATOM      6  C   UNL     1       4.428   1.845   3.521  0.00  0.00    +0.000 A 
ATOM      7  C   UNL     1       5.385   2.331   2.632  0.00  0.00    +0.000 A 
ATOM      8  C   UNL     1       5.647   1.646   1.443  0.00  0.00    +0.000 A 
ENDBRANCH   2   3
BRANCH   1   9
ATOM      9  C   UNL     1       4.839  -1.514  -2.185  0.00  0.00    +0.000 A 
ATOM     10  C   UNL     1       4.262  -2.754  -2.497  0.00  0.00    +0.000 A 
ATOM     11  C   UNL     1       4.654  -3.456  -3.639  0.00  0.00    +0.000 A 
ATOM     12  C   UNL     1       5.624  -2.924  -4.486  0.00  0.00    +0.000 A 
ATOM     13  C   UNL     1       6.199  -1.689  -4.194  0.00  0.00    +0.000 A 
ATOM     14  C   UNL     1       5.808  -0.986  -3.052  0.00  0.00    +0.000 A 
ENDBRANCH   1   9
BRANCH   1  15
ATOM     15  O   UNL     1       3.035  -0.787  -0.741  0.00  0.00    +0.000 OA
BRANCH  15  17
ATOM     16  C   UNL     1       0.912   0.231  -1.117  0.00  0.00    +0.000 C 
ATOM     17  C   UNL     1       2.378   0.227  -1.507  0.00  0.00    +0.000 C 
ENDBRANCH  15  17
ENDBRANCH   1  15
TORSDOF 4
