MODEL 1
REMARK VINA RESULT:      -4.9      0.000      0.000
REMARK  Name = *****
REMARK  4 active torsions:
REMARK  status: ('A' for Active; 'I' for Inactive)
REMARK    1  A    between atoms: C_1  and  O_2
REMARK    2  A    between atoms: O_2  and  C_3
REMARK    3  A    between atoms: C_6  and  C_9
REMARK    4  A    between atoms: C_10  and  C_11
REMARK                            x       y       z     vdW  Elec       q    Type
REMARK                         _______ _______ _______ _____ _____    ______ ____
ROOT
ATOM      1  C   UNL     1     102.359 125.875  82.141  0.00  0.00    +0.000 C 
ATOM      2  C   UNL     1     103.243 125.993  81.134  0.00  0.00    +0.000 C 
ATOM      3 CL   UNL     1     103.431 127.431  80.191  0.00  0.00    +0.000 Cl
ENDROOT
BRANCH   1   7
ATOM      4  C   UNL     1      99.611 128.853  83.522  0.00  0.00    +0.000 A 
ATOM      5  C   UNL     1      99.136 127.727  82.851  0.00  0.00    +0.000 A 
ATOM      6  C   UNL     1     100.029 126.751  82.391  0.00  0.00    +0.000 A 
ATOM      7  C   UNL     1     101.407 126.897  82.588  0.00  0.00    +0.000 A 
ATOM      8  C   UNL     1     101.879 128.021  83.271  0.00  0.00    +0.000 A 
ATOM      9  C   UNL     1     100.985 128.992  83.731  0.00  0.00    +0.000 A 
BRANCH   4  11
ATOM     10  C   UNL     1      99.462 131.157  84.086  0.00  0.00    +0.000 C 
ATOM     11  O   UNL     1      98.851 129.874  84.022  0.00  0.00    +0.000 OA
ENDBRANCH   4  11
ENDBRANCH   1   7
BRANCH   2  12
ATOM     12  C   UNL     1     104.150 124.881  80.804  0.00  0.00    +0.000 A 
ATOM     13  C   UNL     1     104.982 124.950  79.676  0.00  0.00    +0.000 A 
ATOM     14  C   UNL     1     105.836 123.890  79.360  0.00  0.00    +0.000 A 
ATOM     15  C   UNL     1     105.866 122.753  80.166  0.00  0.00    +0.000 A 
ATOM     16  C   UNL     1     105.044 122.674  81.288  0.00  0.00    +0.000 A 
ATOM     17  C   UNL     1     104.190 123.732  81.607  0.00  0.00    +0.000 A 
ENDBRANCH   2  12
TORSDOF 3
ENDMDL
