MODEL 1
REMARK VINA RESULT:      -4.8      0.000      0.000
REMARK  Name = *****
REMARK  3 active torsions:
REMARK  status: ('A' for Active; 'I' for Inactive)
REMARK    1  A    between atoms: C_4  and  C_7
REMARK    2  A    between atoms: C_8  and  C_9
REMARK    3  A    between atoms: C_9  and  C_11
REMARK                            x       y       z     vdW  Elec       q    Type
REMARK                         _______ _______ _______ _____ _____    ______ ____
ROOT
ATOM      1  C   UNL     1     101.244 126.714  82.182  0.00  0.00    +0.000 C 
ATOM      2  C   UNL     1     100.164 126.558  82.963  0.00  0.00    +0.000 C 
ENDROOT
BRANCH   1   6
ATOM      3  C   UNL     1     104.640 124.113  82.194  0.00  0.00    +0.000 A 
ATOM      4  C   UNL     1     104.013 124.426  83.398  0.00  0.00    +0.000 A 
ATOM      5  C   UNL     1     102.905 125.278  83.412  0.00  0.00    +0.000 A 
ATOM      6  C   UNL     1     102.421 125.837  82.221  0.00  0.00    +0.000 A 
ATOM      7  C   UNL     1     103.051 125.501  81.015  0.00  0.00    +0.000 A 
ATOM      8  C   UNL     1     104.158 124.649  81.002  0.00  0.00    +0.000 A 
ENDBRANCH   1   6
BRANCH   2   9
ATOM      9  C   UNL     1      99.040 127.529  82.862  0.00  0.00    +0.000 C 
ATOM     10  O   UNL     1      98.152 127.409  82.023  0.00  0.00    +0.000 OA
BRANCH   9  11
ATOM     11  C   UNL     1      99.041 128.695  83.787  0.00  0.00    +0.000 A 
ATOM     12  C   UNL     1      99.416 129.944  83.272  0.00  0.00    +0.000 A 
ATOM     13  C   UNL     1      99.428 131.070  84.096  0.00  0.00    +0.000 A 
ATOM     14  C   UNL     1      99.054 130.957  85.434  0.00  0.00    +0.000 A 
ATOM     15  C   UNL     1      98.661 129.722  85.949  0.00  0.00    +0.000 A 
ATOM     16  C   UNL     1      98.649 128.591  85.127  0.00  0.00    +0.000 A 
ENDBRANCH   9  11
ENDBRANCH   2   9
TORSDOF 3
ENDMDL
