REMARK  Name = *****
REMARK  3 active torsions:
REMARK  status: ('A' for Active; 'I' for Inactive)
REMARK    1  A    between atoms: C_3  and  C_8
REMARK    2  A    between atoms: C_8  and  C_9
REMARK    3  A    between atoms: C_9  and  C_11
REMARK                            x       y       z     vdW  Elec       q    Type
REMARK                         _______ _______ _______ _____ _____    ______ ____
ROOT
ATOM      1  C   UNL     1      -1.289   3.801   0.094  0.00  0.00    +0.000 C 
ATOM      2  O   UNL     1      -1.028   4.455   1.105  0.00  0.00    +0.000 OA
ENDROOT
BRANCH   1   3
ATOM      3  C   UNL     1      -0.841   4.317  -1.237  0.00  0.00    +0.000 A 
ATOM      4  C   UNL     1      -1.132   3.664  -2.440  0.00  0.00    +0.000 A 
ATOM      5  C   UNL     1      -0.683   4.206  -3.644  0.00  0.00    +0.000 A 
ATOM      6  C   UNL     1       0.048   5.387  -3.666  0.00  0.00    +0.000 A 
ATOM      7  C   UNL     1       0.344   6.048  -2.481  0.00  0.00    +0.000 A 
ATOM      8  C   UNL     1      -0.101   5.514  -1.268  0.00  0.00    +0.000 A 
ATOM      9  F   UNL     1       0.471   5.898  -4.830  0.00  0.00    +0.000 F 
ATOM     10  F   UNL     1      -0.970   3.572  -4.789  0.00  0.00    +0.000 F 
ENDBRANCH   1   3
BRANCH   1  11
ATOM     11  C   UNL     1      -2.043   2.488   0.192  0.00  0.00    +0.000 C 
BRANCH  11  14
ATOM     12  C   UNL     1      -0.764  -0.917  -0.967  0.00  0.00    +0.000 A 
ATOM     13  C   UNL     1      -1.559   0.224  -0.826  0.00  0.00    +0.000 A 
ATOM     14  C   UNL     1      -1.170   1.267   0.030  0.00  0.00    +0.000 A 
ATOM     15  C   UNL     1       0.015   1.127   0.768  0.00  0.00    +0.000 A 
ATOM     16  C   UNL     1       0.797  -0.014   0.620  0.00  0.00    +0.000 A 
ATOM     17  C   UNL     1       0.420  -1.035  -0.243  0.00  0.00    +0.000 A 
ATOM     18  F   UNL     1       1.930  -0.132   1.324  0.00  0.00    +0.000 F 
ENDBRANCH  11  14
ENDBRANCH   1  11
TORSDOF 3
