MODEL 1
REMARK VINA RESULT:      -4.6      0.000      0.000
REMARK  Name = *****
REMARK  3 active torsions:
REMARK  status: ('A' for Active; 'I' for Inactive)
REMARK    1  A    between atoms: C_5  and  C_7
REMARK    2  A    between atoms: C_7  and  O_9
REMARK    3  A    between atoms: O_9  and  C_10
REMARK                            x       y       z     vdW  Elec       q    Type
REMARK                         _______ _______ _______ _____ _____    ______ ____
ROOT
ATOM      1  C   UNL     1     101.785 126.001  82.830  0.00  0.00    +0.000 C 
ATOM      2  O   UNL     1     102.218 125.340  83.763  0.00  0.00    +0.000 OA
ENDROOT
BRANCH   1   7
ATOM      3  C   UNL     1     100.546 129.382  83.930  0.00  0.00    +0.000 A 
ATOM      4  C   UNL     1      99.219 129.365  83.506  0.00  0.00    +0.000 A 
ATOM      5  C   UNL     1      98.719 128.250  82.834  0.00  0.00    +0.000 A 
ATOM      6  C   UNL     1      99.544 127.151  82.594  0.00  0.00    +0.000 A 
ATOM      7  C   UNL     1     100.871 127.149  83.028  0.00  0.00    +0.000 A 
ATOM      8  C   UNL     1     101.371 128.281  83.690  0.00  0.00    +0.000 A 
ATOM      9  F   UNL     1      99.025 126.116  81.919  0.00  0.00    +0.000 F 
ENDBRANCH   1   7
BRANCH   1  10
ATOM     10  O   UNL     1     101.991 125.780  81.485  0.00  0.00    +0.000 OA
BRANCH  10  11
ATOM     11  C   UNL     1     103.282 126.116  81.080  0.00  0.00    +0.000 A 
ATOM     12  C   UNL     1     103.600 127.455  80.862  0.00  0.00    +0.000 A 
ATOM     13  C   UNL     1     104.877 127.782  80.402  0.00  0.00    +0.000 A 
ATOM     14  C   UNL     1     105.816 126.776  80.151  0.00  0.00    +0.000 A 
ATOM     15  C   UNL     1     105.482 125.436  80.356  0.00  0.00    +0.000 A 
ATOM     16  C   UNL     1     104.211 125.111  80.814  0.00  0.00    +0.000 A 
ATOM     17  F   UNL     1     103.881 123.823  80.987  0.00  0.00    +0.000 F 
ENDBRANCH  10  11
ENDBRANCH   1  10
TORSDOF 3
ENDMDL
