REMARK  Name = *****
REMARK  2 active torsions:
REMARK  status: ('A' for Active; 'I' for Inactive)
REMARK    1  A    between atoms: N_5  and  N_8
REMARK    2  A    between atoms: C_9  and  C_10
REMARK                            x       y       z     vdW  Elec       q    Type
REMARK                         _______ _______ _______ _____ _____    ______ ____
ROOT
ATOM      1  N   UNL     1       1.506  -0.726  -1.296  0.00  0.00    +0.000 NA
ATOM      2  C   UNL     1       2.713  -0.610  -1.773  0.00  0.00    +0.000 C 
ENDROOT
BRANCH   1   7
ATOM      3  C   UNL     1      -1.458   1.000  -0.715  0.00  0.00    +0.000 C 
ATOM      4  C   UNL     1      -1.988  -0.255  -0.027  0.00  0.00    +0.000 C 
ATOM      5  C   UNL     1      -0.977  -1.386   0.134  0.00  0.00    +0.000 C 
ATOM      6  C   UNL     1       0.356  -0.999   0.783  0.00  0.00    +0.000 C 
ATOM      7  N   UNL     1       1.248  -0.204  -0.071  0.00  0.00    +0.000 N 
ATOM      8  C   UNL     1       1.001   1.245   0.005  0.00  0.00    +0.000 C 
ATOM      9  C   UNL     1      -0.441   1.739   0.147  0.00  0.00    +0.000 C 
ENDBRANCH   1   7
BRANCH   2  10
ATOM     10  C   UNL     1       3.941  -0.070  -1.149  0.00  0.00    +0.000 A 
ATOM     11  C   UNL     1       4.249  -0.280   0.199  0.00  0.00    +0.000 A 
ATOM     12  C   UNL     1       5.439   0.226   0.729  0.00  0.00    +0.000 A 
ATOM     13  C   UNL     1       6.322   0.926  -0.092  0.00  0.00    +0.000 A 
ATOM     14  C   UNL     1       6.030   1.120  -1.442  0.00  0.00    +0.000 A 
ATOM     15  C   UNL     1       4.841   0.614  -1.974  0.00  0.00    +0.000 A 
ATOM     16 CL   UNL     1       7.786   1.549   0.562  0.00  0.00    +0.000 Cl
ENDBRANCH   2  10
TORSDOF 2
