MODEL 1
REMARK VINA RESULT:      -5.0      0.000      0.000
REMARK  Name = *****
REMARK  2 active torsions:
REMARK  status: ('A' for Active; 'I' for Inactive)
REMARK    1  A    between atoms: C_2  and  C_13
REMARK    2  A    between atoms: N_3  and  C_4
REMARK                            x       y       z     vdW  Elec       q    Type
REMARK                         _______ _______ _______ _____ _____    ______ ____
ROOT
ATOM      1  C   UNL     1     102.982 125.674  83.817  0.00  0.00    +0.000 C 
ATOM      2  C   UNL     1     102.582 126.745  82.840  0.00  0.00    +0.000 C 
ATOM      3  N   UNL     1     102.649 125.326  82.437  0.00  0.00    +0.000 N 
ENDROOT
BRANCH   3   4
ATOM      4  C   UNL     1     103.665 124.897  81.540  0.00  0.00    +0.000 A 
ATOM      5  C   UNL     1     104.047 125.536  80.349  0.00  0.00    +0.000 A 
ATOM      6  C   UNL     1     105.060 125.033  79.534  0.00  0.00    +0.000 A 
ATOM      7  C   UNL     1     105.715 123.869  79.905  0.00  0.00    +0.000 A 
ATOM      8  C   UNL     1     105.375 123.202  81.069  0.00  0.00    +0.000 A 
ATOM      9  C   UNL     1     104.359 123.718  81.871  0.00  0.00    +0.000 A 
ATOM     10  F   UNL     1     104.045 123.049  82.993  0.00  0.00    +0.000 F 
ATOM     11  F   UNL     1     106.689 123.383  79.125  0.00  0.00    +0.000 F 
ATOM     12  F   UNL     1     103.443 126.666  79.948  0.00  0.00    +0.000 F 
ENDBRANCH   3   4
BRANCH   2  13
ATOM     13  C   UNL     1     101.216 127.374  82.933  0.00  0.00    +0.000 A 
ATOM     14  C   UNL     1     101.038 128.641  83.514  0.00  0.00    +0.000 A 
ATOM     15  C   UNL     1      99.776 129.239  83.590  0.00  0.00    +0.000 A 
ATOM     16  C   UNL     1      98.663 128.580  83.077  0.00  0.00    +0.000 A 
ATOM     17  C   UNL     1      98.811 127.326  82.490  0.00  0.00    +0.000 A 
ATOM     18  C   UNL     1     100.074 126.734  82.419  0.00  0.00    +0.000 A 
ENDBRANCH   2  13
TORSDOF 2
ENDMDL
