MODEL 1
REMARK VINA RESULT:      -4.2      0.000      0.000
REMARK  Name = *****
REMARK  3 active torsions:
REMARK  status: ('A' for Active; 'I' for Inactive)
REMARK    1  A    between atoms: C_4  and  C_8
REMARK    2  A    between atoms: C_8  and  S_9
REMARK    3  A    between atoms: S_9  and  C_12
REMARK                            x       y       z     vdW  Elec       q    Type
REMARK                         _______ _______ _______ _____ _____    ______ ____
ROOT
ATOM      1  C   UNL     1     103.035 126.921  83.165  0.00  0.00    +0.000 C 
ENDROOT
BRANCH   1   5
ATOM      2  C   UNL     1     104.553 123.692  80.683  0.00  0.00    +0.000 A 
ATOM      3  C   UNL     1     104.248 124.928  80.122  0.00  0.00    +0.000 A 
ATOM      4  C   UNL     1     103.778 125.972  80.926  0.00  0.00    +0.000 A 
ATOM      5  C   UNL     1     103.590 125.802  82.314  0.00  0.00    +0.000 A 
ATOM      6  C   UNL     1     103.927 124.550  82.860  0.00  0.00    +0.000 A 
ATOM      7  C   UNL     1     104.398 123.508  82.052  0.00  0.00    +0.000 A 
ATOM      8 CL   UNL     1     103.825 124.223  84.554  0.00  0.00    +0.000 Cl
ATOM      9 CL   UNL     1     103.470 127.481  80.135  0.00  0.00    +0.000 Cl
ENDBRANCH   1   5
BRANCH   1  10
ATOM     10  S   UNL     1     101.265 126.740  83.388  0.00  0.00    +0.000 S 
ATOM     11  O   UNL     1     100.672 126.340  82.125  0.00  0.00    +0.000 OA
ATOM     12  O   UNL     1     100.963 126.022  84.612  0.00  0.00    +0.000 OA
BRANCH  10  13
ATOM     13  C   UNL     1     100.659 128.388  83.695  0.00  0.00    +0.000 A 
ATOM     14  C   UNL     1      99.455 128.995  83.389  0.00  0.00    +0.000 A 
ATOM     15  C   UNL     1      99.401 130.347  83.833  0.00  0.00    +0.000 A 
ATOM     16  C   UNL     1     100.567 130.730  84.456  0.00  0.00    +0.000 A 
ATOM     17  S   UNL     1     101.719 129.466  84.497  0.00  0.00    +0.000 S 
ENDBRANCH  10  13
ENDBRANCH   1  10
TORSDOF 3
ENDMDL
