MODEL 1
REMARK VINA RESULT:      -4.6      0.000      0.000
REMARK  Name = *****
REMARK  3 active torsions:
REMARK  status: ('A' for Active; 'I' for Inactive)
REMARK    1  A    between atoms: C_1  and  C_2
REMARK    2  A    between atoms: C_3  and  C_11
REMARK    3  A    between atoms: N_4  and  C_5
REMARK                            x       y       z     vdW  Elec       q    Type
REMARK                         _______ _______ _______ _____ _____    ______ ____
ROOT
ATOM      1  C   UNL     1     104.860 127.755  82.071  0.00  0.00    +0.000 C 
ATOM      2  C   UNL     1     103.431 127.542  81.711  0.00  0.00    +0.000 C 
ATOM      3  C   UNL     1     102.836 126.157  81.452  0.00  0.00    +0.000 C 
ATOM      4  N   UNL     1     102.554 126.911  82.681  0.00  0.00    +0.000 N 
ENDROOT
BRANCH   4   5
ATOM      5  C   UNL     1     101.257 127.436  82.890  0.00  0.00    +0.000 A 
ATOM      6  C   UNL     1     101.074 128.677  83.517  0.00  0.00    +0.000 A 
ATOM      7  C   UNL     1      99.793 129.208  83.691  0.00  0.00    +0.000 A 
ATOM      8  C   UNL     1      98.682 128.513  83.222  0.00  0.00    +0.000 A 
ATOM      9  C   UNL     1      98.849 127.293  82.569  0.00  0.00    +0.000 A 
ATOM     10  C   UNL     1     100.130 126.764  82.397  0.00  0.00    +0.000 A 
ENDBRANCH   4   5
BRANCH   3  11
ATOM     11  C   UNL     1     103.678 124.911  81.552  0.00  0.00    +0.000 A 
ATOM     12  C   UNL     1     103.859 124.227  82.765  0.00  0.00    +0.000 A 
ATOM     13  C   UNL     1     104.628 123.062  82.840  0.00  0.00    +0.000 A 
ATOM     14  C   UNL     1     105.231 122.552  81.694  0.00  0.00    +0.000 A 
ATOM     15  C   UNL     1     105.064 123.205  80.477  0.00  0.00    +0.000 A 
ATOM     16  C   UNL     1     104.294 124.370  80.409  0.00  0.00    +0.000 A 
ENDBRANCH   3  11
TORSDOF 2
ENDMDL
