MODEL 1
REMARK VINA RESULT:      -5.0      0.000      0.000
REMARK  Name = *****
REMARK  3 active torsions:
REMARK  status: ('A' for Active; 'I' for Inactive)
REMARK    1  A    between atoms: C_6  and  C_7
REMARK    2  A    between atoms: C_8  and  C_9
REMARK    3  A    between atoms: C_9  and  C_11
REMARK                            x       y       z     vdW  Elec       q    Type
REMARK                         _______ _______ _______ _____ _____    ______ ____
ROOT
ATOM      1  C   UNL     1      99.229 127.416  82.687  0.00  0.00    +0.000 C 
ATOM      2  O   UNL     1      98.168 127.416  82.070  0.00  0.00    +0.000 OA
ENDROOT
BRANCH   1   3
ATOM      3  C   UNL     1      99.463 128.442  83.731  0.00  0.00    +0.000 A 
ATOM      4  C   UNL     1      99.771 128.119  85.056  0.00  0.00    +0.000 A 
ATOM      5  C   UNL     1     100.003 129.116  86.001  0.00  0.00    +0.000 A 
ATOM      6  C   UNL     1      99.935 130.447  85.612  0.00  0.00    +0.000 A 
ATOM      7  C   UNL     1      99.646 130.796  84.297  0.00  0.00    +0.000 A 
ATOM      8  C   UNL     1      99.415 129.794  83.353  0.00  0.00    +0.000 A 
ATOM      9  F   UNL     1     100.160 131.410  86.515  0.00  0.00    +0.000 F 
ATOM     10  F   UNL     1      99.880 126.844  85.455  0.00  0.00    +0.000 F 
ENDBRANCH   1   3
BRANCH   1  12
ATOM     11  C   UNL     1     101.526 126.749  82.173  0.00  0.00    +0.000 C 
ATOM     12  C   UNL     1     100.268 126.376  82.459  0.00  0.00    +0.000 C 
BRANCH  11  18
ATOM     13  C   UNL     1     103.176 125.616  80.644  0.00  0.00    +0.000 A 
ATOM     14  C   UNL     1     104.210 124.694  80.446  0.00  0.00    +0.000 A 
ATOM     15  C   UNL     1     104.698 123.958  81.522  0.00  0.00    +0.000 A 
ATOM     16  C   UNL     1     104.159 124.132  82.793  0.00  0.00    +0.000 A 
ATOM     17  C   UNL     1     103.126 125.055  82.990  0.00  0.00    +0.000 A 
ATOM     18  C   UNL     1     102.633 125.817  81.921  0.00  0.00    +0.000 A 
ATOM     19 CL   UNL     1     105.968 122.824  81.277  0.00  0.00    +0.000 Cl
ENDBRANCH  11  18
ENDBRANCH   1  12
TORSDOF 3
ENDMDL
