MODEL 1
REMARK VINA RESULT:      -4.5      0.000      0.000
REMARK  Name = *****
REMARK  4 active torsions:
REMARK  status: ('A' for Active; 'I' for Inactive)
REMARK    1  A    between atoms: C_1  and  O_2
REMARK    2  A    between atoms: O_2  and  C_3
REMARK    3  A    between atoms: C_6  and  C_9
REMARK    4  A    between atoms: C_10  and  C_11
REMARK                            x       y       z     vdW  Elec       q    Type
REMARK                         _______ _______ _______ _____ _____    ______ ____
ROOT
ATOM      1  C   UNL     1     105.896 122.479  80.920  0.00  0.00    +0.000 A 
ATOM      2  C   UNL     1     105.462 123.429  79.993  0.00  0.00    +0.000 A 
ATOM      3  C   UNL     1     104.486 124.366  80.352  0.00  0.00    +0.000 A 
ATOM      4  C   UNL     1     103.938 124.358  81.635  0.00  0.00    +0.000 A 
ATOM      5  C   UNL     1     104.368 123.409  82.563  0.00  0.00    +0.000 A 
ATOM      6  C   UNL     1     105.342 122.475  82.203  0.00  0.00    +0.000 A 
ENDROOT
BRANCH   1   8
ATOM      7  C   UNL     1     107.024 120.551  81.732  0.00  0.00    +0.000 C 
ATOM      8  O   UNL     1     106.840 121.514  80.702  0.00  0.00    +0.000 OA
ENDBRANCH   1   8
BRANCH   4   9
ATOM      9  C   UNL     1     102.943 125.318  81.998  0.00  0.00    +0.000 C 
ATOM     10  C   UNL     1     102.104 126.123  82.301  0.00  0.00    +0.000 C 
BRANCH  10  11
ATOM     11  C   UNL     1     101.107 127.076  82.667  0.00  0.00    +0.000 C 
ATOM     12  C   UNL     1      99.814 126.798  82.419  0.00  0.00    +0.000 C 
ATOM     13  C   UNL     1      98.685 127.730  82.750  0.00  0.00    +0.000 C 
ATOM     14  C   UNL     1      99.149 129.139  83.118  0.00  0.00    +0.000 C 
ATOM     15  C   UNL     1     100.378 129.097  84.020  0.00  0.00    +0.000 C 
ATOM     16  C   UNL     1     101.533 128.356  83.342  0.00  0.00    +0.000 C 
ENDBRANCH  10  11
ENDBRANCH   4   9
TORSDOF 3
ENDMDL
