MODEL 1
REMARK VINA RESULT:      -4.4      0.000      0.000
REMARK  Name = *****
REMARK  4 active torsions:
REMARK  status: ('A' for Active; 'I' for Inactive)
REMARK    1  A    between atoms: C_1  and  C_2
REMARK    2  A    between atoms: C_4  and  C_8
REMARK    3  A    between atoms: C_8  and  O_10
REMARK    4  A    between atoms: O_10  and  C_11
REMARK                            x       y       z     vdW  Elec       q    Type
REMARK                         _______ _______ _______ _____ _____    ______ ____
ROOT
ATOM      1  C   UNL     1     102.533 125.811  83.562  0.00  0.00    +0.000 C 
ATOM      2  O   UNL     1     102.330 125.057  84.501  0.00  0.00    +0.000 OA
ENDROOT
BRANCH   1   6
ATOM      3  C   UNL     1     105.117 122.444  80.804  0.00  0.00    +0.000 C 
ATOM      4  C   UNL     1     104.497 123.799  80.982  0.00  0.00    +0.000 A 
ATOM      5  C   UNL     1     103.830 124.137  82.168  0.00  0.00    +0.000 A 
ATOM      6  C   UNL     1     103.250 125.406  82.323  0.00  0.00    +0.000 A 
ATOM      7  C   UNL     1     103.343 126.338  81.281  0.00  0.00    +0.000 A 
ATOM      8  C   UNL     1     104.005 126.005  80.098  0.00  0.00    +0.000 A 
ATOM      9  C   UNL     1     104.579 124.743  79.950  0.00  0.00    +0.000 A 
ENDBRANCH   1   6
BRANCH   1  10
ATOM     10  O   UNL     1     102.150 127.111  83.490  0.00  0.00    +0.000 OA
BRANCH  10  11
ATOM     11  C   UNL     1     100.754 127.348  83.677  0.00  0.00    +0.000 C 
ATOM     12  C   UNL     1      99.916 126.802  82.527  0.00  0.00    +0.000 C 
ATOM     13  C   UNL     1      98.637 127.630  82.558  0.00  0.00    +0.000 C 
ATOM     14  C   UNL     1      98.981 128.918  83.307  0.00  0.00    +0.000 C 
ATOM     15  C   UNL     1     100.473 128.843  83.594  0.00  0.00    +0.000 C 
ENDBRANCH  10  11
ENDBRANCH   1  10
TORSDOF 3
ENDMDL
