MODEL 1
REMARK VINA RESULT:      -4.5      0.000      0.000
REMARK  Name = *****
REMARK  5 active torsions:
REMARK  status: ('A' for Active; 'I' for Inactive)
REMARK    1  A    between atoms: C_1  and  C_2
REMARK    2  A    between atoms: C_6  and  O_8
REMARK    3  A    between atoms: O_8  and  O_9
REMARK    4  A    between atoms: O_9  and  C_10
REMARK    5  A    between atoms: C_14  and  C_16
REMARK                            x       y       z     vdW  Elec       q    Type
REMARK                         _______ _______ _______ _____ _____    ______ ____
ROOT
ATOM      1  O   UNL     1     102.543 126.910  83.390  0.00  0.00    +0.000 OA
ENDROOT
BRANCH   1   7
ATOM      2  C   UNL     1      99.422 130.669  83.822  0.00  0.00    +0.000 C 
ATOM      3  C   UNL     1      99.544 129.147  83.824  0.00  0.00    +0.000 C 
ATOM      4  C   UNL     1      98.687 128.535  82.706  0.00  0.00    +0.000 C 
ATOM      5  C   UNL     1      98.841 127.017  82.643  0.00  0.00    +0.000 C 
ATOM      6  C   UNL     1     100.302 126.606  82.506  0.00  0.00    +0.000 C 
ATOM      7  C   UNL     1     101.161 127.199  83.625  0.00  0.00    +0.000 C 
ATOM      8  C   UNL     1     101.010 128.720  83.681  0.00  0.00    +0.000 C 
ENDBRANCH   1   7
BRANCH   1   9
ATOM      9  O   UNL     1     102.692 126.816  81.942  0.00  0.00    +0.000 OA
BRANCH   9  10
ATOM     10  C   UNL     1     103.777 125.912  81.716  0.00  0.00    +0.000 C 
ATOM     11  C   UNL     1     103.754 125.411  80.270  0.00  0.00    +0.000 C 
ATOM     12  C   UNL     1     104.807 124.336  80.032  0.00  0.00    +0.000 C 
ATOM     13  C   UNL     1     104.660 123.177  81.014  0.00  0.00    +0.000 C 
ATOM     14  C   UNL     1     104.680 123.662  82.471  0.00  0.00    +0.000 C 
ATOM     15  C   UNL     1     103.623 124.749  82.698  0.00  0.00    +0.000 C 
ATOM     16  C   UNL     1     104.466 122.492  83.430  0.00  0.00    +0.000 C 
ENDBRANCH   9  10
ENDBRANCH   1   9
TORSDOF 3
ENDMDL
