MODEL 1
REMARK VINA RESULT:      -4.2      0.000      0.000
REMARK  Name = *****
REMARK  3 active torsions:
REMARK  status: ('A' for Active; 'I' for Inactive)
REMARK    1  A    between atoms: C_3  and  O_8
REMARK    2  A    between atoms: O_8  and  C_9
REMARK    3  A    between atoms: C_9  and  C_11
REMARK                            x       y       z     vdW  Elec       q    Type
REMARK                         _______ _______ _______ _____ _____    ______ ____
ROOT
ATOM      1  O   UNL     1     102.745 126.957  82.856  0.00  0.00    +0.000 OA
ENDROOT
BRANCH   1   4
ATOM      2  C   UNL     1      99.094 126.942  82.463  0.00  0.00    +0.000 A 
ATOM      3  C   UNL     1     100.425 126.525  82.441  0.00  0.00    +0.000 A 
ATOM      4  C   UNL     1     101.413 127.375  82.934  0.00  0.00    +0.000 A 
ATOM      5  C   UNL     1     101.107 128.646  83.416  0.00  0.00    +0.000 A 
ATOM      6  C   UNL     1      99.774 129.052  83.433  0.00  0.00    +0.000 A 
ATOM      7  C   UNL     1      98.768 128.205  82.962  0.00  0.00    +0.000 A 
ATOM      8 CL   UNL     1      99.365 130.613  84.030  0.00  0.00    +0.000 Cl
ENDBRANCH   1   4
BRANCH   1   9
ATOM      9  C   UNL     1     103.213 126.760  81.555  0.00  0.00    +0.000 C 
ATOM     10  O   UNL     1     103.158 127.594  80.658  0.00  0.00    +0.000 OA
BRANCH   9  11
ATOM     11  C   UNL     1     103.767 125.420  81.451  0.00  0.00    +0.000 A 
ATOM     12  C   UNL     1     104.210 124.730  80.335  0.00  0.00    +0.000 A 
ATOM     13  C   UNL     1     104.687 123.424  80.651  0.00  0.00    +0.000 A 
ATOM     14  C   UNL     1     104.596 123.156  81.998  0.00  0.00    +0.000 A 
ATOM     15  S   UNL     1     103.938 124.470  82.869  0.00  0.00    +0.000 S 
ENDBRANCH   9  11
ENDBRANCH   1   9
TORSDOF 3
ENDMDL
