MODEL 1
REMARK VINA RESULT:      -4.5      0.000      0.000
REMARK  Name = *****
REMARK  7 active torsions:
REMARK  status: ('A' for Active; 'I' for Inactive)
REMARK    1  A    between atoms: C_1  and  C_2
REMARK    2  A    between atoms: C_2  and  O_3
REMARK    3  A    between atoms: O_3  and  C_4
REMARK    4  A    between atoms: C_6  and  S_11
REMARK    5  A    between atoms: C_8  and  C_10
REMARK    6  A    between atoms: S_11  and  C_12
REMARK    7  A    between atoms: C_12  and  C_13
REMARK                            x       y       z     vdW  Elec       q    Type
REMARK                         _______ _______ _______ _____ _____    ______ ____
ROOT
ATOM      1  C   UNL     1      90.249  66.599  86.208  0.00  0.00    +0.000 A 
ATOM      2  N   UNL     1      90.289  67.938  86.267  0.00  0.00    +0.000 NA
ATOM      3  C   UNL     1      89.226  68.531  86.824  0.00  0.00    +0.000 A 
ATOM      4  N   UNL     1      88.149  67.886  87.305  0.00  0.00    +0.000 NA
ATOM      5  C   UNL     1      88.150  66.540  87.220  0.00  0.00    +0.000 A 
ATOM      6  C   UNL     1      89.201  65.840  86.672  0.00  0.00    +0.000 A 
ATOM      7  C   UNL     1      86.950  65.814  87.748  0.00  0.00    +0.000 C 
ENDROOT
BRANCH   1   8
ATOM      8  O   UNL     1      91.306  65.898  85.659  0.00  0.00    +0.000 OA
BRANCH   8  10
ATOM      9  C   UNL     1      91.837  64.113  84.173  0.00  0.00    +0.000 C 
ATOM     10  C   UNL     1      90.989  64.538  85.359  0.00  0.00    +0.000 C 
ENDBRANCH   8  10
ENDBRANCH   1   8
BRANCH   3  11
ATOM     11  S   UNL     1      89.259  70.303  86.894  0.00  0.00    +0.000 S 
BRANCH  11  12
ATOM     12  C   UNL     1      87.899  70.672  85.749  0.00  0.00    +0.000 C 
BRANCH  12  13
ATOM     13  C   UNL     1      86.707  71.252  86.472  0.00  0.00    +0.000 A 
ATOM     14  C   UNL     1      86.639  71.216  87.874  0.00  0.00    +0.000 A 
ATOM     15  C   UNL     1      85.534  71.746  88.543  0.00  0.00    +0.000 A 
ATOM     16  C   UNL     1      84.485  72.311  87.821  0.00  0.00    +0.000 A 
ATOM     17  C   UNL     1      84.537  72.343  86.428  0.00  0.00    +0.000 A 
ATOM     18  C   UNL     1      85.641  71.814  85.756  0.00  0.00    +0.000 A 
ENDBRANCH  12  13
ENDBRANCH  11  12
ENDBRANCH   3  11
TORSDOF 5
ENDMDL
