REMARK  Name = *****
REMARK  3 active torsions:
REMARK  status: ('A' for Active; 'I' for Inactive)
REMARK    1  A    between atoms: C_5  and  C_7
REMARK    2  A    between atoms: C_7  and  C_8
REMARK    3  A    between atoms: C_8  and  C_9
REMARK                            x       y       z     vdW  Elec       q    Type
REMARK                         _______ _______ _______ _____ _____    ______ ____
ROOT
ATOM      1  C   UNL     1       0.886  -2.447  -0.044  0.00  0.00    +0.000 C 
ENDROOT
BRANCH   1   6
ATOM      2  C   UNL     1      -0.824   0.701  -1.347  0.00  0.00    +0.000 A 
ATOM      3  C   UNL     1      -1.151   1.354  -0.158  0.00  0.00    +0.000 A 
ATOM      4  C   UNL     1      -0.819   0.775   1.065  0.00  0.00    +0.000 A 
ATOM      5  C   UNL     1      -0.166  -0.454   1.090  0.00  0.00    +0.000 A 
ATOM      6  C   UNL     1       0.162  -1.127  -0.091  0.00  0.00    +0.000 A 
ATOM      7  C   UNL     1      -0.169  -0.533  -1.316  0.00  0.00    +0.000 A 
ATOM      8  F   UNL     1       0.157  -0.992   2.275  0.00  0.00    +0.000 F 
ENDBRANCH   1   6
BRANCH   1   9
ATOM      9  C   UNL     1       2.400  -2.257   0.077  0.00  0.00    +0.000 C 
BRANCH   9  10
ATOM     10  C   UNL     1       3.124  -3.577   0.123  0.00  0.00    +0.000 A 
ATOM     11  C   UNL     1       3.455  -4.171   1.348  0.00  0.00    +0.000 A 
ATOM     12  C   UNL     1       4.111  -5.405   1.379  0.00  0.00    +0.000 A 
ATOM     13  C   UNL     1       4.437  -6.058   0.190  0.00  0.00    +0.000 A 
ATOM     14  C   UNL     1       4.105  -5.478  -1.033  0.00  0.00    +0.000 A 
ATOM     15  C   UNL     1       3.452  -4.249  -1.058  0.00  0.00    +0.000 A 
ATOM     16  F   UNL     1       3.130  -3.712  -2.243  0.00  0.00    +0.000 F 
ENDBRANCH   9  10
ENDBRANCH   1   9
TORSDOF 3
