MODEL 1
REMARK VINA RESULT:      -5.2      0.000      0.000
REMARK  Name = *****
REMARK  5 active torsions:
REMARK  status: ('A' for Active; 'I' for Inactive)
REMARK    1  A    between atoms: C_1  and  C_2
REMARK    2  A    between atoms: C_5  and  C_8
REMARK    3  A    between atoms: C_9  and  C_10
REMARK    4  A    between atoms: C_9  and  C_12
REMARK    5  A    between atoms: C_15  and  C_18
REMARK                            x       y       z     vdW  Elec       q    Type
REMARK                         _______ _______ _______ _____ _____    ______ ____
ROOT
ATOM      1  C   UNL     1     101.570 127.631  83.221  0.00  0.00    +0.000 C 
ATOM      2  C   UNL     1     100.223 127.693  83.224  0.00  0.00    +0.000 C 
ENDROOT
BRANCH   1   7
ATOM      3  C   UNL     1     104.821 124.002  80.122  0.00  0.00    +0.000 C 
ATOM      4  C   UNL     1     103.997 124.954  80.939  0.00  0.00    +0.000 A 
ATOM      5  C   UNL     1     103.591 124.611  82.233  0.00  0.00    +0.000 A 
ATOM      6  C   UNL     1     102.796 125.484  82.981  0.00  0.00    +0.000 A 
ATOM      7  C   UNL     1     102.392 126.706  82.437  0.00  0.00    +0.000 A 
ATOM      8  C   UNL     1     102.779 127.045  81.138  0.00  0.00    +0.000 A 
ATOM      9  C   UNL     1     103.573 126.171  80.392  0.00  0.00    +0.000 A 
ENDBRANCH   1   7
BRANCH   2  10
ATOM     10  C   UNL     1      99.560 128.695  84.087  0.00  0.00    +0.000 A 
ATOM     11  C   UNL     1      99.693 130.068  83.834  0.00  0.00    +0.000 A 
ATOM     12  C   UNL     1      99.074 131.012  84.659  0.00  0.00    +0.000 A 
ATOM     13  C   UNL     1      98.313 130.600  85.759  0.00  0.00    +0.000 A 
ATOM     14  C   UNL     1      98.160 129.232  86.003  0.00  0.00    +0.000 A 
ATOM     15  C   UNL     1      98.780 128.289  85.178  0.00  0.00    +0.000 A 
ATOM     16  C   UNL     1      97.615 131.609  86.620  0.00  0.00    +0.000 C 
ENDBRANCH   2  10
BRANCH   2  17
ATOM     17  C   UNL     1      99.412 126.741  82.401  0.00  0.00    +0.000 C 
ATOM     18  O   UNL     1      98.299 127.007  81.960  0.00  0.00    +0.000 OA
ENDBRANCH   2  17
TORSDOF 3
ENDMDL
