MODEL 1
REMARK VINA RESULT:      -4.6      0.000      0.000
REMARK  Name = *****
REMARK  3 active torsions:
REMARK  status: ('A' for Active; 'I' for Inactive)
REMARK    1  A    between atoms: C_4  and  C_8
REMARK    2  A    between atoms: C_8  and  O_10
REMARK    3  A    between atoms: O_10  and  C_11
REMARK                            x       y       z     vdW  Elec       q    Type
REMARK                         _______ _______ _______ _____ _____    ______ ____
ROOT
ATOM      1  C   UNL     1     101.747 126.015  82.717  0.00  0.00    +0.000 C 
ATOM      2  O   UNL     1     102.275 125.360  83.599  0.00  0.00    +0.000 OA
ENDROOT
BRANCH   1   6
ATOM      3  C   UNL     1      99.263 129.391  83.497  0.00  0.00    +0.000 A 
ATOM      4  C   UNL     1     100.607 129.400  83.877  0.00  0.00    +0.000 A 
ATOM      5  C   UNL     1     101.412 128.292  83.612  0.00  0.00    +0.000 A 
ATOM      6  C   UNL     1     100.889 127.176  82.967  0.00  0.00    +0.000 A 
ATOM      7  C   UNL     1      99.547 127.169  82.599  0.00  0.00    +0.000 A 
ATOM      8  C   UNL     1      98.732 128.271  82.857  0.00  0.00    +0.000 A 
ATOM      9  F   UNL     1      99.003 126.095  82.007  0.00  0.00    +0.000 F 
ATOM     10  F   UNL     1     102.703 128.341  83.967  0.00  0.00    +0.000 F 
ENDBRANCH   1   6
BRANCH   1  11
ATOM     11  O   UNL     1     101.871 125.861  81.349  0.00  0.00    +0.000 OA
BRANCH  11  12
ATOM     12  C   UNL     1     103.178 126.039  80.892  0.00  0.00    +0.000 A 
ATOM     13  C   UNL     1     103.895 124.916  80.485  0.00  0.00    +0.000 A 
ATOM     14  C   UNL     1     105.220 125.065  80.069  0.00  0.00    +0.000 A 
ATOM     15  C   UNL     1     105.818 126.334  80.079  0.00  0.00    +0.000 A 
ATOM     16  C   UNL     1     105.089 127.448  80.510  0.00  0.00    +0.000 A 
ATOM     17  C   UNL     1     103.766 127.302  80.928  0.00  0.00    +0.000 A 
ATOM     18 CL   UNL     1     107.453 126.589  79.580  0.00  0.00    +0.000 Cl
ATOM     19 CL   UNL     1     106.069 123.646  79.566  0.00  0.00    +0.000 Cl
ENDBRANCH  11  12
ENDBRANCH   1  11
TORSDOF 3
ENDMDL
