MODEL 1
REMARK VINA RESULT:      -4.4      0.000      0.000
REMARK  Name = *****
REMARK  5 active torsions:
REMARK  status: ('A' for Active; 'I' for Inactive)
REMARK    1  A    between atoms: C_1  and  C_2
REMARK    2  A    between atoms: C_7  and  C_8
REMARK    3  A    between atoms: C_8  and  O_10
REMARK    4  A    between atoms: O_10  and  C_11
REMARK    5  A    between atoms: C_11  and  C_12
REMARK                            x       y       z     vdW  Elec       q    Type
REMARK                         _______ _______ _______ _____ _____    ______ ____
ROOT
ATOM      1  C   UNL     1     104.844 124.419  80.731  0.00  0.00    +0.000 C 
ATOM      2  O   UNL     1     105.900 124.993  80.526  0.00  0.00    +0.000 OA
ENDROOT
BRANCH   1   9
ATOM      3  C   UNL     1     104.558 124.399  83.711  0.00  0.00    +0.000 C 
ATOM      4  C   UNL     1     104.551 123.137  82.893  0.00  0.00    +0.000 A 
ATOM      5  C   UNL     1     104.379 121.907  83.553  0.00  0.00    +0.000 A 
ATOM      6  C   UNL     1     104.367 120.707  82.843  0.00  0.00    +0.000 A 
ATOM      7  C   UNL     1     104.520 120.714  81.460  0.00  0.00    +0.000 A 
ATOM      8  C   UNL     1     104.684 121.923  80.786  0.00  0.00    +0.000 A 
ATOM      9  C   UNL     1     104.699 123.141  81.489  0.00  0.00    +0.000 A 
ENDBRANCH   1   9
BRANCH   1  10
ATOM     10  O   UNL     1     103.629 124.826  80.287  0.00  0.00    +0.000 OA
BRANCH  10  11
ATOM     11  C   UNL     1     103.501 126.247  80.188  0.00  0.00    +0.000 C 
BRANCH  11  12
ATOM     12  C   UNL     1     102.848 126.756  81.449  0.00  0.00    +0.000 A 
ATOM     13  C   UNL     1     103.314 127.921  82.077  0.00  0.00    +0.000 A 
ATOM     14  C   UNL     1     102.708 128.376  83.248  0.00  0.00    +0.000 A 
ATOM     15  C   UNL     1     101.638 127.683  83.809  0.00  0.00    +0.000 A 
ATOM     16  C   UNL     1     101.168 126.523  83.193  0.00  0.00    +0.000 A 
ATOM     17  C   UNL     1     101.770 126.062  82.021  0.00  0.00    +0.000 A 
ATOM     18 CL   UNL     1     103.291 129.806  84.010  0.00  0.00    +0.000 Cl
ENDBRANCH  11  12
ENDBRANCH  10  11
ENDBRANCH   1  10
TORSDOF 4
ENDMDL
