REMARK  Name = *****
REMARK  4 active torsions:
REMARK  status: ('A' for Active; 'I' for Inactive)
REMARK    1  A    between atoms: C_1  and  C_2
REMARK    2  A    between atoms: C_4  and  O_8
REMARK    3  A    between atoms: O_8  and  C_9
REMARK    4  A    between atoms: C_9  and  C_11
REMARK                            x       y       z     vdW  Elec       q    Type
REMARK                         _______ _______ _______ _____ _____    ______ ____
ROOT
ATOM      1  C   UNL     1      -1.344   3.535  -0.643  0.00  0.00    +0.000 C 
ATOM      2  O   UNL     1      -0.470   3.506  -1.496  0.00  0.00    +0.000 OA
ENDROOT
BRANCH   1   3
ATOM      3  C   UNL     1      -2.157   4.743  -0.390  0.00  0.00    +0.000 A 
ATOM      4  C   UNL     1      -3.455   4.678   0.120  0.00  0.00    +0.000 A 
ATOM      5  C   UNL     1      -4.181   5.846   0.330  0.00  0.00    +0.000 A 
ATOM      6  C   UNL     1      -3.620   7.080   0.026  0.00  0.00    +0.000 A 
ATOM      7  C   UNL     1      -2.333   7.164  -0.497  0.00  0.00    +0.000 A 
ATOM      8  C   UNL     1      -1.601   5.994  -0.710  0.00  0.00    +0.000 A 
ATOM      9  F   UNL     1      -4.319   8.205   0.228  0.00  0.00    +0.000 F 
ATOM     10  F   UNL     1      -5.427   5.779   0.820  0.00  0.00    +0.000 F 
ATOM     11  F   UNL     1      -4.038   3.501   0.388  0.00  0.00    +0.000 F 
ENDBRANCH   1   3
BRANCH   1  12
ATOM     12  O   UNL     1      -1.682   2.549   0.262  0.00  0.00    +0.000 OA
BRANCH  12  16
ATOM     13  C   UNL     1       2.529  -0.069   0.394  0.00  0.00    +0.000 C 
ATOM     14  C   UNL     1       1.042   0.028   0.225  0.00  0.00    +0.000 A 
ATOM     15  C   UNL     1       0.397   1.269   0.299  0.00  0.00    +0.000 A 
ATOM     16  C   UNL     1      -0.989   1.336   0.148  0.00  0.00    +0.000 A 
ATOM     17  C   UNL     1      -1.752   0.184  -0.023  0.00  0.00    +0.000 A 
ATOM     18  C   UNL     1      -1.116  -1.054  -0.080  0.00  0.00    +0.000 A 
ATOM     19  C   UNL     1       0.274  -1.131   0.045  0.00  0.00    +0.000 A 
ENDBRANCH  12  16
ENDBRANCH   1  12
TORSDOF 3
