MODEL 1
REMARK VINA RESULT:      -4.7      0.000      0.000
REMARK  Name = *****
REMARK  4 active torsions:
REMARK  status: ('A' for Active; 'I' for Inactive)
REMARK    1  A    between atoms: C_4  and  C_7
REMARK    2  A    between atoms: C_7  and  C_8
REMARK    3  A    between atoms: C_8  and  C_16
REMARK    4  A    between atoms: C_9  and  C_10
REMARK                            x       y       z     vdW  Elec       q    Type
REMARK                         _______ _______ _______ _____ _____    ______ ____
ROOT
ATOM      1  C   UNL     1      88.419  71.895  84.025  0.00  0.00    +0.000 C 
ATOM      2  C   UNL     1      89.554  71.344  84.496  0.00  0.00    +0.000 C 
ENDROOT
BRANCH   2   3
ATOM      3  C   UNL     1      89.660  69.974  85.004  0.00  0.00    +0.000 A 
ATOM      4  C   UNL     1      89.561  69.734  86.378  0.00  0.00    +0.000 A 
ATOM      5  C   UNL     1      89.663  68.433  86.873  0.00  0.00    +0.000 A 
ATOM      6  C   UNL     1      89.858  67.366  85.995  0.00  0.00    +0.000 A 
ATOM      7  C   UNL     1      89.952  67.600  84.624  0.00  0.00    +0.000 A 
ATOM      8  C   UNL     1      89.851  68.901  84.127  0.00  0.00    +0.000 A 
ENDBRANCH   2   3
BRANCH   1   9
ATOM      9  C   UNL     1      88.528  73.307  83.568  0.00  0.00    +0.000 C 
ATOM     10  O   UNL     1      89.556  73.967  83.667  0.00  0.00    +0.000 OA
ENDBRANCH   1   9
BRANCH   1  11
ATOM     11  C   UNL     1      87.055  71.256  83.955  0.00  0.00    +0.000 C 
BRANCH  11  15
ATOM     12  C   UNL     1      84.438  72.399  87.198  0.00  0.00    +0.000 A 
ATOM     13  C   UNL     1      85.638  71.744  87.467  0.00  0.00    +0.000 A 
ATOM     14  C   UNL     1      86.486  71.380  86.420  0.00  0.00    +0.000 A 
ATOM     15  C   UNL     1      86.143  71.667  85.090  0.00  0.00    +0.000 A 
ATOM     16  C   UNL     1      84.933  72.328  84.834  0.00  0.00    +0.000 A 
ATOM     17  C   UNL     1      84.086  72.692  85.881  0.00  0.00    +0.000 A 
ENDBRANCH  11  15
ENDBRANCH   1  11
TORSDOF 4
ENDMDL
