MODEL 1
REMARK VINA RESULT:      -4.1      0.000      0.000
REMARK  Name = *****
REMARK  4 active torsions:
REMARK  status: ('A' for Active; 'I' for Inactive)
REMARK    1  A    between atoms: C_1  and  C_2
REMARK    2  A    between atoms: C_7  and  S_8
REMARK    3  A    between atoms: S_8  and  C_9
REMARK    4  A    between atoms: C_9  and  C_11
REMARK                            x       y       z     vdW  Elec       q    Type
REMARK                         _______ _______ _______ _____ _____    ______ ____
ROOT
ATOM      1  S   UNL     1      89.070  68.282  84.453  0.00  0.00    +0.000 S 
ENDROOT
BRANCH   1   8
ATOM      2  C   UNL     1      86.779  70.486  84.623  0.00  0.00    +0.000 C 
ATOM      3  C   UNL     1      88.175  70.941  84.299  0.00  0.00    +0.000 A 
ATOM      4  C   UNL     1      88.407  72.310  84.078  0.00  0.00    +0.000 A 
ATOM      5  C   UNL     1      89.685  72.781  83.775  0.00  0.00    +0.000 A 
ATOM      6  C   UNL     1      90.750  71.892  83.686  0.00  0.00    +0.000 A 
ATOM      7  C   UNL     1      90.538  70.531  83.903  0.00  0.00    +0.000 A 
ATOM      8  C   UNL     1      89.259  70.046  84.216  0.00  0.00    +0.000 A 
ENDBRANCH   1   8
BRANCH   1   9
ATOM      9  C   UNL     1      89.608  68.127  86.123  0.00  0.00    +0.000 C 
ATOM     10  O   UNL     1      90.547  67.397  86.421  0.00  0.00    +0.000 OA
BRANCH   9  11
ATOM     11  C   UNL     1      88.878  68.892  87.180  0.00  0.00    +0.000 A 
ATOM     12  C   UNL     1      89.336  70.101  87.729  0.00  0.00    +0.000 A 
ATOM     13  C   UNL     1      88.594  70.756  88.717  0.00  0.00    +0.000 A 
ATOM     14  C   UNL     1      87.392  70.215  89.167  0.00  0.00    +0.000 A 
ATOM     15  C   UNL     1      86.926  69.017  88.631  0.00  0.00    +0.000 A 
ATOM     16  C   UNL     1      87.663  68.360  87.644  0.00  0.00    +0.000 A 
ENDBRANCH   9  11
ENDBRANCH   1   9
TORSDOF 3
ENDMDL
