MODEL 1
REMARK VINA RESULT:      -4.9      0.000      0.000
REMARK  Name = *****
REMARK  2 active torsions:
REMARK  status: ('A' for Active; 'I' for Inactive)
REMARK    1  A    between atoms: C_4  and  C_7
REMARK    2  A    between atoms: C_8  and  C_9
REMARK                            x       y       z     vdW  Elec       q    Type
REMARK                         _______ _______ _______ _____ _____    ______ ____
ROOT
ATOM      1  C   UNL     1     102.094 126.307  81.920  0.00  0.00    +0.000 C 
ATOM      2  C   UNL     1     102.971 125.660  81.414  0.00  0.00    +0.000 C 
ENDROOT
BRANCH   2   3
ATOM      3  C   UNL     1     104.017 124.893  80.814  0.00  0.00    +0.000 A 
ATOM      4  C   UNL     1     104.298 123.607  81.281  0.00  0.00    +0.000 A 
ATOM      5  C   UNL     1     105.317 122.869  80.687  0.00  0.00    +0.000 A 
ATOM      6  C   UNL     1     106.063 123.388  79.637  0.00  0.00    +0.000 A 
ATOM      7  C   UNL     1     105.775 124.667  79.183  0.00  0.00    +0.000 A 
ATOM      8  C   UNL     1     104.761 125.426  79.760  0.00  0.00    +0.000 A 
ATOM      9  F   UNL     1     106.486 125.181  78.171  0.00  0.00    +0.000 F 
ATOM     10  F   UNL     1     105.583 121.635  81.136  0.00  0.00    +0.000 F 
ENDBRANCH   2   3
BRANCH   1  14
ATOM     11  C   UNL     1      99.015 128.589  83.695  0.00  0.00    +0.000 A 
ATOM     12  C   UNL     1     100.349 128.952  83.883  0.00  0.00    +0.000 A 
ATOM     13  C   UNL     1     101.367 128.197  83.297  0.00  0.00    +0.000 A 
ATOM     14  C   UNL     1     101.051 127.079  82.522  0.00  0.00    +0.000 A 
ATOM     15  C   UNL     1      99.715 126.717  82.336  0.00  0.00    +0.000 A 
ATOM     16  C   UNL     1      98.698 127.473  82.922  0.00  0.00    +0.000 A 
ENDBRANCH   1  14
TORSDOF 2
ENDMDL
