REMARK  Name = *****
REMARK  3 active torsions:
REMARK  status: ('A' for Active; 'I' for Inactive)
REMARK    1  A    between atoms: C_6  and  C_16
REMARK    2  A    between atoms: C_7  and  C_8
REMARK    3  A    between atoms: C_9  and  C_10
REMARK                            x       y       z     vdW  Elec       q    Type
REMARK                         _______ _______ _______ _____ _____    ______ ____
ROOT
ATOM      1  C   UNL     1      -0.151  -0.034  -1.291  0.00  0.00    +0.000 C 
ATOM      2  C   UNL     1      -0.003  -1.149  -0.245  0.00  0.00    +0.000 C 
ATOM      3  C   UNL     1       1.244  -0.615   0.443  0.00  0.00    +0.000 C 
ATOM      4  C   UNL     1       1.148   0.730   0.448  0.00  0.00    +0.000 C 
ATOM      5  C   UNL     1      -0.163   1.086  -0.236  0.00  0.00    +0.000 C 
ATOM      6  C   UNL     1      -1.309   0.560   0.609  0.00  0.00    +0.000 C 
ATOM      7  C   UNL     1      -1.215  -0.787   0.601  0.00  0.00    +0.000 C 
ENDROOT
BRANCH   6   8
ATOM      8  C   UNL     1      -2.237   1.498   1.263  0.00  0.00    +0.000 C 
ATOM      9  F   UNL     1      -1.570   2.459   1.953  0.00  0.00    +0.000 F 
ATOM     10  F   UNL     1      -3.003   2.144   0.347  0.00  0.00    +0.000 F 
ATOM     11  F   UNL     1      -3.087   0.908   2.138  0.00  0.00    +0.000 F 
ENDBRANCH   6   8
BRANCH   7  12
ATOM     12  C   UNL     1      -2.077  -1.703   1.240  0.00  0.00    +0.000 C 
ATOM     13  C   UNL     1      -2.825  -2.476   1.774  0.00  0.00    +0.000 C 
BRANCH  13  14
ATOM     14  C   UNL     1      -3.735  -3.381   2.403  0.00  0.00    +0.000 A 
ATOM     15  C   UNL     1      -3.468  -4.752   2.413  0.00  0.00    +0.000 A 
ATOM     16  C   UNL     1      -4.363  -5.634   3.023  0.00  0.00    +0.000 A 
ATOM     17  C   UNL     1      -5.524  -5.146   3.622  0.00  0.00    +0.000 A 
ATOM     18  C   UNL     1      -5.792  -3.777   3.614  0.00  0.00    +0.000 A 
ATOM     19  C   UNL     1      -4.898  -2.894   3.005  0.00  0.00    +0.000 A 
ENDBRANCH  13  14
ENDBRANCH   7  12
TORSDOF 3
