MODEL 1
REMARK VINA RESULT:      -4.5      0.000      0.000
REMARK  Name = *****
REMARK  4 active torsions:
REMARK  status: ('A' for Active; 'I' for Inactive)
REMARK    1  A    between atoms: C_1  and  C_2
REMARK    2  A    between atoms: C_7  and  C_8
REMARK    3  A    between atoms: C_8  and  N_10
REMARK    4  A    between atoms: N_10  and  C_11
REMARK                            x       y       z     vdW  Elec       q    Type
REMARK                         _______ _______ _______ _____ _____    ______ ____
ROOT
ATOM      1  C   UNL     1      87.831  63.610  86.633  0.00  0.00    +0.000 C 
ATOM      2  S   UNL     1      86.519  63.610  85.590  0.00  0.00    +0.000 S 
ENDROOT
BRANCH   1   9
ATOM      3  C   UNL     1      87.971  66.499  87.337  0.00  0.00    +0.000 C 
ATOM      4  C   UNL     1      89.083  65.804  86.603  0.00  0.00    +0.000 A 
ATOM      5  C   UNL     1      90.209  66.536  86.197  0.00  0.00    +0.000 A 
ATOM      6  C   UNL     1      91.253  65.917  85.505  0.00  0.00    +0.000 A 
ATOM      7  C   UNL     1      91.189  64.559  85.203  0.00  0.00    +0.000 A 
ATOM      8  C   UNL     1      90.076  63.813  85.589  0.00  0.00    +0.000 A 
ATOM      9  C   UNL     1      89.030  64.432  86.289  0.00  0.00    +0.000 A 
ENDBRANCH   1   9
BRANCH   1  10
ATOM     10  N   UNL     1      87.997  62.978  87.859  0.00  0.00    +0.000 N 
ATOM     11  H   UNL     1      88.245  62.028  87.780  0.00  0.00    +0.000 HD
BRANCH  10  12
ATOM     12  C   UNL     1      87.882  63.421  89.197  0.00  0.00    +0.000 A 
ATOM     13  C   UNL     1      86.690  63.624  89.890  0.00  0.00    +0.000 A 
ATOM     14  C   UNL     1      86.700  64.054  91.223  0.00  0.00    +0.000 A 
ATOM     15  C   UNL     1      87.905  64.279  91.882  0.00  0.00    +0.000 A 
ATOM     16  C   UNL     1      89.103  64.071  91.210  0.00  0.00    +0.000 A 
ATOM     17  C   UNL     1      89.090  63.641  89.880  0.00  0.00    +0.000 A 
ENDBRANCH  10  12
ENDBRANCH   1  10
TORSDOF 3
ENDMDL
