MODEL 1
REMARK VINA RESULT:      -4.9      0.000      0.000
REMARK  Name = *****
REMARK  1 active torsions:
REMARK  status: ('A' for Active; 'I' for Inactive)
REMARK    1  A    between atoms: C_6  and  C_7
REMARK                            x       y       z     vdW  Elec       q    Type
REMARK                         _______ _______ _______ _____ _____    ______ ____
ROOT
ATOM      1  C   UNL     1     102.358 126.155  82.355  0.00  0.00    +0.000 A 
ATOM      2  N   UNL     1     102.561 127.302  82.980  0.00  0.00    +0.000 NA
ATOM      3  C   UNL     1     101.305 127.841  83.096  0.00  0.00    +0.000 A 
ATOM      4  C   UNL     1     100.374 126.984  82.529  0.00  0.00    +0.000 A 
ATOM      5  O   UNL     1     101.044 125.898  82.050  0.00  0.00    +0.000 OA
ATOM      6  C   UNL     1      99.006 127.222  82.476  0.00  0.00    +0.000 A 
ATOM      7  C   UNL     1      98.582 128.427  83.047  0.00  0.00    +0.000 A 
ATOM      8  C   UNL     1      99.499 129.310  83.624  0.00  0.00    +0.000 A 
ATOM      9  C   UNL     1     100.869 129.043  83.663  0.00  0.00    +0.000 A 
ATOM     10  F   UNL     1      99.045 130.453  84.158  0.00  0.00    +0.000 F 
ENDROOT
BRANCH   1  16
ATOM     11  C   UNL     1     103.883 124.234  82.876  0.00  0.00    +0.000 A 
ATOM     12  C   UNL     1     104.815 123.276  82.462  0.00  0.00    +0.000 A 
ATOM     13  C   UNL     1     105.202 123.226  81.130  0.00  0.00    +0.000 A 
ATOM     14  C   UNL     1     104.676 124.113  80.199  0.00  0.00    +0.000 A 
ATOM     15  C   UNL     1     103.744 125.069  80.611  0.00  0.00    +0.000 A 
ATOM     16  C   UNL     1     103.335 125.144  81.955  0.00  0.00    +0.000 A 
ATOM     17  F   UNL     1     106.094 122.308  80.736  0.00  0.00    +0.000 F 
ENDBRANCH   1  16
TORSDOF 1
ENDMDL
