REMARK  Name = *****
REMARK  3 active torsions:
REMARK  status: ('A' for Active; 'I' for Inactive)
REMARK    1  A    between atoms: C_4  and  S_7
REMARK    2  A    between atoms: S_7  and  C_8
REMARK    3  A    between atoms: C_8  and  C_9
REMARK                            x       y       z     vdW  Elec       q    Type
REMARK                         _______ _______ _______ _____ _____    ______ ____
ROOT
ATOM      1  C   UNL     1      -3.941  -0.876  -0.519  0.00  0.00    +0.000 C 
ENDROOT
BRANCH   1   2
ATOM      2  C   UNL     1      -5.427  -0.625  -0.601  0.00  0.00    +0.000 A 
ATOM      3  C   UNL     1      -5.924   0.124  -1.686  0.00  0.00    +0.000 A 
ATOM      4  C   UNL     1      -7.287   0.398  -1.809  0.00  0.00    +0.000 A 
ATOM      5  C   UNL     1      -8.179  -0.065  -0.847  0.00  0.00    +0.000 A 
ATOM      6  C   UNL     1      -7.707  -0.798   0.240  0.00  0.00    +0.000 A 
ATOM      7  C   UNL     1      -6.341  -1.075   0.368  0.00  0.00    +0.000 A 
ATOM      8 BR   UNL     1      -5.802  -2.070   1.895  0.00  0.00    +0.000 Br
ENDBRANCH   1   2
BRANCH   1   9
ATOM      9  S   UNL     1      -3.094   0.425   0.439  0.00  0.00    +0.000 S 
BRANCH   9  13
ATOM     10  C   UNL     1       1.128  -1.347   0.531  0.00  0.00    +0.000 A 
ATOM     11  C   UNL     1       0.606  -0.866  -0.668  0.00  0.00    +0.000 A 
ATOM     12  C   UNL     1      -0.680  -0.324  -0.704  0.00  0.00    +0.000 A 
ATOM     13  C   UNL     1      -1.453  -0.267   0.461  0.00  0.00    +0.000 A 
ATOM     14  C   UNL     1      -0.920  -0.740   1.663  0.00  0.00    +0.000 A 
ATOM     15  C   UNL     1       0.367  -1.282   1.697  0.00  0.00    +0.000 A 
ENDBRANCH   9  13
ENDBRANCH   1   9
TORSDOF 3
