MODEL 1
REMARK VINA RESULT:      -4.9      0.000      0.000
REMARK  Name = *****
REMARK  1 active torsions:
REMARK  status: ('A' for Active; 'I' for Inactive)
REMARK    1  A    between atoms: C_8  and  C_10
REMARK                            x       y       z     vdW  Elec       q    Type
REMARK                         _______ _______ _______ _____ _____    ______ ____
ROOT
ATOM      1  C   UNL     1     105.233 123.163  81.489  0.00  0.00    +0.000 A 
ATOM      2  C   UNL     1     105.184 123.819  80.252  0.00  0.00    +0.000 A 
ATOM      3  C   UNL     1     104.330 124.908  80.036  0.00  0.00    +0.000 A 
ATOM      4  C   UNL     1     103.549 125.282  81.122  0.00  0.00    +0.000 A 
ATOM      5  C   UNL     1     103.567 124.663  82.361  0.00  0.00    +0.000 A 
ATOM      6  C   UNL     1     104.426 123.575  82.561  0.00  0.00    +0.000 A 
ATOM      7  N   UNL     1     102.679 125.282  83.204  0.00  0.00    +0.000 NA
ATOM      8  C   UNL     1     102.155 126.240  82.461  0.00  0.00    +0.000 A 
ATOM      9  O   UNL     1     102.641 126.298  81.177  0.00  0.00    +0.000 OA
ENDROOT
BRANCH   8  10
ATOM     10  C   UNL     1     101.144 127.227  82.824  0.00  0.00    +0.000 A 
ATOM     11  C   UNL     1      99.791 126.958  82.566  0.00  0.00    +0.000 A 
ATOM     12  C   UNL     1      98.812 127.889  82.905  0.00  0.00    +0.000 A 
ATOM     13  C   UNL     1      99.146 129.097  83.499  0.00  0.00    +0.000 A 
ATOM     14  C   UNL     1     100.482 129.365  83.755  0.00  0.00    +0.000 A 
ATOM     15  C   UNL     1     101.479 128.448  83.426  0.00  0.00    +0.000 A 
ATOM     16  F   UNL     1     100.822 130.527  84.326  0.00  0.00    +0.000 F 
ATOM     17  F   UNL     1      97.527 127.614  82.652  0.00  0.00    +0.000 F 
ENDBRANCH   8  10
TORSDOF 1
ENDMDL
