REMARK  Name = *****
REMARK  6 active torsions:
REMARK  status: ('A' for Active; 'I' for Inactive)
REMARK    1  A    between atoms: C_1  and  C_2
REMARK    2  A    between atoms: C_2  and  C_3
REMARK    3  A    between atoms: C_2  and  C_4
REMARK    4  A    between atoms: C_4  and  C_5
REMARK    5  A    between atoms: C_8  and  C_10
REMARK    6  A    between atoms: C_11  and  C_12
REMARK                            x       y       z     vdW  Elec       q    Type
REMARK                         _______ _______ _______ _____ _____    ______ ____
ROOT
ATOM      1  C   UNL     1       4.821   1.430   0.299  0.00  0.00    +0.000 C 
ATOM      2  C   UNL     1       4.954   2.306   1.542  0.00  0.00    +0.000 C 
ATOM      3  O   UNL     1       5.129   3.619   1.034  0.00  0.00    +0.000 OA
ATOM      4  C   UNL     1       5.522   3.392  -0.237  0.00  0.00    +0.000 C 
ATOM      5  N   UNL     1       5.471   2.217  -0.769  0.00  0.00    +0.000 NA
ENDROOT
BRANCH   4   6
ATOM      6  C   UNL     1       6.020   4.469  -1.023  0.00  0.00    +0.000 C 
ATOM      7  C   UNL     1       6.438   5.381  -1.685  0.00  0.00    +0.000 C 
BRANCH   7   8
ATOM      8  C   UNL     1       6.935   6.465  -2.475  0.00  0.00    +0.000 A 
ATOM      9  C   UNL     1       6.808   7.779  -2.019  0.00  0.00    +0.000 A 
ATOM     10  C   UNL     1       7.292   8.836  -2.792  0.00  0.00    +0.000 A 
ATOM     11  C   UNL     1       7.903   8.581  -4.020  0.00  0.00    +0.000 A 
ATOM     12  C   UNL     1       8.031   7.269  -4.476  0.00  0.00    +0.000 A 
ATOM     13  C   UNL     1       7.547   6.210  -3.704  0.00  0.00    +0.000 A 
ENDBRANCH   7   8
ENDBRANCH   4   6
BRANCH   1  14
ATOM     14  C   UNL     1       5.492   0.066   0.474  0.00  0.00    +0.000 C 
BRANCH  14  16
ATOM     15  C   UNL     1       5.478  -0.627  -1.997  0.00  0.00    +0.000 C 
ATOM     16  C   UNL     1       5.075  -0.992  -0.569  0.00  0.00    +0.000 C 
ATOM     17  C   UNL     1       5.685  -2.347  -0.196  0.00  0.00    +0.000 C 
ENDBRANCH  14  16
ENDBRANCH   1  14
TORSDOF 4
