MODEL 1
REMARK VINA RESULT:      -4.5      0.000      0.000
REMARK  Name = *****
REMARK  6 active torsions:
REMARK  status: ('A' for Active; 'I' for Inactive)
REMARK    1  A    between atoms: C_1  and  C_2
REMARK    2  A    between atoms: C_2  and  N_3
REMARK    3  A    between atoms: N_3  and  C_4
REMARK    4  A    between atoms: N_3  and  C_11
REMARK    5  A    between atoms: C_4  and  C_5
REMARK    6  A    between atoms: C_14  and  N_17
REMARK                            x       y       z     vdW  Elec       q    Type
REMARK                         _______ _______ _______ _____ _____    ______ ____
ROOT
ATOM      1  N   UNL     1     103.129 126.435  81.503  0.00  0.00    +0.000 N 
ENDROOT
BRANCH   1   2
ATOM      2  C   UNL     1     103.699 125.160  81.569  0.00  0.00    +0.000 A 
ATOM      3  C   UNL     1     103.805 124.418  82.753  0.00  0.00    +0.000 A 
ATOM      4  C   UNL     1     104.400 123.145  82.776  0.00  0.00    +0.000 A 
ATOM      5  C   UNL     1     104.913 122.571  81.609  0.00  0.00    +0.000 A 
ATOM      6  C   UNL     1     104.836 123.306  80.426  0.00  0.00    +0.000 A 
ATOM      7  C   UNL     1     104.241 124.575  80.411  0.00  0.00    +0.000 A 
BRANCH   5   8
ATOM      8  N   UNL     1     105.523 121.332  81.576  0.00  0.00    +0.000 NA
ATOM      9  O   UNL     1     104.815 120.410  82.001  0.00  0.00    +0.000 OA
ENDBRANCH   5   8
ENDBRANCH   1   2
BRANCH   1  11
ATOM     10  C   UNL     1     104.397 128.493  80.987  0.00  0.00    +0.000 C 
ATOM     11  C   UNL     1     103.520 127.375  80.438  0.00  0.00    +0.000 C 
ENDBRANCH   1  11
BRANCH   1  12
ATOM     12  C   UNL     1     102.826 127.063  82.805  0.00  0.00    +0.000 C 
BRANCH  12  13
ATOM     13  C   UNL     1     101.365 127.454  82.918  0.00  0.00    +0.000 A 
ATOM     14  C   UNL     1     100.981 128.675  83.493  0.00  0.00    +0.000 A 
ATOM     15  C   UNL     1      99.635 129.039  83.559  0.00  0.00    +0.000 A 
ATOM     16  C   UNL     1      98.657 128.194  83.039  0.00  0.00    +0.000 A 
ATOM     17  C   UNL     1      99.025 126.985  82.451  0.00  0.00    +0.000 A 
ATOM     18  C   UNL     1     100.371 126.618  82.386  0.00  0.00    +0.000 A 
ENDBRANCH  12  13
ENDBRANCH   1  12
TORSDOF 5
ENDMDL
