MODEL 1
REMARK VINA RESULT:      -4.6      0.000      0.000
REMARK  Name = *****
REMARK  5 active torsions:
REMARK  status: ('A' for Active; 'I' for Inactive)
REMARK    1  A    between atoms: C_1  and  C_2
REMARK    2  A    between atoms: C_5  and  C_8
REMARK    3  A    between atoms: C_8  and  N_10
REMARK    4  A    between atoms: N_10  and  C_11
REMARK    5  A    between atoms: N_10  and  C_12
REMARK                            x       y       z     vdW  Elec       q    Type
REMARK                         _______ _______ _______ _____ _____    ______ ____
ROOT
ATOM      1  C   UNL     1      88.235  70.575  86.387  0.00  0.00    +0.000 C 
ATOM      2  C   UNL     1      89.001  70.088  87.380  0.00  0.00    +0.000 C 
ENDROOT
BRANCH   1   7
ATOM      3  C   UNL     1      83.176  72.906  88.047  0.00  0.00    +0.000 C 
ATOM      4  C   UNL     1      84.492  72.334  87.614  0.00  0.00    +0.000 A 
ATOM      5  C   UNL     1      84.795  72.198  86.255  0.00  0.00    +0.000 A 
ATOM      6  C   UNL     1      86.007  71.631  85.851  0.00  0.00    +0.000 A 
ATOM      7  C   UNL     1      86.936  71.178  86.799  0.00  0.00    +0.000 A 
ATOM      8  C   UNL     1      86.621  71.299  88.159  0.00  0.00    +0.000 A 
ATOM      9  C   UNL     1      85.408  71.866  88.563  0.00  0.00    +0.000 A 
ENDBRANCH   1   7
BRANCH   1  10
ATOM     10  N   UNL     1      88.510  70.463  85.014  0.00  0.00    +0.000 N 
ATOM     11  C   UNL     1      88.440  69.178  84.308  0.00  0.00    +0.000 C 
BRANCH  10  12
ATOM     12  C   UNL     1      89.404  71.353  84.347  0.00  0.00    +0.000 A 
ATOM     13  C   UNL     1      89.006  72.641  83.953  0.00  0.00    +0.000 A 
ATOM     14  C   UNL     1      89.896  73.501  83.307  0.00  0.00    +0.000 A 
ATOM     15  C   UNL     1      91.200  73.088  83.042  0.00  0.00    +0.000 A 
ATOM     16  C   UNL     1      91.613  71.813  83.422  0.00  0.00    +0.000 A 
ATOM     17  C   UNL     1      90.721  70.954  84.069  0.00  0.00    +0.000 A 
ENDBRANCH  10  12
ENDBRANCH   1  10
TORSDOF 3
ENDMDL
