MODEL 1
REMARK VINA RESULT:      -4.5      0.000      0.000
REMARK  Name = *****
REMARK  3 active torsions:
REMARK  status: ('A' for Active; 'I' for Inactive)
REMARK    1  A    between atoms: C_4  and  N_7
REMARK    2  A    between atoms: N_7  and  N_17
REMARK    3  A    between atoms: C_8  and  C_10
REMARK                            x       y       z     vdW  Elec       q    Type
REMARK                         _______ _______ _______ _____ _____    ______ ____
ROOT
ATOM      1  N   UNL     1     100.350 127.775  83.352  0.00  0.00    +0.000 N 
ATOM      2  C   UNL     1     101.735 127.593  83.547  0.00  0.00    +0.000 C 
ATOM      3  O   UNL     1     102.399 128.002  84.501  0.00  0.00    +0.000 OA
ENDROOT
BRANCH   2   4
ATOM      4  C   UNL     1     102.502 126.826  82.527  0.00  0.00    +0.000 A 
ATOM      5  C   UNL     1     102.913 127.423  81.327  0.00  0.00    +0.000 A 
ATOM      6  C   UNL     1     103.661 126.684  80.406  0.00  0.00    +0.000 A 
ATOM      7  C   UNL     1     104.009 125.362  80.693  0.00  0.00    +0.000 A 
ATOM      8  C   UNL     1     103.623 124.774  81.897  0.00  0.00    +0.000 A 
ATOM      9  C   UNL     1     102.875 125.508  82.820  0.00  0.00    +0.000 A 
ATOM     10 CL   UNL     1     104.930 124.458  79.556  0.00  0.00    +0.000 Cl
ENDBRANCH   2   4
BRANCH   1  14
ATOM     11  C   UNL     1      98.022 130.334  85.868  0.00  0.00    +0.000 A 
ATOM     12  C   UNL     1      98.845 130.874  84.887  0.00  0.00    +0.000 A 
ATOM     13  C   UNL     1      99.607 130.033  84.065  0.00  0.00    +0.000 A 
ATOM     14  C   UNL     1      99.565 128.635  84.206  0.00  0.00    +0.000 A 
ATOM     15  C   UNL     1      98.720 128.116  85.206  0.00  0.00    +0.000 A 
ATOM     16  C   UNL     1      97.958 128.955  86.028  0.00  0.00    +0.000 A 
ENDBRANCH   1  14
BRANCH   1  17
ATOM     17  N   UNL     1      99.716 126.895  82.452  0.00  0.00    +0.000 NA
ATOM     18  O   UNL     1      98.628 127.310  82.034  0.00  0.00    +0.000 OA
ENDBRANCH   1  17
TORSDOF 3
ENDMDL
