MODEL 1
REMARK VINA RESULT:      -4.0      0.000      0.000
REMARK  Name = *****
REMARK  2 active torsions:
REMARK  status: ('A' for Active; 'I' for Inactive)
REMARK    1  A    between atoms: C_4  and  C_6
REMARK    2  A    between atoms: C_7  and  C_10
REMARK                            x       y       z     vdW  Elec       q    Type
REMARK                         _______ _______ _______ _____ _____    ______ ____
ROOT
ATOM      1  C   UNL     1     102.449 125.507  82.165  0.00  0.00    +0.000 C 
ATOM      2  C   UNL     1     102.251 126.716  82.684  0.00  0.00    +0.000 C 
ATOM      3  C   UNL     1     102.734 125.669  83.597  0.00  0.00    +0.000 C 
ATOM      4  O   UNL     1     102.225 125.162  84.567  0.00  0.00    +0.000 OA
ENDROOT
BRANCH   1   8
ATOM      5  C   UNL     1     105.253 124.238  80.049  0.00  0.00    +0.000 A 
ATOM      6  C   UNL     1     105.320 125.538  79.604  0.00  0.00    +0.000 A 
ATOM      7  S   UNL     1     104.149 126.530  80.351  0.00  0.00    +0.000 S 
ATOM      8  C   UNL     1     103.522 125.224  81.284  0.00  0.00    +0.000 A 
ATOM      9  C   UNL     1     104.218 124.057  81.014  0.00  0.00    +0.000 A 
ENDBRANCH   1   8
BRANCH   2  10
ATOM     10  C   UNL     1     100.958 127.282  82.831  0.00  0.00    +0.000 A 
ATOM     11  C   UNL     1      99.713 126.852  82.400  0.00  0.00    +0.000 A 
ATOM     12  C   UNL     1      98.660 127.741  82.760  0.00  0.00    +0.000 A 
ATOM     13  C   UNL     1      99.124 128.830  83.460  0.00  0.00    +0.000 A 
ATOM     14  S   UNL     1     100.818 128.775  83.678  0.00  0.00    +0.000 S 
ENDBRANCH   2  10
TORSDOF 2
ENDMDL
