MODEL 1
REMARK VINA RESULT:      -4.3      0.000      0.000
REMARK  Name = *****
REMARK  4 active torsions:
REMARK  status: ('A' for Active; 'I' for Inactive)
REMARK    1  A    between atoms: C_5  and  C_7
REMARK    2  A    between atoms: C_7  and  O_8
REMARK    3  A    between atoms: O_8  and  C_9
REMARK    4  A    between atoms: C_9  and  C_11
REMARK                            x       y       z     vdW  Elec       q    Type
REMARK                         _______ _______ _______ _____ _____    ______ ____
ROOT
ATOM      1  O   UNL     1      88.315  68.845  85.792  0.00  0.00    +0.000 OA
ENDROOT
BRANCH   1   2
ATOM      2  C   UNL     1      89.130  67.996  86.460  0.00  0.00    +0.000 C 
ATOM      3  O   UNL     1      90.351  68.021  86.466  0.00  0.00    +0.000 OA
BRANCH   2   4
ATOM      4  C   UNL     1      88.328  66.996  87.216  0.00  0.00    +0.000 A 
ATOM      5  C   UNL     1      87.134  67.330  87.873  0.00  0.00    +0.000 A 
ATOM      6  C   UNL     1      86.417  66.349  88.567  0.00  0.00    +0.000 A 
ATOM      7  C   UNL     1      86.890  65.039  88.607  0.00  0.00    +0.000 A 
ATOM      8  C   UNL     1      88.073  64.696  87.956  0.00  0.00    +0.000 A 
ATOM      9  C   UNL     1      88.792  65.672  87.261  0.00  0.00    +0.000 A 
ATOM     10 CL   UNL     1      86.006  63.837  89.463  0.00  0.00    +0.000 Cl
ENDBRANCH   2   4
ENDBRANCH   1   2
BRANCH   1  11
ATOM     11  C   UNL     1      88.564  70.242  85.996  0.00  0.00    +0.000 C 
BRANCH  11  16
ATOM     12  C   UNL     1      85.184  71.938  86.411  0.00  0.00    +0.000 A 
ATOM     13  C   UNL     1      85.074  72.047  87.795  0.00  0.00    +0.000 A 
ATOM     14  C   UNL     1      86.097  71.568  88.612  0.00  0.00    +0.000 A 
ATOM     15  C   UNL     1      87.235  70.983  88.048  0.00  0.00    +0.000 A 
ATOM     16  C   UNL     1      87.367  70.880  86.654  0.00  0.00    +0.000 A 
ATOM     17  C   UNL     1      86.320  71.355  85.845  0.00  0.00    +0.000 A 
ATOM     18 CL   UNL     1      88.450  70.393  89.125  0.00  0.00    +0.000 Cl
ENDBRANCH  11  16
ENDBRANCH   1  11
TORSDOF 4
ENDMDL
