MODEL 1
REMARK VINA RESULT:      -4.6      0.000      0.000
REMARK  Name = *****
REMARK  5 active torsions:
REMARK  status: ('A' for Active; 'I' for Inactive)
REMARK    1  A    between atoms: C_1  and  C_2
REMARK    2  A    between atoms: C_2  and  S_4
REMARK    3  A    between atoms: S_4  and  C_5
REMARK    4  A    between atoms: C_8  and  C_11
REMARK    5  A    between atoms: C_12  and  C_13
REMARK                            x       y       z     vdW  Elec       q    Type
REMARK                         _______ _______ _______ _____ _____    ______ ____
ROOT
ATOM      1  C   UNL     1     105.616 122.659  81.296  0.00  0.00    +0.000 A 
ATOM      2  C   UNL     1     105.100 122.932  82.565  0.00  0.00    +0.000 A 
ATOM      3  C   UNL     1     104.166 123.957  82.744  0.00  0.00    +0.000 A 
ATOM      4  C   UNL     1     103.747 124.738  81.660  0.00  0.00    +0.000 A 
ATOM      5  C   UNL     1     104.263 124.456  80.389  0.00  0.00    +0.000 A 
ATOM      6  C   UNL     1     105.197 123.431  80.209  0.00  0.00    +0.000 A 
ENDROOT
BRANCH   4   7
ATOM      7  C   UNL     1     102.740 125.800  81.799  0.00  0.00    +0.000 C 
ATOM      8  C   UNL     1     101.901 125.905  82.842  0.00  0.00    +0.000 C 
BRANCH   8   9
ATOM      9  C   UNL     1     100.904 126.976  82.985  0.00  0.00    +0.000 A 
ATOM     10  C   UNL     1     101.225 128.229  83.524  0.00  0.00    +0.000 A 
ATOM     11  C   UNL     1     100.257 129.233  83.614  0.00  0.00    +0.000 A 
ATOM     12  C   UNL     1      98.962 128.999  83.156  0.00  0.00    +0.000 A 
ATOM     13  C   UNL     1      98.636 127.763  82.603  0.00  0.00    +0.000 A 
ATOM     14  C   UNL     1      99.604 126.759  82.512  0.00  0.00    +0.000 A 
ENDBRANCH   8   9
ENDBRANCH   4   7
BRANCH   1  15
ATOM     15  S   UNL     1     106.828 121.378  81.060  0.00  0.00    +0.000 S 
BRANCH  15  17
ATOM     16  C   UNL     1     108.856 123.182  81.409  0.00  0.00    +0.000 C 
ATOM     17  C   UNL     1     108.192 122.285  80.404  0.00  0.00    +0.000 C 
ATOM     18  O   UNL     1     108.571 122.191  79.242  0.00  0.00    +0.000 OA
ENDBRANCH  15  17
ENDBRANCH   1  15
TORSDOF 4
ENDMDL
