MODEL 1
REMARK VINA RESULT:      -5.3      0.000      0.000
REMARK  Name = *****
REMARK  2 active torsions:
REMARK  status: ('A' for Active; 'I' for Inactive)
REMARK    1  A    between atoms: C_5  and  C_7
REMARK    2  A    between atoms: C_8  and  C_9
REMARK                            x       y       z     vdW  Elec       q    Type
REMARK                         _______ _______ _______ _____ _____    ______ ____
ROOT
ATOM      1  C   UNL     1     101.606 125.951  82.261  0.00  0.00    +0.000 C 
ATOM      2  C   UNL     1     102.895 125.761  82.583  0.00  0.00    +0.000 C 
ENDROOT
BRANCH   2   3
ATOM      3  C   UNL     1     103.707 124.629  82.113  0.00  0.00    +0.000 A 
ATOM      4  C   UNL     1     104.101 124.459  80.776  0.00  0.00    +0.000 A 
ATOM      5  C   UNL     1     104.897 123.386  80.384  0.00  0.00    +0.000 A 
ATOM      6  C   UNL     1     105.316 122.473  81.340  0.00  0.00    +0.000 A 
ATOM      7  C   UNL     1     104.958 122.618  82.675  0.00  0.00    +0.000 A 
ATOM      8  C   UNL     1     104.159 123.698  83.063  0.00  0.00    +0.000 A 
ATOM      9  F   UNL     1     106.084 121.439  80.973  0.00  0.00    +0.000 F 
ATOM     10  F   UNL     1     103.729 125.340  79.836  0.00  0.00    +0.000 F 
ENDBRANCH   2   3
BRANCH   1  15
ATOM     11  C   UNL     1     100.745 129.282  83.786  0.00  0.00    +0.000 A 
ATOM     12  C   UNL     1      99.363 129.346  83.614  0.00  0.00    +0.000 A 
ATOM     13  C   UNL     1      98.696 128.292  82.993  0.00  0.00    +0.000 A 
ATOM     14  C   UNL     1      99.412 127.179  82.554  0.00  0.00    +0.000 A 
ATOM     15  C   UNL     1     100.799 127.087  82.732  0.00  0.00    +0.000 A 
ATOM     16  C   UNL     1     101.459 128.164  83.343  0.00  0.00    +0.000 A 
ATOM     17  F   UNL     1      98.733 126.196  81.942  0.00  0.00    +0.000 F 
ENDBRANCH   1  15
TORSDOF 2
ENDMDL
