MODEL 1
REMARK VINA RESULT:      -4.2      0.000      0.000
REMARK  Name = *****
REMARK  6 active torsions:
REMARK  status: ('A' for Active; 'I' for Inactive)
REMARK    1  A    between atoms: C_1  and  O_2
REMARK    2  A    between atoms: O_2  and  C_3
REMARK    3  A    between atoms: C_3  and  C_5
REMARK    4  A    between atoms: C_8  and  C_10
REMARK    5  A    between atoms: C_10  and  C_11
REMARK    6  A    between atoms: C_11  and  C_12
REMARK                            x       y       z     vdW  Elec       q    Type
REMARK                         _______ _______ _______ _____ _____    ______ ____
ROOT
ATOM      1  C   UNL     1      89.291  66.293  86.439  0.00  0.00    +0.000 A 
ATOM      2  C   UNL     1      88.131  66.367  87.189  0.00  0.00    +0.000 A 
ATOM      3  C   UNL     1      87.756  67.708  87.490  0.00  0.00    +0.000 A 
ATOM      4  C   UNL     1      88.641  68.627  86.964  0.00  0.00    +0.000 A 
ATOM      5  S   UNL     1      89.910  67.858  86.112  0.00  0.00    +0.000 S 
ENDROOT
BRANCH   1   6
ATOM      6  C   UNL     1      89.994  65.128  85.933  0.00  0.00    +0.000 C 
ATOM      7  O   UNL     1      89.573  63.978  85.899  0.00  0.00    +0.000 OA
BRANCH   6   9
ATOM      8  C   UNL     1      91.920  64.472  84.767  0.00  0.00    +0.000 C 
ATOM      9  O   UNL     1      91.232  65.498  85.483  0.00  0.00    +0.000 OA
ENDBRANCH   6   9
ENDBRANCH   1   6
BRANCH   4  10
ATOM     10  C   UNL     1      88.592  70.124  87.063  0.00  0.00    +0.000 C 
BRANCH  10  11
ATOM     11  C   UNL     1      87.666  70.583  88.192  0.00  0.00    +0.000 C 
BRANCH  11  12
ATOM     12  C   UNL     1      86.445  71.290  87.656  0.00  0.00    +0.000 A 
ATOM     13  C   UNL     1      85.447  71.747  88.529  0.00  0.00    +0.000 A 
ATOM     14  C   UNL     1      84.309  72.382  88.031  0.00  0.00    +0.000 A 
ATOM     15  C   UNL     1      84.156  72.562  86.657  0.00  0.00    +0.000 A 
ATOM     16  C   UNL     1      85.139  72.107  85.781  0.00  0.00    +0.000 A 
ATOM     17  C   UNL     1      86.278  71.471  86.277  0.00  0.00    +0.000 A 
ENDBRANCH  11  12
ENDBRANCH  10  11
ENDBRANCH   4  10
TORSDOF 5
ENDMDL
