MODEL 1
REMARK VINA RESULT:      -4.6      0.000      0.000
REMARK  Name = *****
REMARK  4 active torsions:
REMARK  status: ('A' for Active; 'I' for Inactive)
REMARK    1  A    between atoms: C_1  and  C_2
REMARK    2  A    between atoms: C_2  and  C_3
REMARK    3  A    between atoms: C_2  and  N_9
REMARK    4  A    between atoms: C_10  and  C_12
REMARK                            x       y       z     vdW  Elec       q    Type
REMARK                         _______ _______ _______ _____ _____    ______ ____
ROOT
ATOM      1  N   UNL     1      89.081  68.570  86.759  0.00  0.00    +0.000 NA
ATOM      2  C   UNL     1      88.582  67.531  85.858  0.00  0.00    +0.000 C 
ATOM      3  O   UNL     1      87.923  67.777  87.112  0.00  0.00    +0.000 OA
ENDROOT
BRANCH   2   4
ATOM      4  C   UNL     1      89.400  66.271  85.740  0.00  0.00    +0.000 A 
ATOM      5  C   UNL     1      88.848  65.012  86.037  0.00  0.00    +0.000 A 
ATOM      6  C   UNL     1      89.596  63.838  85.909  0.00  0.00    +0.000 A 
ATOM      7  C   UNL     1      90.917  63.905  85.479  0.00  0.00    +0.000 A 
ATOM      8  C   UNL     1      91.494  65.134  85.175  0.00  0.00    +0.000 A 
ATOM      9  C   UNL     1      90.738  66.303  85.304  0.00  0.00    +0.000 A 
ATOM     10 CL   UNL     1      91.841  62.463  85.321  0.00  0.00    +0.000 Cl
ENDBRANCH   2   4
BRANCH   1  12
ATOM     11  C   UNL     1      89.693  70.796  85.981  0.00  0.00    +0.000 C 
ATOM     12  C   UNL     1      88.544  69.917  86.489  0.00  0.00    +0.000 C 
BRANCH  12  13
ATOM     13  C   UNL     1      87.928  70.551  87.731  0.00  0.00    +0.000 A 
ATOM     14  C   UNL     1      88.647  70.666  88.932  0.00  0.00    +0.000 A 
ATOM     15  C   UNL     1      88.073  71.267  90.054  0.00  0.00    +0.000 A 
ATOM     16  C   UNL     1      86.775  71.765  89.990  0.00  0.00    +0.000 A 
ATOM     17  C   UNL     1      86.047  71.663  88.806  0.00  0.00    +0.000 A 
ATOM     18  C   UNL     1      86.619  71.060  87.683  0.00  0.00    +0.000 A 
ENDBRANCH  12  13
ENDBRANCH   1  12
TORSDOF 3
ENDMDL
