MODEL 1
REMARK VINA RESULT:      -4.6      0.000      0.000
REMARK  Name = *****
REMARK  7 active torsions:
REMARK  status: ('A' for Active; 'I' for Inactive)
REMARK    1  A    between atoms: C_1  and  C_2
REMARK    2  A    between atoms: C_2  and  C_3
REMARK    3  A    between atoms: C_2  and  C_4
REMARK    4  A    between atoms: C_7  and  O_10
REMARK    5  A    between atoms: O_10  and  C_11
REMARK    6  A    between atoms: C_11  and  O_13
REMARK    7  A    between atoms: O_13  and  C_14
REMARK                            x       y       z     vdW  Elec       q    Type
REMARK                         _______ _______ _______ _____ _____    ______ ____
ROOT
ATOM      1  O   UNL     1      87.992  68.527  85.996  0.00  0.00    +0.000 OA
ENDROOT
BRANCH   1   5
ATOM      2  C   UNL     1      87.715  65.223  88.566  0.00  0.00    +0.000 A 
ATOM      3  C   UNL     1      88.681  65.241  87.547  0.00  0.00    +0.000 A 
ATOM      4  C   UNL     1      88.778  66.326  86.674  0.00  0.00    +0.000 A 
ATOM      5  C   UNL     1      87.892  67.392  86.809  0.00  0.00    +0.000 A 
ATOM      6  C   UNL     1      86.941  67.409  87.824  0.00  0.00    +0.000 A 
ATOM      7  C   UNL     1      86.850  66.323  88.697  0.00  0.00    +0.000 A 
BRANCH   2   9
ATOM      8  C   UNL     1      87.228  62.758  88.758  0.00  0.00    +0.000 C 
ATOM      9  C   UNL     1      87.634  64.031  89.505  0.00  0.00    +0.000 C 
ATOM     10  C   UNL     1      88.943  63.821  90.270  0.00  0.00    +0.000 C 
ENDBRANCH   2   9
ENDBRANCH   1   5
BRANCH   1  11
ATOM     11  C   UNL     1      88.729  69.583  86.517  0.00  0.00    +0.000 C 
ATOM     12  O   UNL     1      89.644  69.499  87.326  0.00  0.00    +0.000 OA
BRANCH  11  13
ATOM     13  O   UNL     1      88.234  70.748  85.948  0.00  0.00    +0.000 OA
BRANCH  13  14
ATOM     14  C   UNL     1      87.030  71.169  86.513  0.00  0.00    +0.000 A 
ATOM     15  C   UNL     1      86.886  71.165  87.899  0.00  0.00    +0.000 A 
ATOM     16  C   UNL     1      85.698  71.636  88.459  0.00  0.00    +0.000 A 
ATOM     17  C   UNL     1      84.679  72.116  87.633  0.00  0.00    +0.000 A 
ATOM     18  C   UNL     1      84.845  72.132  86.246  0.00  0.00    +0.000 A 
ATOM     19  C   UNL     1      86.029  71.664  85.680  0.00  0.00    +0.000 A 
ENDBRANCH  13  14
ENDBRANCH  11  13
ENDBRANCH   1  11
TORSDOF 5
ENDMDL
