MODEL 1
REMARK VINA RESULT:      -5.2      0.000      0.000
REMARK  Name = *****
REMARK  4 active torsions:
REMARK  status: ('A' for Active; 'I' for Inactive)
REMARK    1  A    between atoms: C_4  and  O_19
REMARK    2  A    between atoms: C_5  and  C_7
REMARK    3  A    between atoms: C_8  and  C_9
REMARK    4  A    between atoms: C_12  and  C_15
REMARK                            x       y       z     vdW  Elec       q    Type
REMARK                         _______ _______ _______ _____ _____    ______ ____
ROOT
ATOM      1  C   UNL     1     101.924 126.247  82.504  0.00  0.00    +0.000 C 
ATOM      2  C   UNL     1     102.780 125.440  82.263  0.00  0.00    +0.000 C 
ENDROOT
BRANCH   1   7
ATOM      3  C   UNL     1     100.286 129.356  83.741  0.00  0.00    +0.000 A 
ATOM      4  C   UNL     1      98.957 129.136  83.378  0.00  0.00    +0.000 A 
ATOM      5  C   UNL     1      98.597 127.958  82.722  0.00  0.00    +0.000 A 
ATOM      6  C   UNL     1      99.572 127.002  82.431  0.00  0.00    +0.000 A 
ATOM      7  C   UNL     1     100.907 127.215  82.791  0.00  0.00    +0.000 A 
ATOM      8  C   UNL     1     101.259 128.399  83.448  0.00  0.00    +0.000 A 
BRANCH   6   9
ATOM      9  O   UNL     1      99.220 125.845  81.787  0.00  0.00    +0.000 OA
ATOM     10  H   UNL     1      99.232 125.030  82.249  0.00  0.00    +0.000 HD
ENDBRANCH   6   9
ENDBRANCH   1   7
BRANCH   2  11
ATOM     11  C   UNL     1     103.811 124.491  81.980  0.00  0.00    +0.000 A 
ATOM     12  C   UNL     1     104.347 123.717  83.011  0.00  0.00    +0.000 A 
ATOM     13  C   UNL     1     105.358 122.790  82.741  0.00  0.00    +0.000 A 
ATOM     14  C   UNL     1     105.844 122.627  81.435  0.00  0.00    +0.000 A 
ATOM     15  C   UNL     1     105.296 123.411  80.405  0.00  0.00    +0.000 A 
ATOM     16  C   UNL     1     104.286 124.336  80.678  0.00  0.00    +0.000 A 
BRANCH  14  17
ATOM     17  C   UNL     1     106.937 121.633  81.124  0.00  0.00    +0.000 C 
ATOM     18  F   UNL     1     107.912 121.579  82.074  0.00  0.00    +0.000 F 
ATOM     19  F   UNL     1     106.464 120.361  81.003  0.00  0.00    +0.000 F 
ATOM     20  F   UNL     1     107.573 121.907  79.952  0.00  0.00    +0.000 F 
ENDBRANCH  14  17
ENDBRANCH   2  11
TORSDOF 4
ENDMDL
