MODEL 1
REMARK VINA RESULT:      -4.5      0.000      0.000
REMARK  Name = *****
REMARK  8 active torsions:
REMARK  status: ('A' for Active; 'I' for Inactive)
REMARK    1  A    between atoms: C_1  and  C_2
REMARK    2  A    between atoms: C_2  and  P_3
REMARK    3  A    between atoms: P_3  and  C_4
REMARK    4  A    between atoms: P_3  and  N_12
REMARK    5  A    between atoms: C_5  and  C_11
REMARK    6  A    between atoms: C_9  and  C_10
REMARK    7  A    between atoms: N_12  and  C_13
REMARK    8  A    between atoms: N_12  and  C_14
REMARK                            x       y       z     vdW  Elec       q    Type
REMARK                         _______ _______ _______ _____ _____    ______ ____
ROOT
ATOM      1  P   UNL     1      88.505  70.353  86.349  0.00  0.00    +0.000 P 
ENDROOT
BRANCH   1   2
ATOM      2  C   UNL     1      87.029  71.091  87.179  0.00  0.00    +0.000 A 
ATOM      3  C   UNL     1      85.894  71.651  86.529  0.00  0.00    +0.000 A 
ATOM      4  C   UNL     1      84.822  72.167  87.293  0.00  0.00    +0.000 A 
ATOM      5  C   UNL     1      84.842  72.156  88.680  0.00  0.00    +0.000 A 
ATOM      6  C   UNL     1      85.946  71.639  89.334  0.00  0.00    +0.000 A 
ATOM      7  C   UNL     1      87.042  71.124  88.614  0.00  0.00    +0.000 A 
ATOM      8  C   UNL     1      88.188  70.598  89.453  0.00  0.00    +0.000 C 
ATOM      9  C   UNL     1      85.712  71.748  85.038  0.00  0.00    +0.000 C 
ENDBRANCH   1   2
BRANCH   1  11
ATOM     10  C   UNL     1      90.458  70.995  84.485  0.00  0.00    +0.000 C 
ATOM     11  C   UNL     1      88.979  71.189  84.805  0.00  0.00    +0.000 C 
ENDBRANCH   1  11
BRANCH   1  12
ATOM     12  N   UNL     1      87.925  68.858  85.904  0.00  0.00    +0.000 N 
ATOM     13  C   UNL     1      87.511  68.673  84.505  0.00  0.00    +0.000 C 
BRANCH  12  14
ATOM     14  C   UNL     1      87.862  67.692  86.728  0.00  0.00    +0.000 A 
ATOM     15  C   UNL     1      88.807  66.653  86.603  0.00  0.00    +0.000 A 
ATOM     16  C   UNL     1      88.767  65.504  87.404  0.00  0.00    +0.000 A 
ATOM     17  C   UNL     1      87.776  65.359  88.365  0.00  0.00    +0.000 A 
ATOM     18  C   UNL     1      86.832  66.365  88.525  0.00  0.00    +0.000 A 
ATOM     19  C   UNL     1      86.878  67.512  87.720  0.00  0.00    +0.000 A 
ENDBRANCH  12  14
ENDBRANCH   1  12
TORSDOF 4
ENDMDL
