MODEL 1
REMARK VINA RESULT:      -4.4      0.000      0.000
REMARK  Name = *****
REMARK  3 active torsions:
REMARK  status: ('A' for Active; 'I' for Inactive)
REMARK    1  A    between atoms: C_3  and  C_9
REMARK    2  A    between atoms: C_9  and  O_10
REMARK    3  A    between atoms: O_10  and  C_11
REMARK                            x       y       z     vdW  Elec       q    Type
REMARK                         _______ _______ _______ _____ _____    ______ ____
ROOT
ATOM      1  C   UNL     1      89.080  70.328  85.573  0.00  0.00    +0.000 C 
ENDROOT
BRANCH   1   4
ATOM      2  C   UNL     1      85.599  71.944  85.663  0.00  0.00    +0.000 A 
ATOM      3  C   UNL     1      86.810  71.432  85.189  0.00  0.00    +0.000 A 
ATOM      4  C   UNL     1      87.761  70.890  86.074  0.00  0.00    +0.000 A 
ATOM      5  C   UNL     1      87.457  70.881  87.448  0.00  0.00    +0.000 A 
ATOM      6  C   UNL     1      86.245  71.393  87.923  0.00  0.00    +0.000 A 
ATOM      7  C   UNL     1      85.323  71.920  87.027  0.00  0.00    +0.000 A 
ATOM      8 CL   UNL     1      83.831  72.551  87.605  0.00  0.00    +0.000 Cl
ATOM      9 CL   UNL     1      88.560  70.241  88.615  0.00  0.00    +0.000 Cl
ENDBRANCH   1   4
BRANCH   1  10
ATOM     10  O   UNL     1      88.876  69.385  84.514  0.00  0.00    +0.000 OA
BRANCH  10  11
ATOM     11  C   UNL     1      89.491  68.173  84.747  0.00  0.00    +0.000 A 
ATOM     12  N   UNL     1      89.847  67.369  83.722  0.00  0.00    +0.000 NA
ATOM     13  N   UNL     1      90.458  66.171  83.983  0.00  0.00    +0.000 NA
ATOM     14  C   UNL     1      90.694  65.814  85.261  0.00  0.00    +0.000 A 
ATOM     15  C   UNL     1      90.340  66.613  86.330  0.00  0.00    +0.000 A 
ATOM     16  C   UNL     1      89.720  67.828  86.066  0.00  0.00    +0.000 A 
ATOM     17  F   UNL     1      91.293  64.639  85.495  0.00  0.00    +0.000 F 
ENDBRANCH  10  11
ENDBRANCH   1  10
TORSDOF 3
ENDMDL
