MODEL 1
REMARK VINA RESULT:      -4.7      0.000      0.000
REMARK  Name = *****
REMARK  3 active torsions:
REMARK  status: ('A' for Active; 'I' for Inactive)
REMARK    1  A    between atoms: C_4  and  C_7
REMARK    2  A    between atoms: C_7  and  O_9
REMARK    3  A    between atoms: O_9  and  C_10
REMARK                            x       y       z     vdW  Elec       q    Type
REMARK                         _______ _______ _______ _____ _____    ______ ____
ROOT
ATOM      1  O   UNL     1     103.173 126.382  82.089  0.00  0.00    +0.000 OA
ENDROOT
BRANCH   1   2
ATOM      2  C   UNL     1     101.975 127.005  82.446  0.00  0.00    +0.000 A 
ATOM      3  C   UNL     1     100.778 126.365  82.137  0.00  0.00    +0.000 A 
ATOM      4  C   UNL     1      99.584 126.959  82.530  0.00  0.00    +0.000 A 
ATOM      5  C   UNL     1      99.572 128.159  83.233  0.00  0.00    +0.000 A 
ATOM      6  C   UNL     1     100.782 128.767  83.545  0.00  0.00    +0.000 A 
ATOM      7  C   UNL     1     101.993 128.199  83.166  0.00  0.00    +0.000 A 
ATOM      8  F   UNL     1     100.782 129.916  84.232  0.00  0.00    +0.000 F 
ATOM      9  F   UNL     1      98.423 126.358  82.236  0.00  0.00    +0.000 F 
ENDBRANCH   1   2
BRANCH   1  10
ATOM     10  C   UNL     1     103.511 126.545  80.747  0.00  0.00    +0.000 C 
ATOM     11  O   UNL     1     103.381 127.569  80.091  0.00  0.00    +0.000 OA
BRANCH  10  15
ATOM     12  C   UNL     1     106.101 123.080  80.246  0.00  0.00    +0.000 C 
ATOM     13  C   UNL     1     104.726 122.874  80.874  0.00  0.00    +0.000 C 
ATOM     14  C   UNL     1     104.116 124.191  81.346  0.00  0.00    +0.000 C 
ATOM     15  C   UNL     1     104.067 125.230  80.221  0.00  0.00    +0.000 C 
ATOM     16  C   UNL     1     105.455 125.432  79.599  0.00  0.00    +0.000 C 
ATOM     17  C   UNL     1     106.056 124.112  79.124  0.00  0.00    +0.000 C 
ENDBRANCH  10  15
ENDBRANCH   1  10
TORSDOF 3
ENDMDL
