MODEL 1
REMARK VINA RESULT:      -4.9      0.000      0.000
REMARK  Name = *****
REMARK  3 active torsions:
REMARK  status: ('A' for Active; 'I' for Inactive)
REMARK    1  A    between atoms: C_4  and  C_7
REMARK    2  A    between atoms: C_8  and  C_9
REMARK    3  A    between atoms: N_15  and  O_16
REMARK                            x       y       z     vdW  Elec       q    Type
REMARK                         _______ _______ _______ _____ _____    ______ ____
ROOT
ATOM      1  C   UNL     1     103.883 124.955  81.146  0.00  0.00    +0.000 C 
ATOM      2  C   UNL     1     104.189 123.942  82.058  0.00  0.00    +0.000 C 
ATOM      3  C   UNL     1     105.214 123.025  81.793  0.00  0.00    +0.000 C 
ATOM      4  C   UNL     1     105.964 123.076  80.605  0.00  0.00    +0.000 C 
ATOM      5  C   UNL     1     105.633 124.092  79.690  0.00  0.00    +0.000 C 
ATOM      6  C   UNL     1     104.608 125.011  79.952  0.00  0.00    +0.000 C 
ATOM      7  N   UNL     1     106.960 122.215  80.306  0.00  0.00    +0.000 NA
ENDROOT
BRANCH   1   9
ATOM      8  C   UNL     1     102.041 125.962  82.477  0.00  0.00    +0.000 C 
ATOM      9  C   UNL     1     102.794 125.918  81.366  0.00  0.00    +0.000 C 
BRANCH   8  13
ATOM     10  C   UNL     1      98.942 128.817  83.224  0.00  0.00    +0.000 A 
ATOM     11  C   UNL     1      98.628 127.612  82.599  0.00  0.00    +0.000 A 
ATOM     12  C   UNL     1      99.631 126.673  82.343  0.00  0.00    +0.000 A 
ATOM     13  C   UNL     1     100.962 126.936  82.698  0.00  0.00    +0.000 A 
ATOM     14  C   UNL     1     101.261 128.144  83.341  0.00  0.00    +0.000 A 
ATOM     15  C   UNL     1     100.257 129.082  83.597  0.00  0.00    +0.000 A 
ENDBRANCH   8  13
ENDBRANCH   1   9
BRANCH   7  16
ATOM     16  O   UNL     1     107.137 121.288  81.319  0.00  0.00    +0.000 OA
ATOM     17  O   UNL     1     107.625 120.131  80.831  0.00  0.00    +0.000 OA
ENDBRANCH   7  16
TORSDOF 3
ENDMDL
