MODEL 1
REMARK VINA RESULT:      -4.8      0.000      0.000
REMARK  Name = *****
REMARK  5 active torsions:
REMARK  status: ('A' for Active; 'I' for Inactive)
REMARK    1  A    between atoms: C_1  and  C_2
REMARK    2  A    between atoms: C_5  and  C_8
REMARK    3  A    between atoms: C_8  and  C_9
REMARK    4  A    between atoms: C_9  and  C_10
REMARK    5  A    between atoms: C_9  and  C_11
REMARK                            x       y       z     vdW  Elec       q    Type
REMARK                         _______ _______ _______ _____ _____    ______ ____
ROOT
ATOM      1  C   UNL     1      87.031  69.309  88.316  0.00  0.00    +0.000 C 
ENDROOT
BRANCH   1   6
ATOM      2  C   UNL     1      90.888  65.941  85.495  0.00  0.00    +0.000 C 
ATOM      3  C   UNL     1      89.908  66.786  86.251  0.00  0.00    +0.000 A 
ATOM      4  C   UNL     1      88.812  66.201  86.891  0.00  0.00    +0.000 A 
ATOM      5  C   UNL     1      87.876  66.990  87.570  0.00  0.00    +0.000 A 
ATOM      6  C   UNL     1      88.012  68.381  87.626  0.00  0.00    +0.000 A 
ATOM      7  C   UNL     1      89.102  68.961  86.955  0.00  0.00    +0.000 A 
ATOM      8  C   UNL     1      90.038  68.176  86.275  0.00  0.00    +0.000 A 
ENDBRANCH   1   6
BRANCH   1   9
ATOM      9  C   UNL     1      87.110  70.849  88.118  0.00  0.00    +0.000 C 
ATOM     10  C   UNL     1      87.167  71.567  89.479  0.00  0.00    +0.000 C 
BRANCH   9  11
ATOM     11  C   UNL     1      86.135  71.491  87.130  0.00  0.00    +0.000 A 
ATOM     12  C   UNL     1      84.921  72.075  87.525  0.00  0.00    +0.000 A 
ATOM     13  C   UNL     1      84.040  72.625  86.589  0.00  0.00    +0.000 A 
ATOM     14  C   UNL     1      84.346  72.586  85.232  0.00  0.00    +0.000 A 
ATOM     15  C   UNL     1      85.531  71.991  84.812  0.00  0.00    +0.000 A 
ATOM     16  C   UNL     1      86.410  71.444  85.751  0.00  0.00    +0.000 A 
ENDBRANCH   9  11
ENDBRANCH   1   9
TORSDOF 3
ENDMDL
