MODEL 1
REMARK VINA RESULT:      -4.8      0.000      0.000
REMARK  Name = *****
REMARK  5 active torsions:
REMARK  status: ('A' for Active; 'I' for Inactive)
REMARK    1  A    between atoms: C_4  and  C_7
REMARK    2  A    between atoms: C_7  and  C_8
REMARK    3  A    between atoms: C_7  and  C_11
REMARK    4  A    between atoms: C_8  and  C_9
REMARK    5  A    between atoms: C_11  and  C_13
REMARK                            x       y       z     vdW  Elec       q    Type
REMARK                         _______ _______ _______ _____ _____    ______ ____
ROOT
ATOM      1  C   UNL     1      88.501  69.972  86.660  0.00  0.00    +0.000 C 
ENDROOT
BRANCH   1   5
ATOM      2  C   UNL     1      89.046  65.687  86.994  0.00  0.00    +0.000 A 
ATOM      3  C   UNL     1      90.033  66.461  86.386  0.00  0.00    +0.000 A 
ATOM      4  C   UNL     1      89.872  67.843  86.274  0.00  0.00    +0.000 A 
ATOM      5  C   UNL     1      88.724  68.473  86.778  0.00  0.00    +0.000 A 
ATOM      6  C   UNL     1      87.733  67.678  87.381  0.00  0.00    +0.000 A 
ATOM      7  C   UNL     1      87.895  66.295  87.488  0.00  0.00    +0.000 A 
ENDBRANCH   1   5
BRANCH   1   8
ATOM      8  C   UNL     1      87.900  70.622  87.911  0.00  0.00    +0.000 C 
ATOM      9  O   UNL     1      88.489  70.619  88.992  0.00  0.00    +0.000 OA
BRANCH   8  10
ATOM     10  C   UNL     1      86.559  71.287  87.833  0.00  0.00    +0.000 A 
ATOM     11  C   UNL     1      85.807  71.623  88.966  0.00  0.00    +0.000 A 
ATOM     12  C   UNL     1      84.561  72.240  88.825  0.00  0.00    +0.000 A 
ATOM     13  C   UNL     1      84.057  72.525  87.557  0.00  0.00    +0.000 A 
ATOM     14  C   UNL     1      84.800  72.200  86.425  0.00  0.00    +0.000 A 
ATOM     15  C   UNL     1      86.046  71.586  86.562  0.00  0.00    +0.000 A 
ENDBRANCH   8  10
ENDBRANCH   1   8
BRANCH   1  16
ATOM     16  C   UNL     1      89.770  70.719  86.186  0.00  0.00    +0.000 C 
BRANCH  16  17
ATOM     17  C   UNL     1      89.689  71.320  84.784  0.00  0.00    +0.000 C 
ATOM     18 CL   UNL     1      90.540  70.261  83.624  0.00  0.00    +0.000 Cl
ENDBRANCH  16  17
ENDBRANCH   1  16
TORSDOF 5
ENDMDL
