MODEL 1
REMARK VINA RESULT:      -5.0      0.000      0.000
REMARK  Name = *****
REMARK  2 active torsions:
REMARK  status: ('A' for Active; 'I' for Inactive)
REMARK    1  A    between atoms: C_1  and  C_2
REMARK    2  A    between atoms: C_10  and  C_12
REMARK                            x       y       z     vdW  Elec       q    Type
REMARK                         _______ _______ _______ _____ _____    ______ ____
ROOT
ATOM      1  C   UNL     1     104.544 125.242  84.772  0.00  0.00    +0.000 C 
ATOM      2  C   UNL     1     103.556 124.490  83.885  0.00  0.00    +0.000 C 
ATOM      3  C   UNL     1     104.149 124.149  82.551  0.00  0.00    +0.000 A 
ATOM      4  C   UNL     1     105.117 123.144  82.405  0.00  0.00    +0.000 A 
ATOM      5  C   UNL     1     105.666 122.877  81.151  0.00  0.00    +0.000 A 
ATOM      6  C   UNL     1     105.252 123.610  80.041  0.00  0.00    +0.000 A 
ATOM      7  C   UNL     1     104.287 124.608  80.190  0.00  0.00    +0.000 A 
ATOM      8  C   UNL     1     103.730 124.878  81.442  0.00  0.00    +0.000 A 
ATOM      9  N   UNL     1     102.759 125.872  81.551  0.00  0.00    +0.000 NA
ATOM     10  C   UNL     1     102.133 126.009  82.674  0.00  0.00    +0.000 C 
ATOM     11  O   UNL     1     102.357 125.288  83.797  0.00  0.00    +0.000 OA
ENDROOT
BRANCH  10  12
ATOM     12  C   UNL     1     101.035 126.990  82.876  0.00  0.00    +0.000 A 
ATOM     13  C   UNL     1     101.323 128.205  83.513  0.00  0.00    +0.000 A 
ATOM     14  C   UNL     1     100.316 129.150  83.723  0.00  0.00    +0.000 A 
ATOM     15  C   UNL     1      99.014 128.886  83.299  0.00  0.00    +0.000 A 
ATOM     16  C   UNL     1      98.717 127.679  82.667  0.00  0.00    +0.000 A 
ATOM     17  C   UNL     1      99.723 126.733  82.454  0.00  0.00    +0.000 A 
ENDBRANCH  10  12
TORSDOF 1
ENDMDL
