REMARK  Name = *****
REMARK  5 active torsions:
REMARK  status: ('A' for Active; 'I' for Inactive)
REMARK    1  A    between atoms: C_1  and  C_2
REMARK    2  A    between atoms: C_5  and  S_8
REMARK    3  A    between atoms: S_8  and  O_10
REMARK    4  A    between atoms: O_10  and  C_11
REMARK    5  A    between atoms: C_11  and  C_18
REMARK                            x       y       z     vdW  Elec       q    Type
REMARK                         _______ _______ _______ _____ _____    ______ ____
ROOT
ATOM      1  S   UNL     1      -3.613  -0.620   0.128  0.00  0.00    +0.000 S 
ATOM      2  O   UNL     1      -3.984  -1.225   1.449  0.00  0.00    +0.000 OA
ENDROOT
BRANCH   1   7
ATOM      3  C   UNL     1       2.290   0.951   0.532  0.00  0.00    +0.000 C 
ATOM      4  C   UNL     1       0.850   0.539   0.436  0.00  0.00    +0.000 A 
ATOM      5  C   UNL     1       0.179   0.596  -0.791  0.00  0.00    +0.000 A 
ATOM      6  C   UNL     1      -1.171   0.245  -0.877  0.00  0.00    +0.000 A 
ATOM      7  C   UNL     1      -1.868  -0.160   0.266  0.00  0.00    +0.000 A 
ATOM      8  C   UNL     1      -1.204  -0.206   1.495  0.00  0.00    +0.000 A 
ATOM      9  C   UNL     1       0.145   0.148   1.581  0.00  0.00    +0.000 A 
ENDBRANCH   1   7
BRANCH   1  10
ATOM     10  O   UNL     1      -4.090   0.920   0.144  0.00  0.00    +0.000 OA
BRANCH  10  11
ATOM     11  C   UNL     1      -5.487   1.216  -0.026  0.00  0.00    +0.000 C 
ATOM     12  C   UNL     1      -5.581   2.766  -0.098  0.00  0.00    +0.000 C 
ATOM     13  C   UNL     1      -5.667   3.417   1.289  0.00  0.00    +0.000 C 
ATOM     14  C   UNL     1      -6.502   2.543   2.230  0.00  0.00    +0.000 C 
ATOM     15  C   UNL     1      -5.771   1.214   2.559  0.00  0.00    +0.000 C 
ATOM     16  C   UNL     1      -6.322   0.728   1.179  0.00  0.00    +0.000 C 
ATOM     17  C   UNL     1      -7.555   1.632   1.523  0.00  0.00    +0.000 C 
ATOM     18  C   UNL     1      -6.039   0.634  -1.337  0.00  0.00    +0.000 C 
ENDBRANCH  10  11
ENDBRANCH   1  10
TORSDOF 3
