MODEL 1
REMARK VINA RESULT:      -4.7      0.000      0.000
REMARK  Name = *****
REMARK  5 active torsions:
REMARK  status: ('A' for Active; 'I' for Inactive)
REMARK    1  A    between atoms: C_1  and  C_2
REMARK    2  A    between atoms: C_5  and  S_8
REMARK    3  A    between atoms: S_8  and  N_9
REMARK    4  A    between atoms: N_9  and  C_10
REMARK    5  A    between atoms: C_15  and  C_16
REMARK                            x       y       z     vdW  Elec       q    Type
REMARK                         _______ _______ _______ _____ _____    ______ ____
ROOT
ATOM      1  N   UNL     1      89.215  63.788  87.790  0.00  0.00    +0.000 N 
ATOM      2  H   UNL     1      90.045  63.732  88.316  0.00  0.00    +0.000 HD
ENDROOT
BRANCH   1   3
ATOM      3  C   UNL     1      88.003  63.365  88.397  0.00  0.00    +0.000 A 
ATOM      4  C   UNL     1      86.964  62.763  87.662  0.00  0.00    +0.000 A 
ATOM      5  C   UNL     1      85.802  62.299  88.284  0.00  0.00    +0.000 A 
ATOM      6  C   UNL     1      85.662  62.401  89.661  0.00  0.00    +0.000 A 
ATOM      7  C   UNL     1      86.691  62.953  90.419  0.00  0.00    +0.000 A 
ATOM      8  C   UNL     1      87.869  63.418  89.806  0.00  0.00    +0.000 A 
ATOM      9  C   UNL     1      88.955  63.979  90.687  0.00  0.00    +0.000 C 
ENDBRANCH   1   3
BRANCH   1  10
ATOM     10  S   UNL     1      89.303  64.374  86.231  0.00  0.00    +0.000 S 
BRANCH  10  15
ATOM     11  C   UNL     1      88.628  70.338  87.313  0.00  0.00    +0.000 C 
ATOM     12  C   UNL     1      88.802  68.868  87.074  0.00  0.00    +0.000 A 
ATOM     13  C   UNL     1      87.824  67.961  87.496  0.00  0.00    +0.000 A 
ATOM     14  C   UNL     1      87.971  66.594  87.246  0.00  0.00    +0.000 A 
ATOM     15  C   UNL     1      89.092  66.116  86.559  0.00  0.00    +0.000 A 
ATOM     16  C   UNL     1      90.067  67.021  86.131  0.00  0.00    +0.000 A 
ATOM     17  C   UNL     1      89.919  68.389  86.379  0.00  0.00    +0.000 A 
ENDBRANCH  10  15
ENDBRANCH   1  10
TORSDOF 3
ENDMDL
