MODEL 1
REMARK VINA RESULT:      -4.6      0.000      0.000
REMARK  Name = *****
REMARK  5 active torsions:
REMARK  status: ('A' for Active; 'I' for Inactive)
REMARK    1  A    between atoms: C_1  and  C_2
REMARK    2  A    between atoms: C_2  and  C_3
REMARK    3  A    between atoms: C_2  and  C_11
REMARK    4  A    between atoms: C_2  and  O_18
REMARK    5  A    between atoms: C_3  and  C_4
REMARK                            x       y       z     vdW  Elec       q    Type
REMARK                         _______ _______ _______ _____ _____    ______ ____
ROOT
ATOM      1  C   UNL     1      87.711  63.788  90.546  0.00  0.00    +0.000 C 
ATOM      2  C   UNL     1      88.113  63.670  89.066  0.00  0.00    +0.000 C 
ENDROOT
BRANCH   2   3
ATOM      3  C   UNL     1      88.048  64.995  88.300  0.00  0.00    +0.000 A 
ATOM      4  C   UNL     1      87.088  65.966  88.650  0.00  0.00    +0.000 A 
ATOM      5  C   UNL     1      87.024  67.196  87.990  0.00  0.00    +0.000 A 
ATOM      6  C   UNL     1      87.926  67.479  86.971  0.00  0.00    +0.000 A 
ATOM      7  C   UNL     1      88.890  66.544  86.610  0.00  0.00    +0.000 A 
ATOM      8  C   UNL     1      88.951  65.313  87.270  0.00  0.00    +0.000 A 
ATOM      9 CL   UNL     1      87.855  68.995  86.160  0.00  0.00    +0.000 Cl
ENDBRANCH   2   3
BRANCH   2  10
ATOM     10  O   UNL     1      89.501  63.268  89.079  0.00  0.00    +0.000 OA
ATOM     11  H   UNL     1      90.055  64.022  89.334  0.00  0.00    +0.000 HD
ENDBRANCH   2  10
BRANCH   2  12
ATOM     12  C   UNL     1      87.327  62.545  88.334  0.00  0.00    +0.000 C 
BRANCH  12  13
ATOM     13  C   UNL     1      85.940  62.238  88.849  0.00  0.00    +0.000 A 
ATOM     14  C   UNL     1      84.844  63.018  88.448  0.00  0.00    +0.000 A 
ATOM     15  C   UNL     1      83.562  62.744  88.931  0.00  0.00    +0.000 A 
ATOM     16  C   UNL     1      83.368  61.683  89.811  0.00  0.00    +0.000 A 
ATOM     17  C   UNL     1      84.443  60.894  90.212  0.00  0.00    +0.000 A 
ATOM     18  C   UNL     1      85.725  61.169  89.731  0.00  0.00    +0.000 A 
ATOM     19 CL   UNL     1      81.789  61.345  90.407  0.00  0.00    +0.000 Cl
ENDBRANCH  12  13
ENDBRANCH   2  12
TORSDOF 4
ENDMDL
