MODEL 1
REMARK VINA RESULT:      -4.4      0.000      0.000
REMARK  Name = *****
REMARK  4 active torsions:
REMARK  status: ('A' for Active; 'I' for Inactive)
REMARK    1  A    between atoms: C_7  and  C_8
REMARK    2  A    between atoms: C_8  and  O_9
REMARK    3  A    between atoms: O_9  and  C_10
REMARK    4  A    between atoms: C_10  and  C_12
REMARK                            x       y       z     vdW  Elec       q    Type
REMARK                         _______ _______ _______ _____ _____    ______ ____
ROOT
ATOM      1  O   UNL     1     103.595 124.882  80.222  0.00  0.00    +0.000 OA
ENDROOT
BRANCH   1   2
ATOM      2  C   UNL     1     104.804 124.296  80.412  0.00  0.00    +0.000 C 
ATOM      3  O   UNL     1     105.864 124.670  79.936  0.00  0.00    +0.000 OA
BRANCH   2   4
ATOM      4  C   UNL     1     104.674 123.104  81.292  0.00  0.00    +0.000 A 
ATOM      5  C   UNL     1     104.631 121.839  80.688  0.00  0.00    +0.000 A 
ATOM      6  C   UNL     1     104.508 120.688  81.470  0.00  0.00    +0.000 A 
ATOM      7  C   UNL     1     104.428 120.793  82.857  0.00  0.00    +0.000 A 
ATOM      8  C   UNL     1     104.470 122.047  83.466  0.00  0.00    +0.000 A 
ATOM      9  C   UNL     1     104.592 123.201  82.687  0.00  0.00    +0.000 A 
ENDBRANCH   2   4
ENDBRANCH   1   2
BRANCH   1  10
ATOM     10  C   UNL     1     103.528 126.290  80.502  0.00  0.00    +0.000 C 
BRANCH  10  17
ATOM     11  C   UNL     1     101.911 127.221  84.465  0.00  0.00    +0.000 C 
ATOM     12  C   UNL     1     102.200 125.758  84.100  0.00  0.00    +0.000 C 
ATOM     13  C   UNL     1     102.101 125.758  82.563  0.00  0.00    +0.000 C 
ATOM     14  C   UNL     1     100.947 126.738  82.342  0.00  0.00    +0.000 C 
ATOM     15  C   UNL     1     101.639 127.871  83.098  0.00  0.00    +0.000 C 
ATOM     16  C   UNL     1     102.965 127.998  82.324  0.00  0.00    +0.000 C 
ATOM     17  C   UNL     1     103.318 126.528  81.998  0.00  0.00    +0.000 C 
ENDBRANCH  10  17
ENDBRANCH   1  10
TORSDOF 4
ENDMDL
