REMARK  Name = *****
REMARK  3 active torsions:
REMARK  status: ('A' for Active; 'I' for Inactive)
REMARK    1  A    between atoms: C_4  and  C_7
REMARK    2  A    between atoms: C_8  and  C_9
REMARK    3  A    between atoms: C_9  and  C_11
REMARK                            x       y       z     vdW  Elec       q    Type
REMARK                         _______ _______ _______ _____ _____    ______ ____
ROOT
ATOM      1  C   UNL     1      -2.807   0.253   0.203  0.00  0.00    +0.000 C 
ATOM      2  C   UNL     1      -3.677  -0.655  -0.268  0.00  0.00    +0.000 C 
ENDROOT
BRANCH   1   6
ATOM      3  C   UNL     1       1.450   0.029   0.337  0.00  0.00    +0.000 A 
ATOM      4  C   UNL     1       0.805   0.205  -0.887  0.00  0.00    +0.000 A 
ATOM      5  C   UNL     1      -0.589   0.270  -0.940  0.00  0.00    +0.000 A 
ATOM      6  C   UNL     1      -1.346   0.151   0.229  0.00  0.00    +0.000 A 
ATOM      7  C   UNL     1      -0.692  -0.019   1.455  0.00  0.00    +0.000 A 
ATOM      8  C   UNL     1       0.702  -0.083   1.507  0.00  0.00    +0.000 A 
ENDBRANCH   1   6
BRANCH   2   9
ATOM      9  C   UNL     1      -3.325  -1.951  -0.913  0.00  0.00    +0.000 C 
ATOM     10  O   UNL     1      -2.385  -2.062  -1.691  0.00  0.00    +0.000 OA
BRANCH   9  11
ATOM     11  C   UNL     1      -4.231  -3.108  -0.663  0.00  0.00    +0.000 A 
ATOM     12  C   UNL     1      -4.235  -4.159  -1.591  0.00  0.00    +0.000 A 
ATOM     13  C   UNL     1      -5.064  -5.266  -1.399  0.00  0.00    +0.000 A 
ATOM     14  C   UNL     1      -5.887  -5.333  -0.277  0.00  0.00    +0.000 A 
ATOM     15  C   UNL     1      -5.878  -4.300   0.660  0.00  0.00    +0.000 A 
ATOM     16  C   UNL     1      -5.049  -3.190   0.472  0.00  0.00    +0.000 A 
ENDBRANCH   9  11
ENDBRANCH   2   9
TORSDOF 3
