REMARK  Name = *****
REMARK  3 active torsions:
REMARK  status: ('A' for Active; 'I' for Inactive)
REMARK    1  A    between atoms: C_4  and  S_7
REMARK    2  A    between atoms: S_7  and  C_8
REMARK    3  A    between atoms: C_8  and  C_9
REMARK                            x       y       z     vdW  Elec       q    Type
REMARK                         _______ _______ _______ _____ _____    ______ ____
ROOT
ATOM      1  S   UNL     1       0.628  -3.157  -0.415  0.00  0.00    +0.000 S 
ENDROOT
BRANCH   1   5
ATOM      2  C   UNL     1      -0.333   1.281   0.450  0.00  0.00    +0.000 C 
ATOM      3  C   UNL     1      -1.328   0.496  -0.398  0.00  0.00    +0.000 C 
ATOM      4  C   UNL     1      -1.175  -1.010  -0.168  0.00  0.00    +0.000 C 
ATOM      5  C   UNL     1       0.265  -1.469  -0.171  0.00  0.00    +0.000 C 
ATOM      6  C   UNL     1       1.285  -0.600  -0.061  0.00  0.00    +0.000 C 
ATOM      7  C   UNL     1       1.105   0.879   0.123  0.00  0.00    +0.000 C 
ENDBRANCH   1   5
BRANCH   1   8
ATOM      8  C   UNL     1      -0.482  -3.940   0.793  0.00  0.00    +0.000 C 
BRANCH   8   9
ATOM      9  C   UNL     1      -0.222  -5.421   0.909  0.00  0.00    +0.000 A 
ATOM     10  C   UNL     1       0.697  -5.912   1.848  0.00  0.00    +0.000 A 
ATOM     11  C   UNL     1       0.942  -7.283   1.949  0.00  0.00    +0.000 A 
ATOM     12  C   UNL     1       0.278  -8.175   1.110  0.00  0.00    +0.000 A 
ATOM     13  C   UNL     1      -0.629  -7.698   0.165  0.00  0.00    +0.000 A 
ATOM     14  C   UNL     1      -0.877  -6.329   0.062  0.00  0.00    +0.000 A 
ENDBRANCH   8   9
ENDBRANCH   1   8
TORSDOF 3
