MODEL 1
REMARK VINA RESULT:      -4.1      0.000      0.000
REMARK  Name = *****
REMARK  5 active torsions:
REMARK  status: ('A' for Active; 'I' for Inactive)
REMARK    1  A    between atoms: C_1  and  C_2
REMARK    2  A    between atoms: C_5  and  S_8
REMARK    3  A    between atoms: S_8  and  C_9
REMARK    4  A    between atoms: C_9  and  C_10
REMARK    5  A    between atoms: C_9  and  C_12
REMARK                            x       y       z     vdW  Elec       q    Type
REMARK                         _______ _______ _______ _____ _____    ______ ____
ROOT
ATOM      1  C   UNL     1      89.123  68.845  84.718  0.00  0.00    +0.000 C 
ENDROOT
BRANCH   1   2
ATOM      2  C   UNL     1      89.104  67.302  84.566  0.00  0.00    +0.000 C 
ATOM      3  C   UNL     1      88.656  66.516  85.768  0.00  0.00    +0.000 C 
ATOM      4  O   UNL     1      89.858  66.052  86.355  0.00  0.00    +0.000 OA
ATOM      5  C   UNL     1      90.836  66.127  85.408  0.00  0.00    +0.000 C 
ATOM      6  O   UNL     1      91.958  65.669  85.536  0.00  0.00    +0.000 OA
ATOM      7  O   UNL     1      90.394  66.772  84.290  0.00  0.00    +0.000 OA
ENDBRANCH   1   2
BRANCH   1   8
ATOM      8  C   UNL     1      90.211  69.490  83.844  0.00  0.00    +0.000 C 
ATOM      9 CL   UNL     1      90.668  71.108  84.456  0.00  0.00    +0.000 Cl
ENDBRANCH   1   8
BRANCH   1  10
ATOM     10  S   UNL     1      89.375  69.380  86.478  0.00  0.00    +0.000 S 
BRANCH  10  15
ATOM     11  C   UNL     1      84.278  72.595  87.399  0.00  0.00    +0.000 C 
ATOM     12  C   UNL     1      85.517  71.778  87.180  0.00  0.00    +0.000 A 
ATOM     13  C   UNL     1      86.233  71.269  88.270  0.00  0.00    +0.000 A 
ATOM     14  C   UNL     1      87.407  70.539  88.069  0.00  0.00    +0.000 A 
ATOM     15  C   UNL     1      87.881  70.308  86.775  0.00  0.00    +0.000 A 
ATOM     16  C   UNL     1      87.187  70.844  85.688  0.00  0.00    +0.000 A 
ATOM     17  C   UNL     1      86.014  71.574  85.888  0.00  0.00    +0.000 A 
ENDBRANCH  10  15
ENDBRANCH   1  10
TORSDOF 4
ENDMDL
