MODEL 1
REMARK VINA RESULT:      -4.9      0.000      0.000
REMARK  Name = *****
REMARK  4 active torsions:
REMARK  status: ('A' for Active; 'I' for Inactive)
REMARK    1  A    between atoms: C_3  and  N_8
REMARK    2  A    between atoms: N_8  and  C_9
REMARK    3  A    between atoms: C_9  and  C_10
REMARK    4  A    between atoms: C_13  and  C_16
REMARK                            x       y       z     vdW  Elec       q    Type
REMARK                         _______ _______ _______ _____ _____    ______ ____
ROOT
ATOM      1  C   UNL     1     104.128 126.000  82.443  0.00  0.00    +0.000 C 
ENDROOT
BRANCH   1   2
ATOM      2  C   UNL     1     102.869 126.717  82.708  0.00  0.00    +0.000 A 
ATOM      3  C   UNL     1     102.788 127.975  83.307  0.00  0.00    +0.000 A 
ATOM      4  C   UNL     1     101.544 128.588  83.491  0.00  0.00    +0.000 A 
ATOM      5  C   UNL     1     100.364 127.958  83.074  0.00  0.00    +0.000 A 
ATOM      6  C   UNL     1     100.454 126.702  82.456  0.00  0.00    +0.000 A 
ATOM      7  C   UNL     1     101.697 126.089  82.271  0.00  0.00    +0.000 A 
BRANCH   5   8
ATOM      8  C   UNL     1      99.017 128.614  83.259  0.00  0.00    +0.000 C 
ATOM      9  F   UNL     1      98.014 128.007  82.566  0.00  0.00    +0.000 F 
ATOM     10  F   UNL     1      98.620 128.620  84.562  0.00  0.00    +0.000 F 
ATOM     11  F   UNL     1      99.010 129.916  82.861  0.00  0.00    +0.000 F 
ENDBRANCH   5   8
ENDBRANCH   1   2
BRANCH   1  12
ATOM     12  N   UNL     1     104.370 125.216  81.416  0.00  0.00    +0.000 N 
ATOM     13  O   UNL     1     104.571 125.641  80.233  0.00  0.00    +0.000 OA
BRANCH  12  16
ATOM     14  C   UNL     1     104.838 121.522  80.912  0.00  0.00    +0.000 A 
ATOM     15  C   UNL     1     104.730 122.887  80.633  0.00  0.00    +0.000 A 
ATOM     16  C   UNL     1     104.472 123.787  81.676  0.00  0.00    +0.000 A 
ATOM     17  C   UNL     1     104.350 123.337  82.994  0.00  0.00    +0.000 A 
ATOM     18  C   UNL     1     104.461 121.977  83.250  0.00  0.00    +0.000 A 
ATOM     19  C   UNL     1     104.699 121.067  82.223  0.00  0.00    +0.000 A 
ATOM     20  F   UNL     1     104.337 121.531  84.508  0.00  0.00    +0.000 F 
ENDBRANCH  12  16
ENDBRANCH   1  12
TORSDOF 4
ENDMDL
