MODEL 1
REMARK VINA RESULT:      -4.3      0.000      0.000
REMARK  Name = *****
REMARK  5 active torsions:
REMARK  status: ('A' for Active; 'I' for Inactive)
REMARK    1  A    between atoms: C_1  and  O_2
REMARK    2  A    between atoms: O_2  and  C_3
REMARK    3  A    between atoms: C_3  and  C_5
REMARK    4  A    between atoms: C_8  and  C_10
REMARK    5  A    between atoms: C_11  and  C_12
REMARK                            x       y       z     vdW  Elec       q    Type
REMARK                         _______ _______ _______ _____ _____    ______ ____
ROOT
ATOM      1  C   UNL     1      88.172  64.525  87.346  0.00  0.00    +0.000 A 
ATOM      2  C   UNL     1      88.486  64.566  88.690  0.00  0.00    +0.000 A 
ATOM      3  C   UNL     1      87.846  63.529  89.432  0.00  0.00    +0.000 A 
ATOM      4  C   UNL     1      87.051  62.709  88.650  0.00  0.00    +0.000 A 
ATOM      5  S   UNL     1      87.103  63.233  87.007  0.00  0.00    +0.000 S 
ENDROOT
BRANCH   1   6
ATOM      6  C   UNL     1      88.610  65.389  86.266  0.00  0.00    +0.000 C 
ATOM      7  O   UNL     1      88.192  65.387  85.113  0.00  0.00    +0.000 OA
BRANCH   6   9
ATOM      8  C   UNL     1      90.683  66.391  85.818  0.00  0.00    +0.000 C 
ATOM      9  O   UNL     1      89.586  66.232  86.719  0.00  0.00    +0.000 OA
ENDBRANCH   6   9
ENDBRANCH   1   6
BRANCH   4  10
ATOM     10  C   UNL     1      86.251  61.573  88.978  0.00  0.00    +0.000 C 
ATOM     11  C   UNL     1      85.814  61.332  90.224  0.00  0.00    +0.000 C 
BRANCH  11  12
ATOM     12  C   UNL     1      84.986  60.170  90.581  0.00  0.00    +0.000 A 
ATOM     13  C   UNL     1      83.585  60.236  90.618  0.00  0.00    +0.000 A 
ATOM     14  C   UNL     1      82.828  59.102  90.930  0.00  0.00    +0.000 A 
ATOM     15  C   UNL     1      83.469  57.894  91.195  0.00  0.00    +0.000 A 
ATOM     16  C   UNL     1      84.858  57.808  91.147  0.00  0.00    +0.000 A 
ATOM     17  C   UNL     1      85.613  58.943  90.834  0.00  0.00    +0.000 A 
ATOM     18 CL   UNL     1      82.538  56.499  91.578  0.00  0.00    +0.000 Cl
ENDBRANCH  11  12
ENDBRANCH   4  10
TORSDOF 4
ENDMDL
