REMARK  Name = *****
REMARK  6 active torsions:
REMARK  status: ('A' for Active; 'I' for Inactive)
REMARK    1  A    between atoms: C_1  and  C_2
REMARK    2  A    between atoms: C_4  and  C_8
REMARK    3  A    between atoms: C_5  and  C_7
REMARK    4  A    between atoms: C_8  and  C_9
REMARK    5  A    between atoms: C_9  and  C_11
REMARK    6  A    between atoms: C_12  and  C_17
REMARK                            x       y       z     vdW  Elec       q    Type
REMARK                         _______ _______ _______ _____ _____    ______ ____
ROOT
ATOM      1  C   UNL     1       0.612  -3.967  -0.321  0.00  0.00    +0.000 C 
ATOM      2  O   UNL     1      -0.618  -3.942  -0.310  0.00  0.00    +0.000 OA
ENDROOT
BRANCH   1   3
ATOM      3  C   UNL     1       1.341  -5.251  -0.427  0.00  0.00    +0.000 A 
ATOM      4  C   UNL     1       0.713  -6.490  -0.545  0.00  0.00    +0.000 A 
ATOM      5  S   UNL     1       1.839  -7.784  -0.648  0.00  0.00    +0.000 S 
ATOM      6  C   UNL     1       3.145  -6.727  -0.537  0.00  0.00    +0.000 A 
ATOM      7  C   UNL     1       2.774  -5.414  -0.424  0.00  0.00    +0.000 A 
ATOM      8 CL   UNL     1       4.749  -7.337  -0.573  0.00  0.00    +0.000 Cl
ATOM      9  C   UNL     1      -0.751  -6.805  -0.592  0.00  0.00    +0.000 C 
ENDBRANCH   1   3
BRANCH   1  10
ATOM     10  C   UNL     1       1.453  -2.694  -0.230  0.00  0.00    +0.000 C 
BRANCH  10  14
ATOM     11  C   UNL     1      -0.631   1.547   1.819  0.00  0.00    +0.000 C 
ATOM     12  C   UNL     1      -0.262   0.496   0.829  0.00  0.00    +0.000 A 
ATOM     13  C   UNL     1       0.511  -0.628   1.018  0.00  0.00    +0.000 A 
ATOM     14  C   UNL     1       0.648  -1.423  -0.170  0.00  0.00    +0.000 A 
ATOM     15  C   UNL     1      -0.042  -0.849  -1.228  0.00  0.00    +0.000 A 
ATOM     16  S   UNL     1      -0.828   0.603  -0.775  0.00  0.00    +0.000 S 
ATOM     17  C   UNL     1      -0.196  -1.342  -2.630  0.00  0.00    +0.000 C 
ENDBRANCH  10  14
ENDBRANCH   1  10
TORSDOF 3
