MODEL 1
REMARK VINA RESULT:      -4.8      0.000      0.000
REMARK  Name = *****
REMARK  3 active torsions:
REMARK  status: ('A' for Active; 'I' for Inactive)
REMARK    1  A    between atoms: C_4  and  C_7
REMARK    2  A    between atoms: C_8  and  C_9
REMARK    3  A    between atoms: C_14  and  C_15
REMARK                            x       y       z     vdW  Elec       q    Type
REMARK                         _______ _______ _______ _____ _____    ______ ____
ROOT
ATOM      1  C   UNL     1      85.484  60.933  89.811  0.00  0.00    +0.000 C 
ATOM      2  C   UNL     1      85.438  60.112  90.872  0.00  0.00    +0.000 C 
ENDROOT
BRANCH   1   6
ATOM      3  C   UNL     1      87.853  64.489  89.623  0.00  0.00    +0.000 A 
ATOM      4  C   UNL     1      87.081  64.240  90.754  0.00  0.00    +0.000 A 
ATOM      5  C   UNL     1      86.295  63.087  90.827  0.00  0.00    +0.000 A 
ATOM      6  C   UNL     1      86.267  62.175  89.764  0.00  0.00    +0.000 A 
ATOM      7  C   UNL     1      87.062  62.429  88.638  0.00  0.00    +0.000 A 
ATOM      8  C   UNL     1      87.847  63.583  88.565  0.00  0.00    +0.000 A 
ENDBRANCH   1   6
BRANCH   2   9
ATOM      9  C   UNL     1      84.623  58.894  90.857  0.00  0.00    +0.000 A 
ATOM     10  C   UNL     1      83.227  59.048  90.857  0.00  0.00    +0.000 A 
ATOM     11  C   UNL     1      82.386  57.933  90.831  0.00  0.00    +0.000 A 
ATOM     12  C   UNL     1      82.929  56.650  90.805  0.00  0.00    +0.000 A 
ATOM     13  C   UNL     1      84.313  56.480  90.806  0.00  0.00    +0.000 A 
ATOM     14  C   UNL     1      85.162  57.597  90.831  0.00  0.00    +0.000 A 
BRANCH  14  15
ATOM     15  C   UNL     1      86.625  57.365  90.838  0.00  0.00    +0.000 C 
ATOM     16  O   UNL     1      87.277  57.295  89.802  0.00  0.00    +0.000 OA
ENDBRANCH  14  15
ENDBRANCH   2   9
TORSDOF 3
ENDMDL
