MODEL 1
REMARK VINA RESULT:      -4.6      0.000      0.000
REMARK  Name = *****
REMARK  2 active torsions:
REMARK  status: ('A' for Active; 'I' for Inactive)
REMARK    1  A    between atoms: C_5  and  N_7
REMARK    2  A    between atoms: C_8  and  C_9
REMARK                            x       y       z     vdW  Elec       q    Type
REMARK                         _______ _______ _______ _____ _____    ______ ____
ROOT
ATOM      1  N   UNL     1     101.930 125.900  82.633  0.00  0.00    +0.000 NA
ATOM      2  C   UNL     1     102.665 125.989  81.570  0.00  0.00    +0.000 C 
ENDROOT
BRANCH   1   7
ATOM      3  C   UNL     1      98.693 127.692  82.592  0.00  0.00    +0.000 A 
ATOM      4  C   UNL     1      99.016 128.897  83.211  0.00  0.00    +0.000 A 
ATOM      5  C   UNL     1     100.319 129.126  83.653  0.00  0.00    +0.000 A 
ATOM      6  C   UNL     1     101.302 128.147  83.469  0.00  0.00    +0.000 A 
ATOM      7  C   UNL     1     100.993 126.933  82.831  0.00  0.00    +0.000 A 
ATOM      8  C   UNL     1      99.676 126.715  82.409  0.00  0.00    +0.000 A 
ATOM      9 CL   UNL     1     102.898 128.484  84.046  0.00  0.00    +0.000 Cl
ENDBRANCH   1   7
BRANCH   2  10
ATOM     10  C   UNL     1     103.694 124.982  81.247  0.00  0.00    +0.000 A 
ATOM     11  C   UNL     1     104.365 125.012  80.018  0.00  0.00    +0.000 A 
ATOM     12  C   UNL     1     105.335 124.049  79.736  0.00  0.00    +0.000 A 
ATOM     13  C   UNL     1     105.623 123.069  80.680  0.00  0.00    +0.000 A 
ATOM     14  C   UNL     1     104.959 123.032  81.903  0.00  0.00    +0.000 A 
ATOM     15  C   UNL     1     103.988 123.992  82.192  0.00  0.00    +0.000 A 
ATOM     16  F   UNL     1     106.554 122.146  80.408  0.00  0.00    +0.000 F 
ENDBRANCH   2  10
TORSDOF 2
ENDMDL
