MODEL 1
REMARK VINA RESULT:      -3.9      0.000      0.000
REMARK  Name = *****
REMARK  2 active torsions:
REMARK  status: ('A' for Active; 'I' for Inactive)
REMARK    1  A    between atoms: C_5  and  C_8
REMARK    2  A    between atoms: C_9  and  C_10
REMARK                            x       y       z     vdW  Elec       q    Type
REMARK                         _______ _______ _______ _____ _____    ______ ____
ROOT
ATOM      1  C   UNL     1     101.818 125.928  82.042  0.00  0.00    +0.000 C 
ATOM      2  C   UNL     1     103.007 126.084  81.433  0.00  0.00    +0.000 C 
ENDROOT
BRANCH   1   7
ATOM      3  C   UNL     1     100.231 129.916  84.483  0.00  0.00    +0.000 C 
ATOM      4  C   UNL     1      99.332 129.673  83.274  0.00  0.00    +0.000 C 
ATOM      5  S   UNL     1      98.538 128.052  83.327  0.00  0.00    +0.000 S 
ATOM      6  C   UNL     1      99.727 126.973  82.682  0.00  0.00    +0.000 C 
ATOM      7  C   UNL     1     101.075 127.006  82.694  0.00  0.00    +0.000 C 
ATOM      8  S   UNL     1     102.116 128.248  83.338  0.00  0.00    +0.000 S 
ATOM      9  C   UNL     1     101.227 128.805  84.809  0.00  0.00    +0.000 C 
ENDBRANCH   1   7
BRANCH   2  10
ATOM     10  C   UNL     1     103.703 124.989  80.778  0.00  0.00    +0.000 C 
ATOM     11  C   UNL     1     104.483 124.051  81.347  0.00  0.00    +0.000 C 
ATOM     12  S   UNL     1     105.247 122.871  80.313  0.00  0.00    +0.000 S 
ATOM     13  C   UNL     1     104.737 121.340  81.140  0.00  0.00    +0.000 C 
ATOM     14  C   UNL     1     105.135 121.291  82.610  0.00  0.00    +0.000 C 
ATOM     15  C   UNL     1     104.403 122.323  83.457  0.00  0.00    +0.000 C 
ATOM     16  S   UNL     1     104.855 124.029  83.048  0.00  0.00    +0.000 S 
ENDBRANCH   2  10
TORSDOF 2
ENDMDL
