MODEL 1
REMARK VINA RESULT:      -4.7      0.000      0.000
REMARK  Name = *****
REMARK  4 active torsions:
REMARK  status: ('A' for Active; 'I' for Inactive)
REMARK    1  A    between atoms: C_1  and  C_2
REMARK    2  A    between atoms: C_5  and  S_8
REMARK    3  A    between atoms: S_8  and  C_9
REMARK    4  A    between atoms: C_10  and  C_11
REMARK                            x       y       z     vdW  Elec       q    Type
REMARK                         _______ _______ _______ _____ _____    ______ ____
ROOT
ATOM      1  S   UNL     1      86.509  68.392  88.312  0.00  0.00    +0.000 S 
ENDROOT
BRANCH   1   6
ATOM      2  C   UNL     1      91.211  65.792  85.439  0.00  0.00    +0.000 C 
ATOM      3  C   UNL     1      90.072  66.432  86.174  0.00  0.00    +0.000 A 
ATOM      4  C   UNL     1      89.107  65.643  86.810  0.00  0.00    +0.000 A 
ATOM      5  C   UNL     1      88.024  66.238  87.465  0.00  0.00    +0.000 A 
ATOM      6  C   UNL     1      87.892  67.629  87.486  0.00  0.00    +0.000 A 
ATOM      7  C   UNL     1      88.840  68.420  86.834  0.00  0.00    +0.000 A 
ATOM      8  C   UNL     1      89.922  67.825  86.178  0.00  0.00    +0.000 A 
ENDBRANCH   1   6
BRANCH   1   9
ATOM      9  C   UNL     1      87.306  69.788  88.960  0.00  0.00    +0.000 C 
ATOM     10  C   UNL     1      87.075  71.054  88.578  0.00  0.00    +0.000 C 
BRANCH  10  11
ATOM     11  C   UNL     1      86.105  71.528  87.584  0.00  0.00    +0.000 A 
ATOM     12  C   UNL     1      84.881  72.089  87.968  0.00  0.00    +0.000 A 
ATOM     13  C   UNL     1      83.987  72.561  87.005  0.00  0.00    +0.000 A 
ATOM     14  C   UNL     1      84.315  72.486  85.652  0.00  0.00    +0.000 A 
ATOM     15  C   UNL     1      85.536  71.941  85.262  0.00  0.00    +0.000 A 
ATOM     16  C   UNL     1      86.430  71.466  86.224  0.00  0.00    +0.000 A 
ENDBRANCH  10  11
ENDBRANCH   1   9
TORSDOF 3
ENDMDL
