REMARK  Name = *****
REMARK  4 active torsions:
REMARK  status: ('A' for Active; 'I' for Inactive)
REMARK    1  A    between atoms: C_1  and  C_2
REMARK    2  A    between atoms: C_3  and  C_4
REMARK    3  A    between atoms: C_3  and  S_10
REMARK    4  A    between atoms: S_10  and  C_11
REMARK                            x       y       z     vdW  Elec       q    Type
REMARK                         _______ _______ _______ _____ _____    ______ ____
ROOT
ATOM      1  C   UNL     1       1.117   0.702  -0.080  0.00  0.00    +0.000 C 
ATOM      2  C   UNL     1       2.514   0.174  -0.160  0.00  0.00    +0.000 C 
ATOM      3  C   UNL     1       2.949  -1.070   0.109  0.00  0.00    +0.000 C 
ENDROOT
BRANCH   3   4
ATOM      4  C   UNL     1       4.388  -1.375  -0.009  0.00  0.00    +0.000 A 
ATOM      5  C   UNL     1       5.182  -1.522   1.137  0.00  0.00    +0.000 A 
ATOM      6  C   UNL     1       6.545  -1.800   1.021  0.00  0.00    +0.000 A 
ATOM      7  C   UNL     1       7.127  -1.931  -0.239  0.00  0.00    +0.000 A 
ATOM      8  C   UNL     1       6.347  -1.783  -1.385  0.00  0.00    +0.000 A 
ATOM      9  C   UNL     1       4.984  -1.503  -1.272  0.00  0.00    +0.000 A 
ENDBRANCH   3   4
BRANCH   3  10
ATOM     10  S   UNL     1       1.934  -2.365   0.659  0.00  0.00    +0.000 S 
BRANCH  10  11
ATOM     11  C   UNL     1       1.912  -3.356  -0.825  0.00  0.00    +0.000 A 
ATOM     12  C   UNL     1       2.720  -4.493  -0.918  0.00  0.00    +0.000 A 
ATOM     13  C   UNL     1       2.706  -5.274  -2.076  0.00  0.00    +0.000 A 
ATOM     14  C   UNL     1       1.878  -4.925  -3.142  0.00  0.00    +0.000 A 
ATOM     15  C   UNL     1       1.063  -3.797  -3.052  0.00  0.00    +0.000 A 
ATOM     16  C   UNL     1       1.077  -3.016  -1.895  0.00  0.00    +0.000 A 
ENDBRANCH  10  11
ENDBRANCH   3  10
TORSDOF 3
