MODEL 1
REMARK VINA RESULT:      -5.1      0.000      0.000
REMARK  Name = *****
REMARK  2 active torsions:
REMARK  status: ('A' for Active; 'I' for Inactive)
REMARK    1  A    between atoms: C_1  and  C_2
REMARK    2  A    between atoms: C_5  and  C_8
REMARK                            x       y       z     vdW  Elec       q    Type
REMARK                         _______ _______ _______ _____ _____    ______ ____
ROOT
ATOM      1  C   UNL     1     102.014 126.632  82.465  0.00  0.00    +0.000 C 
ATOM      2  N   UNL     1     102.387 127.722  83.050  0.00  0.00    +0.000 NA
ATOM      3  C   UNL     1     101.416 128.600  83.527  0.00  0.00    +0.000 A 
ATOM      4  C   UNL     1     101.814 129.744  84.221  0.00  0.00    +0.000 A 
ATOM      5  C   UNL     1     100.867 130.642  84.716  0.00  0.00    +0.000 A 
ATOM      6  C   UNL     1      99.511 130.399  84.515  0.00  0.00    +0.000 A 
ATOM      7  C   UNL     1      99.105 129.258  83.822  0.00  0.00    +0.000 A 
ATOM      8  C   UNL     1     100.060 128.356  83.332  0.00  0.00    +0.000 A 
ATOM      9  C   UNL     1      99.660 127.132  82.580  0.00  0.00    +0.000 C 
ATOM     10  O   UNL     1     100.738 126.248  82.232  0.00  0.00    +0.000 OA
ENDROOT
BRANCH   1  15
ATOM     11  C   UNL     1     105.750 122.629  80.545  0.00  0.00    +0.000 C 
ATOM     12  C   UNL     1     104.788 123.677  81.023  0.00  0.00    +0.000 A 
ATOM     13  C   UNL     1     104.271 124.635  80.145  0.00  0.00    +0.000 A 
ATOM     14  C   UNL     1     103.372 125.604  80.601  0.00  0.00    +0.000 A 
ATOM     15  C   UNL     1     102.976 125.627  81.944  0.00  0.00    +0.000 A 
ATOM     16  C   UNL     1     103.493 124.666  82.822  0.00  0.00    +0.000 A 
ATOM     17  C   UNL     1     104.393 123.699  82.365  0.00  0.00    +0.000 A 
ENDBRANCH   1  15
TORSDOF 1
ENDMDL
