MODEL 1
REMARK VINA RESULT:      -4.4      0.000      0.000
REMARK  Name = *****
REMARK  3 active torsions:
REMARK  status: ('A' for Active; 'I' for Inactive)
REMARK    1  A    between atoms: N_4  and  C_7
REMARK    2  A    between atoms: C_7  and  C_16
REMARK    3  A    between atoms: C_8  and  C_9
REMARK                            x       y       z     vdW  Elec       q    Type
REMARK                         _______ _______ _______ _____ _____    ______ ____
ROOT
ATOM      1  C   UNL     1      88.273  69.354  86.139  0.00  0.00    +0.000 C 
ATOM      2  C   UNL     1      88.012  70.655  86.411  0.00  0.00    +0.000 C 
ENDROOT
BRANCH   2   3
ATOM      3  C   UNL     1      86.750  71.220  86.924  0.00  0.00    +0.000 A 
ATOM      4  C   UNL     1      85.783  71.671  86.011  0.00  0.00    +0.000 A 
ATOM      5  C   UNL     1      84.588  72.243  86.454  0.00  0.00    +0.000 A 
ATOM      6  C   UNL     1      84.346  72.379  87.818  0.00  0.00    +0.000 A 
ATOM      7  C   UNL     1      85.297  71.944  88.740  0.00  0.00    +0.000 A 
ATOM      8  C   UNL     1      86.495  71.371  88.297  0.00  0.00    +0.000 A 
ATOM      9 BR   UNL     1      87.726  70.787  89.626  0.00  0.00    +0.000 Br
ENDBRANCH   2   3
BRANCH   1  13
ATOM     10  C   UNL     1      87.463  65.411  86.233  0.00  0.00    +0.000 C 
ATOM     11  C   UNL     1      88.168  66.186  87.345  0.00  0.00    +0.000 C 
ATOM     12  C   UNL     1      87.454  67.505  87.641  0.00  0.00    +0.000 C 
ATOM     13  N   UNL     1      87.344  68.307  86.405  0.00  0.00    +0.000 N 
ATOM     14  C   UNL     1      86.614  67.607  85.334  0.00  0.00    +0.000 C 
ATOM     15  C   UNL     1      87.282  66.279  84.989  0.00  0.00    +0.000 C 
ENDBRANCH   1  13
BRANCH   1  16
ATOM     16  C   UNL     1      89.652  69.017  85.530  0.00  0.00    +0.000 C 
ATOM     17  F   UNL     1      90.389  70.139  85.309  0.00  0.00    +0.000 F 
ATOM     18  F   UNL     1      90.392  68.213  86.340  0.00  0.00    +0.000 F 
ATOM     19  F   UNL     1      89.567  68.375  84.333  0.00  0.00    +0.000 F 
ENDBRANCH   1  16
TORSDOF 3
ENDMDL
