REMARK  Name = *****
REMARK  4 active torsions:
REMARK  status: ('A' for Active; 'I' for Inactive)
REMARK    1  A    between atoms: C_4  and  C_7
REMARK    2  A    between atoms: C_7  and  C_8
REMARK    3  A    between atoms: C_8  and  C_9
REMARK    4  A    between atoms: C_9  and  C_10
REMARK                            x       y       z     vdW  Elec       q    Type
REMARK                         _______ _______ _______ _____ _____    ______ ____
ROOT
ATOM      1  C   UNL     1      -2.830   0.453  -0.179  0.00  0.00    +0.000 C 
ENDROOT
BRANCH   1   5
ATOM      2  C   UNL     1       1.418  -0.160   0.239  0.00  0.00    +0.000 A 
ATOM      3  C   UNL     1       0.854  -0.025  -1.029  0.00  0.00    +0.000 A 
ATOM      4  C   UNL     1      -0.520   0.178  -1.165  0.00  0.00    +0.000 A 
ATOM      5  C   UNL     1      -1.342   0.253  -0.033  0.00  0.00    +0.000 A 
ATOM      6  C   UNL     1      -0.767   0.109   1.237  0.00  0.00    +0.000 A 
ATOM      7  C   UNL     1       0.608  -0.094   1.371  0.00  0.00    +0.000 A 
ENDBRANCH   1   5
BRANCH   1   8
ATOM      8  C   UNL     1      -3.573  -0.879  -0.286  0.00  0.00    +0.000 C 
BRANCH   8   9
ATOM      9  C   UNL     1      -5.080  -0.658  -0.427  0.00  0.00    +0.000 C 
BRANCH   9  10
ATOM     10  C   UNL     1      -5.835  -1.951  -0.535  0.00  0.00    +0.000 A 
ATOM     11  C   UNL     1      -6.334  -2.665   0.540  0.00  0.00    +0.000 A 
ATOM     12  S   UNL     1      -7.142  -4.096   0.068  0.00  0.00    +0.000 S 
ATOM     13  C   UNL     1      -6.838  -3.786  -1.584  0.00  0.00    +0.000 A 
ATOM     14  C   UNL     1      -6.136  -2.616  -1.769  0.00  0.00    +0.000 A 
ENDBRANCH   9  10
ENDBRANCH   8   9
ENDBRANCH   1   8
TORSDOF 4
