MODEL 1
REMARK VINA RESULT:      -4.7      0.000      0.000
REMARK  Name = *****
REMARK  3 active torsions:
REMARK  status: ('A' for Active; 'I' for Inactive)
REMARK    1  A    between atoms: C_4  and  C_7
REMARK    2  A    between atoms: C_8  and  C_9
REMARK    3  A    between atoms: C_14  and  N_15
REMARK                            x       y       z     vdW  Elec       q    Type
REMARK                         _______ _______ _______ _____ _____    ______ ____
ROOT
ATOM      1  C   UNL     1     103.914 124.436  81.612  0.00  0.00    +0.000 A 
ATOM      2  C   UNL     1     104.439 124.479  80.314  0.00  0.00    +0.000 A 
ATOM      3  C   UNL     1     105.411 123.560  79.917  0.00  0.00    +0.000 A 
ATOM      4  C   UNL     1     105.858 122.591  80.811  0.00  0.00    +0.000 A 
ATOM      5  C   UNL     1     105.339 122.544  82.106  0.00  0.00    +0.000 A 
ATOM      6  C   UNL     1     104.378 123.474  82.533  0.00  0.00    +0.000 A 
ENDROOT
BRANCH   6   7
ATOM      7  N   UNL     1     103.864 123.358  83.842  0.00  0.00    +0.000 NA
ATOM      8  C   UNL     1     104.700 123.490  84.656  0.00  0.00    +0.000 C 
ATOM      9  O   UNL     1     105.532 123.614  85.478  0.00  0.00    +0.000 OA
ENDBRANCH   6   7
BRANCH   1  11
ATOM     10  C   UNL     1     102.052 126.175  82.285  0.00  0.00    +0.000 C 
ATOM     11  C   UNL     1     102.906 125.390  81.976  0.00  0.00    +0.000 C 
BRANCH  10  15
ATOM     12  C   UNL     1      99.010 128.887  83.393  0.00  0.00    +0.000 A 
ATOM     13  C   UNL     1      98.683 127.704  82.733  0.00  0.00    +0.000 A 
ATOM     14  C   UNL     1      99.689 126.807  82.367  0.00  0.00    +0.000 A 
ATOM     15  C   UNL     1     101.023 127.095  82.661  0.00  0.00    +0.000 A 
ATOM     16  C   UNL     1     101.350 128.281  83.322  0.00  0.00    +0.000 A 
ATOM     17  C   UNL     1     100.343 129.176  83.689  0.00  0.00    +0.000 A 
ENDBRANCH  10  15
ENDBRANCH   1  11
TORSDOF 3
ENDMDL
