MODEL 1
REMARK VINA RESULT:      -4.8      0.000      0.000
REMARK  Name = *****
REMARK  2 active torsions:
REMARK  status: ('A' for Active; 'I' for Inactive)
REMARK    1  A    between atoms: C_6  and  C_7
REMARK    2  A    between atoms: C_8  and  C_9
REMARK                            x       y       z     vdW  Elec       q    Type
REMARK                         _______ _______ _______ _____ _____    ______ ____
ROOT
ATOM      1  C   UNL     1      88.839  68.839  86.842  0.00  0.00    +0.000 C 
ATOM      2  C   UNL     1      89.929  68.166  86.435  0.00  0.00    +0.000 C 
ENDROOT
BRANCH   1   8
ATOM      3  C   UNL     1      87.707  70.964  86.084  0.00  0.00    +0.000 C 
ATOM      4  C   UNL     1      86.400  71.329  86.744  0.00  0.00    +0.000 C 
ATOM      5  C   UNL     1      86.267  71.396  88.076  0.00  0.00    +0.000 C 
ATOM      6  C   UNL     1      87.383  71.144  88.952  0.00  0.00    +0.000 C 
ATOM      7  C   UNL     1      88.542  70.656  88.485  0.00  0.00    +0.000 C 
ATOM      8  C   UNL     1      88.779  70.342  87.025  0.00  0.00    +0.000 C 
ATOM      9  F   UNL     1      89.981  70.896  86.669  0.00  0.00    +0.000 F 
ENDBRANCH   1   8
BRANCH   2  10
ATOM     10  C   UNL     1      90.000  66.707  86.264  0.00  0.00    +0.000 A 
ATOM     11  C   UNL     1      89.038  65.837  86.793  0.00  0.00    +0.000 A 
ATOM     12  C   UNL     1      89.128  64.459  86.579  0.00  0.00    +0.000 A 
ATOM     13  C   UNL     1      90.176  63.937  85.825  0.00  0.00    +0.000 A 
ATOM     14  C   UNL     1      91.130  64.792  85.279  0.00  0.00    +0.000 A 
ATOM     15  C   UNL     1      91.039  66.170  85.493  0.00  0.00    +0.000 A 
ENDBRANCH   2  10
TORSDOF 2
ENDMDL
