REMARK  Name = *****
REMARK  1 active torsions:
REMARK  status: ('A' for Active; 'I' for Inactive)
REMARK    1  A    between atoms: C_8  and  C_10
REMARK                            x       y       z     vdW  Elec       q    Type
REMARK                         _______ _______ _______ _____ _____    ______ ____
ROOT
ATOM      1  C   UNL     1       2.200   0.583   0.175  0.00  0.00    +0.000 A 
ATOM      2  C   UNL     1       2.095  -0.741  -0.272  0.00  0.00    +0.000 A 
ATOM      3  C   UNL     1       0.849  -1.350  -0.462  0.00  0.00    +0.000 A 
ATOM      4  C   UNL     1      -0.257  -0.557  -0.179  0.00  0.00    +0.000 A 
ATOM      5  C   UNL     1      -0.197   0.754   0.266  0.00  0.00    +0.000 A 
ATOM      6  C   UNL     1       1.057   1.350   0.450  0.00  0.00    +0.000 A 
ATOM      7  N   UNL     1      -1.465   1.243   0.448  0.00  0.00    +0.000 NA
ATOM      8  C   UNL     1      -2.239   0.226   0.118  0.00  0.00    +0.000 A 
ATOM      9  O   UNL     1      -1.572  -0.904  -0.282  0.00  0.00    +0.000 OA
ENDROOT
BRANCH   8  10
ATOM     10  C   UNL     1      -3.689   0.142   0.091  0.00  0.00    +0.000 A 
ATOM     11  C   UNL     1      -4.438   0.920  -0.808  0.00  0.00    +0.000 A 
ATOM     12  C   UNL     1      -5.837   0.847  -0.830  0.00  0.00    +0.000 A 
ATOM     13  C   UNL     1      -6.509  -0.003   0.044  0.00  0.00    +0.000 A 
ATOM     14  C   UNL     1      -5.783  -0.780   0.943  0.00  0.00    +0.000 A 
ATOM     15  C   UNL     1      -4.384  -0.708   0.968  0.00  0.00    +0.000 A 
ATOM     16 CL   UNL     1      -3.573  -1.692   2.142  0.00  0.00    +0.000 Cl
ATOM     17 CL   UNL     1      -3.694   1.982  -1.958  0.00  0.00    +0.000 Cl
ENDBRANCH   8  10
TORSDOF 1
