MODEL 1
REMARK VINA RESULT:      -5.0      0.000      0.000
REMARK  Name = *****
REMARK  4 active torsions:
REMARK  status: ('A' for Active; 'I' for Inactive)
REMARK    1  A    between atoms: C_1  and  C_2
REMARK    2  A    between atoms: C_2  and  C_11
REMARK    3  A    between atoms: N_3  and  C_4
REMARK    4  A    between atoms: C_14  and  C_17
REMARK                            x       y       z     vdW  Elec       q    Type
REMARK                         _______ _______ _______ _____ _____    ______ ____
ROOT
ATOM      1  C   UNL     1     103.151 127.137  81.111  0.00  0.00    +0.000 C 
ATOM      2  C   UNL     1     102.873 126.019  82.099  0.00  0.00    +0.000 C 
ATOM      3  N   UNL     1     101.979 126.089  83.044  0.00  0.00    +0.000 NA
ENDROOT
BRANCH   3   4
ATOM      4  C   UNL     1     101.193 127.237  83.190  0.00  0.00    +0.000 A 
ATOM      5  C   UNL     1      99.875 127.258  82.719  0.00  0.00    +0.000 A 
ATOM      6  C   UNL     1      99.085 128.396  82.890  0.00  0.00    +0.000 A 
ATOM      7  C   UNL     1      99.612 129.501  83.547  0.00  0.00    +0.000 A 
ATOM      8  C   UNL     1     100.911 129.489  84.041  0.00  0.00    +0.000 A 
ATOM      9  C   UNL     1     101.699 128.350  83.868  0.00  0.00    +0.000 A 
ATOM     10  F   UNL     1      98.854 130.593  83.713  0.00  0.00    +0.000 F 
ENDBRANCH   3   4
BRANCH   2  11
ATOM     11  C   UNL     1     103.663 124.755  81.969  0.00  0.00    +0.000 A 
ATOM     12  C   UNL     1     103.915 123.992  83.116  0.00  0.00    +0.000 A 
ATOM     13  C   UNL     1     104.645 122.802  83.028  0.00  0.00    +0.000 A 
ATOM     14  C   UNL     1     105.132 122.355  81.791  0.00  0.00    +0.000 A 
ATOM     15  C   UNL     1     104.855 123.112  80.642  0.00  0.00    +0.000 A 
ATOM     16  C   UNL     1     104.126 124.303  80.729  0.00  0.00    +0.000 A 
BRANCH  14  17
ATOM     17  C   UNL     1     105.898 121.058  81.688  0.00  0.00    +0.000 C 
ATOM     18  F   UNL     1     106.586 120.748  82.822  0.00  0.00    +0.000 F 
ATOM     19  F   UNL     1     105.085 119.995  81.440  0.00  0.00    +0.000 F 
ATOM     20  F   UNL     1     106.819 121.066  80.685  0.00  0.00    +0.000 F 
ENDBRANCH  14  17
ENDBRANCH   2  11
TORSDOF 3
ENDMDL
