MODEL 1
REMARK VINA RESULT:      -4.4      0.000      0.000
REMARK  Name = *****
REMARK  4 active torsions:
REMARK  status: ('A' for Active; 'I' for Inactive)
REMARK    1  A    between atoms: C_3  and  C_8
REMARK    2  A    between atoms: C_8  and  C_9
REMARK    3  A    between atoms: C_9  and  C_10
REMARK    4  A    between atoms: C_10  and  C_12
REMARK                            x       y       z     vdW  Elec       q    Type
REMARK                         _______ _______ _______ _____ _____    ______ ____
ROOT
ATOM      1  C   UNL     1      89.888  68.149  86.259  0.00  0.00    +0.000 C 
ENDROOT
BRANCH   1   2
ATOM      2  C   UNL     1      88.702  67.231  86.033  0.00  0.00    +0.000 C 
ATOM      3  O   UNL     1      88.177  67.098  84.929  0.00  0.00    +0.000 OA
BRANCH   2   4
ATOM      4  C   UNL     1      88.158  66.462  87.194  0.00  0.00    +0.000 A 
ATOM      5  C   UNL     1      88.690  65.232  87.590  0.00  0.00    +0.000 A 
ATOM      6  C   UNL     1      88.137  64.565  88.680  0.00  0.00    +0.000 A 
ATOM      7  C   UNL     1      87.064  65.097  89.386  0.00  0.00    +0.000 A 
ATOM      8  C   UNL     1      86.529  66.323  88.999  0.00  0.00    +0.000 A 
ATOM      9  C   UNL     1      87.076  67.003  87.907  0.00  0.00    +0.000 A 
ATOM     10  F   UNL     1      88.649  63.386  89.054  0.00  0.00    +0.000 F 
ENDBRANCH   2   4
ENDBRANCH   1   2
BRANCH   1  11
ATOM     11  C   UNL     1      89.561  69.595  85.886  0.00  0.00    +0.000 C 
BRANCH  11  14
ATOM     12  C   UNL     1      88.034  70.775  89.175  0.00  0.00    +0.000 A 
ATOM     13  C   UNL     1      88.920  70.219  88.251  0.00  0.00    +0.000 A 
ATOM     14  C   UNL     1      88.613  70.219  86.882  0.00  0.00    +0.000 A 
ATOM     15  C   UNL     1      87.401  70.778  86.455  0.00  0.00    +0.000 A 
ATOM     16  C   UNL     1      86.520  71.333  87.383  0.00  0.00    +0.000 A 
ATOM     17  C   UNL     1      86.831  71.333  88.742  0.00  0.00    +0.000 A 
ATOM     18 CL   UNL     1      85.035  72.017  86.849  0.00  0.00    +0.000 Cl
ENDBRANCH  11  14
ENDBRANCH   1  11
TORSDOF 4
ENDMDL
