MODEL 1
REMARK VINA RESULT:      -4.6      0.000      0.000
REMARK  Name = *****
REMARK  2 active torsions:
REMARK  status: ('A' for Active; 'I' for Inactive)
REMARK    1  A    between atoms: C_5  and  C_9
REMARK    2  A    between atoms: C_10  and  C_11
REMARK                            x       y       z     vdW  Elec       q    Type
REMARK                         _______ _______ _______ _____ _____    ______ ____
ROOT
ATOM      1  C   UNL     1      88.581  63.947  88.494  0.00  0.00    +0.000 C 
ATOM      2  C   UNL     1      87.983  65.294  88.072  0.00  0.00    +0.000 C 
ATOM      3  C   UNL     1      86.731  65.763  88.819  0.00  0.00    +0.000 C 
ATOM      4  C   UNL     1      85.883  64.630  89.302  0.00  0.00    +0.000 C 
ATOM      5  C   UNL     1      86.403  63.734  90.405  0.00  0.00    +0.000 C 
ATOM      6  O   UNL     1      85.420  64.752  90.650  0.00  0.00    +0.000 OA
ATOM      7  C   UNL     1      87.761  64.032  90.974  0.00  0.00    +0.000 C 
ATOM      8  C   UNL     1      88.897  63.756  89.982  0.00  0.00    +0.000 C 
ENDROOT
BRANCH   5   9
ATOM      9  C   UNL     1      85.887  62.403  90.514  0.00  0.00    +0.000 C 
ATOM     10  C   UNL     1      85.459  61.285  90.615  0.00  0.00    +0.000 C 
BRANCH  10  11
ATOM     11  C   UNL     1      84.951  59.954  90.733  0.00  0.00    +0.000 A 
ATOM     12  C   UNL     1      85.832  58.878  90.856  0.00  0.00    +0.000 A 
ATOM     13  C   UNL     1      85.336  57.578  90.973  0.00  0.00    +0.000 A 
ATOM     14  C   UNL     1      83.960  57.353  90.965  0.00  0.00    +0.000 A 
ATOM     15  C   UNL     1      83.079  58.426  90.840  0.00  0.00    +0.000 A 
ATOM     16  C   UNL     1      83.573  59.726  90.725  0.00  0.00    +0.000 A 
ENDBRANCH  10  11
ENDBRANCH   5   9
TORSDOF 2
ENDMDL
