REMARK  Name = *****
REMARK  2 active torsions:
REMARK  status: ('A' for Active; 'I' for Inactive)
REMARK    1  A    between atoms: C_10  and  C_11
REMARK    2  A    between atoms: C_12  and  C_13
REMARK                            x       y       z     vdW  Elec       q    Type
REMARK                         _______ _______ _______ _____ _____    ______ ____
ROOT
ATOM      1  C   UNL     1       2.467   0.742  -0.277  0.00  0.00    +0.000 C 
ATOM      2  C   UNL     1       2.401  -0.595   0.410  0.00  0.00    +0.000 C 
ATOM      3  C   UNL     1       1.236  -1.206   0.668  0.00  0.00    +0.000 C 
ATOM      4  C   UNL     1      -0.033  -0.592   0.262  0.00  0.00    +0.000 A 
ATOM      5  C   UNL     1      -1.213  -1.344   0.285  0.00  0.00    +0.000 A 
ATOM      6  C   UNL     1      -2.425  -0.767  -0.100  0.00  0.00    +0.000 A 
ATOM      7  C   UNL     1      -2.468   0.566  -0.503  0.00  0.00    +0.000 A 
ATOM      8  C   UNL     1      -1.299   1.327  -0.521  0.00  0.00    +0.000 A 
ATOM      9  C   UNL     1      -0.073   0.756  -0.143  0.00  0.00    +0.000 A 
ATOM     10  C   UNL     1       1.190   1.597  -0.112  0.00  0.00    +0.000 C 
ENDROOT
BRANCH  10  11
ATOM     11  C   UNL     1       1.254   2.394   1.134  0.00  0.00    +0.000 C 
ATOM     12  C   UNL     1       1.302   3.043   2.144  0.00  0.00    +0.000 C 
BRANCH  12  13
ATOM     13  C   UNL     1       1.353   3.815   3.347  0.00  0.00    +0.000 A 
ATOM     14  C   UNL     1       0.204   4.456   3.815  0.00  0.00    +0.000 A 
ATOM     15  C   UNL     1       0.253   5.212   4.988  0.00  0.00    +0.000 A 
ATOM     16  C   UNL     1       1.451   5.326   5.694  0.00  0.00    +0.000 A 
ATOM     17  C   UNL     1       2.600   4.686   5.228  0.00  0.00    +0.000 A 
ATOM     18  C   UNL     1       2.551   3.930   4.055  0.00  0.00    +0.000 A 
ENDBRANCH  12  13
ENDBRANCH  10  11
TORSDOF 2
