MODEL 1
REMARK VINA RESULT:      -4.5      0.000      0.000
REMARK  Name = *****
REMARK  6 active torsions:
REMARK  status: ('A' for Active; 'I' for Inactive)
REMARK    1  A    between atoms: C_1  and  C_2
REMARK    2  A    between atoms: C_4  and  C_18
REMARK    3  A    between atoms: C_6  and  O_8
REMARK    4  A    between atoms: O_8  and  C_9
REMARK    5  A    between atoms: C_9  and  C_11
REMARK    6  A    between atoms: C_11  and  C_12
REMARK                            x       y       z     vdW  Elec       q    Type
REMARK                         _______ _______ _______ _____ _____    ______ ____
ROOT
ATOM      1  O   UNL     1      89.003  69.584  85.844  0.00  0.00    +0.000 OA
ENDROOT
BRANCH   1   7
ATOM      2  C   UNL     1      88.478  71.175  90.489  0.00  0.00    +0.000 C 
ATOM      3  C   UNL     1      87.961  71.008  89.090  0.00  0.00    +0.000 A 
ATOM      4  C   UNL     1      86.721  71.553  88.722  0.00  0.00    +0.000 A 
ATOM      5  C   UNL     1      86.234  71.424  87.412  0.00  0.00    +0.000 A 
ATOM      6  C   UNL     1      87.021  70.778  86.452  0.00  0.00    +0.000 A 
ATOM      7  C   UNL     1      88.267  70.272  86.814  0.00  0.00    +0.000 A 
ATOM      8  C   UNL     1      88.737  70.363  88.123  0.00  0.00    +0.000 A 
ATOM      9  C   UNL     1      84.915  72.027  87.031  0.00  0.00    +0.000 C 
ENDBRANCH   1   7
BRANCH   1  10
ATOM     10  C   UNL     1      89.325  68.273  86.187  0.00  0.00    +0.000 C 
ATOM     11  O   UNL     1      90.410  67.862  86.582  0.00  0.00    +0.000 OA
BRANCH  10  12
ATOM     12  C   UNL     1      88.115  67.394  85.983  0.00  0.00    +0.000 C 
BRANCH  12  13
ATOM     13  C   UNL     1      87.689  66.688  87.245  0.00  0.00    +0.000 A 
ATOM     14  C   UNL     1      88.239  65.446  87.589  0.00  0.00    +0.000 A 
ATOM     15  C   UNL     1      87.826  64.787  88.748  0.00  0.00    +0.000 A 
ATOM     16  C   UNL     1      86.857  65.361  89.570  0.00  0.00    +0.000 A 
ATOM     17  C   UNL     1      86.299  66.593  89.233  0.00  0.00    +0.000 A 
ATOM     18  C   UNL     1      86.711  67.254  88.075  0.00  0.00    +0.000 A 
ENDBRANCH  12  13
ENDBRANCH  10  12
ENDBRANCH   1  10
TORSDOF 4
ENDMDL
