MODEL 1
REMARK VINA RESULT:      -4.8      0.000      0.000
REMARK  Name = *****
REMARK  5 active torsions:
REMARK  status: ('A' for Active; 'I' for Inactive)
REMARK    1  A    between atoms: C_1  and  O_2
REMARK    2  A    between atoms: O_2  and  N_3
REMARK    3  A    between atoms: N_3  and  C_4
REMARK    4  A    between atoms: C_10  and  C_11
REMARK    5  A    between atoms: C_11  and  C_12
REMARK                            x       y       z     vdW  Elec       q    Type
REMARK                         _______ _______ _______ _____ _____    ______ ____
ROOT
ATOM      1  C   UNL     1      89.739  67.496  84.647  0.00  0.00    +0.000 C 
ATOM      2  C   UNL     1      89.859  68.968  84.655  0.00  0.00    +0.000 C 
ATOM      3  C   UNL     1      89.611  69.802  85.678  0.00  0.00    +0.000 C 
ATOM      4  C   UNL     1      89.849  71.227  85.250  0.00  0.00    +0.000 C 
ATOM      5  C   UNL     1      90.623  71.078  83.943  0.00  0.00    +0.000 C 
ATOM      6  C   UNL     1      90.286  69.690  83.417  0.00  0.00    +0.000 C 
ATOM      7  C   UNL     1      89.166  69.459  87.010  0.00  0.00    +0.000 C 
ENDROOT
BRANCH   1   8
ATOM      8  N   UNL     1      89.994  66.783  83.598  0.00  0.00    +0.000 NA
BRANCH   8  10
ATOM      9  C   UNL     1      90.955  65.730  85.391  0.00  0.00    +0.000 C 
ATOM     10  O   UNL     1      90.771  65.679  83.981  0.00  0.00    +0.000 OA
ENDBRANCH   8  10
ENDBRANCH   1   8
BRANCH   7  11
ATOM     11  C   UNL     1      88.875  70.345  87.978  0.00  0.00    +0.000 C 
BRANCH  11  12
ATOM     12  C   UNL     1      87.544  70.946  88.161  0.00  0.00    +0.000 A 
ATOM     13  C   UNL     1      86.673  71.172  87.087  0.00  0.00    +0.000 A 
ATOM     14  C   UNL     1      85.405  71.716  87.304  0.00  0.00    +0.000 A 
ATOM     15  C   UNL     1      84.990  72.028  88.597  0.00  0.00    +0.000 A 
ATOM     16  C   UNL     1      85.840  71.791  89.675  0.00  0.00    +0.000 A 
ATOM     17  C   UNL     1      87.110  71.247  89.458  0.00  0.00    +0.000 A 
ENDBRANCH  11  12
ENDBRANCH   7  11
TORSDOF 4
ENDMDL
