MODEL 1
REMARK VINA RESULT:      -4.5      0.000      0.000
REMARK  Name = *****
REMARK  3 active torsions:
REMARK  status: ('A' for Active; 'I' for Inactive)
REMARK    1  A    between atoms: C_5  and  O_7
REMARK    2  A    between atoms: O_7  and  C_8
REMARK    3  A    between atoms: C_8  and  C_10
REMARK                            x       y       z     vdW  Elec       q    Type
REMARK                         _______ _______ _______ _____ _____    ______ ____
ROOT
ATOM      1  C   UNL     1     101.833 126.000  82.605  0.00  0.00    +0.000 C 
ATOM      2  O   UNL     1     102.305 125.293  83.479  0.00  0.00    +0.000 OA
ENDROOT
BRANCH   1   3
ATOM      3  C   UNL     1     100.938 127.127  82.869  0.00  0.00    +0.000 A 
ATOM      4  C   UNL     1     101.427 128.257  83.515  0.00  0.00    +0.000 A 
ATOM      5  C   UNL     1     100.585 129.335  83.792  0.00  0.00    +0.000 A 
ATOM      6  C   UNL     1      99.240 129.279  83.425  0.00  0.00    +0.000 A 
ATOM      7  C   UNL     1      98.743 128.143  82.784  0.00  0.00    +0.000 A 
ATOM      8  C   UNL     1      99.594 127.073  82.512  0.00  0.00    +0.000 A 
ATOM      9  F   UNL     1      99.084 125.984  81.917  0.00  0.00    +0.000 F 
ATOM     10  F   UNL     1     102.717 128.348  83.864  0.00  0.00    +0.000 F 
ENDBRANCH   1   3
BRANCH   1  11
ATOM     11  O   UNL     1     102.033 125.931  81.240  0.00  0.00    +0.000 OA
BRANCH  11  16
ATOM     12  C   UNL     1     105.303 124.567  80.269  0.00  0.00    +0.000 A 
ATOM     13  C   UNL     1     106.059 125.740  80.162  0.00  0.00    +0.000 A 
ATOM     14  C   UNL     1     105.471 126.980  80.416  0.00  0.00    +0.000 A 
ATOM     15  C   UNL     1     104.132 127.041  80.785  0.00  0.00    +0.000 A 
ATOM     16  C   UNL     1     103.387 125.871  80.911  0.00  0.00    +0.000 A 
ATOM     17  C   UNL     1     103.958 124.630  80.639  0.00  0.00    +0.000 A 
ATOM     18  F   UNL     1     103.560 128.235  81.004  0.00  0.00    +0.000 F 
ENDBRANCH  11  16
ENDBRANCH   1  11
TORSDOF 3
ENDMDL
