MODEL 1
REMARK VINA RESULT:      -4.6      0.000      0.000
REMARK  Name = *****
REMARK  4 active torsions:
REMARK  status: ('A' for Active; 'I' for Inactive)
REMARK    1  A    between atoms: C_1  and  C_2
REMARK    2  A    between atoms: C_5  and  C_8
REMARK    3  A    between atoms: C_8  and  C_9
REMARK    4  A    between atoms: C_9  and  C_10
REMARK                            x       y       z     vdW  Elec       q    Type
REMARK                         _______ _______ _______ _____ _____    ______ ____
ROOT
ATOM      1  C   UNL     1     102.789 126.235  81.483  0.00  0.00    +0.000 C 
ATOM      2 CL   UNL     1     103.487 127.393  80.306  0.00  0.00    +0.000 Cl
ENDROOT
BRANCH   1   7
ATOM      3  C   UNL     1     106.008 121.358  81.525  0.00  0.00    +0.000 C 
ATOM      4  C   UNL     1     105.206 122.624  81.524  0.00  0.00    +0.000 A 
ATOM      5  C   UNL     1     105.012 123.343  80.341  0.00  0.00    +0.000 A 
ATOM      6  C   UNL     1     104.240 124.508  80.337  0.00  0.00    +0.000 A 
ATOM      7  C   UNL     1     103.634 124.974  81.514  0.00  0.00    +0.000 A 
ATOM      8  C   UNL     1     103.823 124.240  82.695  0.00  0.00    +0.000 A 
ATOM      9  C   UNL     1     104.596 123.076  82.698  0.00  0.00    +0.000 A 
ENDBRANCH   1   7
BRANCH   1  10
ATOM     10  C   UNL     1     102.633 126.867  82.873  0.00  0.00    +0.000 C 
BRANCH  10  11
ATOM     11  C   UNL     1     101.190 127.172  83.305  0.00  0.00    +0.000 C 
ATOM     12  C   UNL     1     100.926 128.668  83.514  0.00  0.00    +0.000 C 
ATOM     13  C   UNL     1      99.448 128.929  83.791  0.00  0.00    +0.000 C 
ATOM     14  C   UNL     1      98.574 128.267  82.733  0.00  0.00    +0.000 C 
ATOM     15  C   UNL     1      98.953 126.804  82.568  0.00  0.00    +0.000 C 
ATOM     16  O   UNL     1     100.341 126.678  82.256  0.00  0.00    +0.000 OA
ENDBRANCH  10  11
ENDBRANCH   1  10
TORSDOF 3
ENDMDL
