MODEL 1
REMARK VINA RESULT:      -4.5      0.000      0.000
REMARK  Name = *****
REMARK  4 active torsions:
REMARK  status: ('A' for Active; 'I' for Inactive)
REMARK    1  A    between atoms: C_3  and  O_10
REMARK    2  A    between atoms: C_6  and  C_7
REMARK    3  A    between atoms: O_10  and  C_11
REMARK    4  A    between atoms: C_11  and  C_12
REMARK                            x       y       z     vdW  Elec       q    Type
REMARK                         _______ _______ _______ _____ _____    ______ ____
ROOT
ATOM      1  O   UNL     1      87.936  68.636  86.010  0.00  0.00    +0.000 OA
ENDROOT
BRANCH   1   4
ATOM      2  C   UNL     1      89.067  65.409  87.231  0.00  0.00    +0.000 A 
ATOM      3  C   UNL     1      88.946  66.600  86.507  0.00  0.00    +0.000 A 
ATOM      4  C   UNL     1      87.933  67.518  86.796  0.00  0.00    +0.000 A 
ATOM      5  C   UNL     1      87.034  67.237  87.823  0.00  0.00    +0.000 A 
ATOM      6  C   UNL     1      87.151  66.047  88.552  0.00  0.00    +0.000 A 
ATOM      7  C   UNL     1      88.166  65.122  88.263  0.00  0.00    +0.000 A 
BRANCH   7   8
ATOM      8  C   UNL     1      88.251  63.859  89.069  0.00  0.00    +0.000 C 
ATOM      9  O   UNL     1      87.611  62.889  88.665  0.00  0.00    +0.000 OA
ATOM     10 CL   UNL     1      89.233  63.814  90.519  0.00  0.00    +0.000 Cl
ENDBRANCH   7   8
ENDBRANCH   1   4
BRANCH   1  11
ATOM     11  C   UNL     1      88.279  69.874  86.637  0.00  0.00    +0.000 C 
BRANCH  11  12
ATOM     12  C   UNL     1      87.051  70.731  86.889  0.00  0.00    +0.000 A 
ATOM     13  C   UNL     1      86.631  71.007  88.204  0.00  0.00    +0.000 A 
ATOM     14  C   UNL     1      85.504  71.795  88.450  0.00  0.00    +0.000 A 
ATOM     15  C   UNL     1      84.792  72.316  87.380  0.00  0.00    +0.000 A 
ATOM     16  C   UNL     1      85.181  72.065  86.071  0.00  0.00    +0.000 A 
ATOM     17  C   UNL     1      86.307  71.276  85.825  0.00  0.00    +0.000 A 
ATOM     18  F   UNL     1      83.712  73.073  87.612  0.00  0.00    +0.000 F 
ATOM     19 CL   UNL     1      87.486  70.389  89.575  0.00  0.00    +0.000 Cl
ENDBRANCH  11  12
ENDBRANCH   1  11
TORSDOF 4
ENDMDL
