MODEL 1
REMARK VINA RESULT:      -5.0      0.000      0.000
REMARK  Name = *****
REMARK  2 active torsions:
REMARK  status: ('A' for Active; 'I' for Inactive)
REMARK    1  A    between atoms: C_3  and  C_11
REMARK    2  A    between atoms: C_4  and  C_5
REMARK                            x       y       z     vdW  Elec       q    Type
REMARK                         _______ _______ _______ _____ _____    ______ ____
ROOT
ATOM      1  C   UNL     1     104.496 128.774  81.732  0.00  0.00    +0.000 C 
ATOM      2  C   UNL     1     103.720 127.711  81.688  0.00  0.00    +0.000 C 
ATOM      3  C   UNL     1     102.829 126.891  82.415  0.00  0.00    +0.000 C 
ATOM      4  C   UNL     1     103.240 126.654  80.884  0.00  0.00    +0.000 C 
ENDROOT
BRANCH   4   5
ATOM      5  C   UNL     1     104.154 125.500  80.559  0.00  0.00    +0.000 A 
ATOM      6  C   UNL     1     103.962 124.236  81.143  0.00  0.00    +0.000 A 
ATOM      7  C   UNL     1     104.789 123.153  80.833  0.00  0.00    +0.000 A 
ATOM      8  C   UNL     1     105.828 123.311  79.921  0.00  0.00    +0.000 A 
ATOM      9  C   UNL     1     106.036 124.549  79.319  0.00  0.00    +0.000 A 
ATOM     10  C   UNL     1     105.204 125.627  79.633  0.00  0.00    +0.000 A 
ENDBRANCH   4   5
BRANCH   3  11
ATOM     11  C   UNL     1     101.441 127.398  82.715  0.00  0.00    +0.000 A 
ATOM     12  C   UNL     1     100.304 126.649  82.365  0.00  0.00    +0.000 A 
ATOM     13  C   UNL     1      99.013 127.098  82.659  0.00  0.00    +0.000 A 
ATOM     14  C   UNL     1      98.832 128.309  83.319  0.00  0.00    +0.000 A 
ATOM     15  C   UNL     1      99.938 129.066  83.688  0.00  0.00    +0.000 A 
ATOM     16  C   UNL     1     101.226 128.612  83.392  0.00  0.00    +0.000 A 
ENDBRANCH   3  11
TORSDOF 2
ENDMDL
