MODEL 1
REMARK VINA RESULT:      -3.5      0.000      0.000
REMARK  Name = *****
REMARK  5 active torsions:
REMARK  status: ('A' for Active; 'I' for Inactive)
REMARK    1  A    between atoms: C_4  and  C_7
REMARK    2  A    between atoms: C_7  and  O_8
REMARK    3  A    between atoms: O_8  and  C_9
REMARK    4  A    between atoms: C_9  and  S_10
REMARK    5  A    between atoms: S_10  and  C_11
REMARK                            x       y       z     vdW  Elec       q    Type
REMARK                         _______ _______ _______ _____ _____    ______ ____
ROOT
ATOM      1  O   UNL     1      87.078  63.246  86.556  0.00  0.00    +0.000 OA
ENDROOT
BRANCH   1   2
ATOM      2  C   UNL     1      85.660  63.093  86.605  0.00  0.00    +0.000 C 
BRANCH   2   6
ATOM      3  C   UNL     1      84.447  61.516  90.436  0.00  0.00    +0.000 A 
ATOM      4  C   UNL     1      83.588  62.349  89.723  0.00  0.00    +0.000 A 
ATOM      5  C   UNL     1      83.982  62.869  88.489  0.00  0.00    +0.000 A 
ATOM      6  C   UNL     1      85.246  62.570  87.959  0.00  0.00    +0.000 A 
ATOM      7  C   UNL     1      86.096  61.720  88.681  0.00  0.00    +0.000 A 
ATOM      8  C   UNL     1      85.700  61.200  89.914  0.00  0.00    +0.000 A 
ENDBRANCH   2   6
ENDBRANCH   1   2
BRANCH   1   9
ATOM      9  C   UNL     1      87.473  64.521  86.053  0.00  0.00    +0.000 C 
BRANCH   9  10
ATOM     10  S   UNL     1      88.743  65.311  87.090  0.00  0.00    +0.000 S 
BRANCH  10  11
ATOM     11  C   UNL     1      88.034  65.008  88.697  0.00  0.00    +0.000 A 
ATOM     12  C   UNL     1      86.829  65.630  89.042  0.00  0.00    +0.000 A 
ATOM     13  C   UNL     1      86.254  65.406  90.293  0.00  0.00    +0.000 A 
ATOM     14  C   UNL     1      86.873  64.552  91.204  0.00  0.00    +0.000 A 
ATOM     15  C   UNL     1      88.066  63.917  90.860  0.00  0.00    +0.000 A 
ATOM     16  C   UNL     1      88.643  64.141  89.608  0.00  0.00    +0.000 A 
ENDBRANCH  10  11
ENDBRANCH   9  10
ENDBRANCH   1   9
TORSDOF 5
ENDMDL
