MODEL 1
REMARK VINA RESULT:      -4.3      0.000      0.000
REMARK  Name = *****
REMARK  3 active torsions:
REMARK  status: ('A' for Active; 'I' for Inactive)
REMARK    1  A    between atoms: C_1  and  C_2
REMARK    2  A    between atoms: C_5  and  S_8
REMARK    3  A    between atoms: S_8  and  C_10
REMARK                            x       y       z     vdW  Elec       q    Type
REMARK                         _______ _______ _______ _____ _____    ______ ____
ROOT
ATOM      1  S   UNL     1      87.569  66.521  86.399  0.00  0.00    +0.000 S 
ATOM      2  O   UNL     1      88.408  66.700  85.167  0.00  0.00    +0.000 OA
ENDROOT
BRANCH   1   7
ATOM      3  C   UNL     1      88.445  71.576  89.740  0.00  0.00    +0.000 C 
ATOM      4  C   UNL     1      88.217  70.354  88.901  0.00  0.00    +0.000 A 
ATOM      5  C   UNL     1      87.159  69.483  89.188  0.00  0.00    +0.000 A 
ATOM      6  C   UNL     1      86.965  68.328  88.425  0.00  0.00    +0.000 A 
ATOM      7  C   UNL     1      87.836  68.024  87.374  0.00  0.00    +0.000 A 
ATOM      8  C   UNL     1      88.898  68.888  87.091  0.00  0.00    +0.000 A 
ATOM      9  C   UNL     1      89.091  70.041  87.855  0.00  0.00    +0.000 A 
ENDBRANCH   1   7
BRANCH   1  10
ATOM     10  C   UNL     1      88.506  65.380  87.408  0.00  0.00    +0.000 C 
ATOM     11  C   UNL     1      87.947  64.660  88.400  0.00  0.00    +0.000 C 
ATOM     12  C   UNL     1      86.498  64.682  88.833  0.00  0.00    +0.000 C 
ATOM     13  C   UNL     1      86.385  65.003  90.324  0.00  0.00    +0.000 C 
ATOM     14  C   UNL     1      87.229  64.056  91.176  0.00  0.00    +0.000 C 
ATOM     15  C   UNL     1      88.686  64.031  90.711  0.00  0.00    +0.000 C 
ATOM     16  C   UNL     1      88.797  63.712  89.220  0.00  0.00    +0.000 C 
ENDBRANCH   1  10
TORSDOF 2
ENDMDL
