MODEL 1
REMARK VINA RESULT:      -5.3      0.000      0.000
REMARK  Name = *****
REMARK  1 active torsions:
REMARK  status: ('A' for Active; 'I' for Inactive)
REMARK    1  A    between atoms: C_4  and  C_7
REMARK                            x       y       z     vdW  Elec       q    Type
REMARK                         _______ _______ _______ _____ _____    ______ ____
ROOT
ATOM      1  C   UNL     1     102.142 125.966  82.709  0.00  0.00    +0.000 A 
ATOM      2  C   UNL     1     102.784 125.721  81.502  0.00  0.00    +0.000 A 
ATOM      3  C   UNL     1     103.772 124.729  81.425  0.00  0.00    +0.000 A 
ATOM      4  C   UNL     1     104.445 124.447  80.222  0.00  0.00    +0.000 A 
ATOM      5  C   UNL     1     105.421 123.451  80.175  0.00  0.00    +0.000 A 
ATOM      6  C   UNL     1     105.732 122.737  81.327  0.00  0.00    +0.000 A 
ATOM      7  C   UNL     1     105.064 123.023  82.521  0.00  0.00    +0.000 A 
ATOM      8  C   UNL     1     104.086 124.010  82.589  0.00  0.00    +0.000 A 
ATOM      9  N   UNL     1     103.456 124.277  83.741  0.00  0.00    +0.000 NA
ATOM     10  N   UNL     1     102.484 125.254  83.804  0.00  0.00    +0.000 NA
ENDROOT
BRANCH   1  14
ATOM     11  C   UNL     1      99.036 128.907  83.212  0.00  0.00    +0.000 A 
ATOM     12  C   UNL     1     100.327 129.178  83.656  0.00  0.00    +0.000 A 
ATOM     13  C   UNL     1     101.339 128.226  83.494  0.00  0.00    +0.000 A 
ATOM     14  C   UNL     1     101.087 126.981  82.887  0.00  0.00    +0.000 A 
ATOM     15  C   UNL     1      99.773 126.738  82.441  0.00  0.00    +0.000 A 
ATOM     16  C   UNL     1      98.759 127.687  82.603  0.00  0.00    +0.000 A 
ENDBRANCH   1  14
TORSDOF 1
ENDMDL
