MODEL 1
REMARK VINA RESULT:      -4.5      0.000      0.000
REMARK  Name = *****
REMARK  5 active torsions:
REMARK  status: ('A' for Active; 'I' for Inactive)
REMARK    1  A    between atoms: C_1  and  O_2
REMARK    2  A    between atoms: O_2  and  C_3
REMARK    3  A    between atoms: C_8  and  C_9
REMARK    4  A    between atoms: C_9  and  C_10
REMARK    5  A    between atoms: C_10  and  C_11
REMARK                            x       y       z     vdW  Elec       q    Type
REMARK                         _______ _______ _______ _____ _____    ______ ____
ROOT
ATOM      1  C   UNL     1     102.672 127.464  83.020  0.00  0.00    +0.000 C 
ENDROOT
BRANCH   1   7
ATOM      2  C   UNL     1     100.605 128.838  83.599  0.00  0.00    +0.000 A 
ATOM      3  C   UNL     1      99.216 129.005  83.569  0.00  0.00    +0.000 A 
ATOM      4  C   UNL     1      98.398 128.036  82.984  0.00  0.00    +0.000 A 
ATOM      5  C   UNL     1      98.958 126.894  82.422  0.00  0.00    +0.000 A 
ATOM      6  C   UNL     1     100.340 126.717  82.443  0.00  0.00    +0.000 A 
ATOM      7  C   UNL     1     101.174 127.681  83.034  0.00  0.00    +0.000 A 
BRANCH   2   9
ATOM      8  C   UNL     1     100.949 130.937  84.678  0.00  0.00    +0.000 C 
ATOM      9  O   UNL     1     101.488 129.737  84.138  0.00  0.00    +0.000 OA
ENDBRANCH   2   9
ENDBRANCH   1   7
BRANCH   1  10
ATOM     10  C   UNL     1     103.230 127.477  81.594  0.00  0.00    +0.000 C 
BRANCH  10  11
ATOM     11  C   UNL     1     103.797 126.133  81.205  0.00  0.00    +0.000 A 
ATOM     12  C   UNL     1     103.644 125.025  82.054  0.00  0.00    +0.000 A 
ATOM     13  C   UNL     1     104.185 123.789  81.701  0.00  0.00    +0.000 A 
ATOM     14  C   UNL     1     104.880 123.660  80.505  0.00  0.00    +0.000 A 
ATOM     15  C   UNL     1     105.046 124.746  79.653  0.00  0.00    +0.000 A 
ATOM     16  C   UNL     1     104.508 125.984  80.004  0.00  0.00    +0.000 A 
ATOM     17  F   UNL     1     105.399 122.472  80.168  0.00  0.00    +0.000 F 
ENDBRANCH  10  11
ENDBRANCH   1  10
TORSDOF 4
ENDMDL
