MODEL 1
REMARK VINA RESULT:      -4.8      0.000      0.000
REMARK  Name = *****
REMARK  4 active torsions:
REMARK  status: ('A' for Active; 'I' for Inactive)
REMARK    1  A    between atoms: C_1  and  C_2
REMARK    2  A    between atoms: C_4  and  S_8
REMARK    3  A    between atoms: S_8  and  C_9
REMARK    4  A    between atoms: C_10  and  C_11
REMARK                            x       y       z     vdW  Elec       q    Type
REMARK                         _______ _______ _______ _____ _____    ______ ____
ROOT
ATOM      1  S   UNL     1     101.301 126.537  83.419  0.00  0.00    +0.000 S 
ENDROOT
BRANCH   1   5
ATOM      2  C   UNL     1     104.680 123.639  80.576  0.00  0.00    +0.000 C 
ATOM      3  C   UNL     1     104.068 124.980  80.859  0.00  0.00    +0.000 A 
ATOM      4  C   UNL     1     103.110 125.122  81.874  0.00  0.00    +0.000 A 
ATOM      5  C   UNL     1     102.513 126.363  82.124  0.00  0.00    +0.000 A 
ATOM      6  C   UNL     1     102.858 127.463  81.336  0.00  0.00    +0.000 A 
ATOM      7  C   UNL     1     103.797 127.328  80.313  0.00  0.00    +0.000 A 
ATOM      8  C   UNL     1     104.397 126.090  80.074  0.00  0.00    +0.000 A 
ENDBRANCH   1   5
BRANCH   1   9
ATOM      9  C   UNL     1      99.870 126.653  82.449  0.00  0.00    +0.000 C 
ATOM     10  C   UNL     1      98.896 127.560  82.622  0.00  0.00    +0.000 C 
BRANCH  10  11
ATOM     11  C   UNL     1      98.842 128.635  83.619  0.00  0.00    +0.000 A 
ATOM     12  C   UNL     1      98.289 128.424  84.888  0.00  0.00    +0.000 A 
ATOM     13  C   UNL     1      98.274 129.454  85.831  0.00  0.00    +0.000 A 
ATOM     14  C   UNL     1      98.817 130.699  85.514  0.00  0.00    +0.000 A 
ATOM     15  C   UNL     1      99.377 130.913  84.255  0.00  0.00    +0.000 A 
ATOM     16  C   UNL     1      99.393 129.884  83.312  0.00  0.00    +0.000 A 
ENDBRANCH  10  11
ENDBRANCH   1   9
TORSDOF 3
ENDMDL
