MODEL 1
REMARK VINA RESULT:      -4.5      0.000      0.000
REMARK  Name = *****
REMARK  2 active torsions:
REMARK  status: ('A' for Active; 'I' for Inactive)
REMARK    1  A    between atoms: C_6  and  C_10
REMARK    2  A    between atoms: C_11  and  C_12
REMARK                            x       y       z     vdW  Elec       q    Type
REMARK                         _______ _______ _______ _____ _____    ______ ____
ROOT
ATOM      1  C   UNL     1     104.343 123.747  83.981  0.00  0.00    +0.000 C 
ATOM      2  C   UNL     1     104.279 122.269  84.343  0.00  0.00    +0.000 C 
ATOM      3  S   UNL     1     105.230 121.409  83.054  0.00  0.00    +0.000 S 
ATOM      4  C   UNL     1     105.433 122.877  82.002  0.00  0.00    +0.000 C 
ATOM      5  C   UNL     1     104.311 123.816  82.450  0.00  0.00    +0.000 C 
ATOM      6  C   UNL     1     104.518 125.220  81.866  0.00  0.00    +0.000 C 
ATOM      7  S   UNL     1     104.411 125.155  80.034  0.00  0.00    +0.000 S 
ATOM      8  C   UNL     1     105.619 123.836  79.692  0.00  0.00    +0.000 C 
ATOM      9  C   UNL     1     105.376 122.573  80.513  0.00  0.00    +0.000 C 
ENDROOT
BRANCH   6  10
ATOM     10  C   UNL     1     103.470 126.193  82.342  0.00  0.00    +0.000 C 
ATOM     11  C   UNL     1     102.150 126.016  82.157  0.00  0.00    +0.000 C 
BRANCH  11  12
ATOM     12  C   UNL     1     101.117 126.957  82.611  0.00  0.00    +0.000 A 
ATOM     13  C   UNL     1     101.427 128.150  83.278  0.00  0.00    +0.000 A 
ATOM     14  C   UNL     1     100.416 129.035  83.661  0.00  0.00    +0.000 A 
ATOM     15  C   UNL     1      99.085 128.742  83.372  0.00  0.00    +0.000 A 
ATOM     16  C   UNL     1      98.765 127.567  82.696  0.00  0.00    +0.000 A 
ATOM     17  C   UNL     1      99.776 126.683  82.312  0.00  0.00    +0.000 A 
ENDBRANCH  11  12
ENDBRANCH   6  10
TORSDOF 2
ENDMDL
