MODEL 1
REMARK VINA RESULT:      -4.7      0.000      0.000
REMARK  Name = *****
REMARK  4 active torsions:
REMARK  status: ('A' for Active; 'I' for Inactive)
REMARK    1  A    between atoms: C_1  and  C_2
REMARK    2  A    between atoms: C_4  and  O_8
REMARK    3  A    between atoms: O_8  and  C_9
REMARK    4  A    between atoms: C_9  and  C_11
REMARK                            x       y       z     vdW  Elec       q    Type
REMARK                         _______ _______ _______ _____ _____    ______ ____
ROOT
ATOM      1  O   UNL     1     103.330 126.451  81.961  0.00  0.00    +0.000 OA
ENDROOT
BRANCH   1   5
ATOM      2  C   UNL     1      98.423 126.712  82.628  0.00  0.00    +0.000 C 
ATOM      3  C   UNL     1      99.806 127.260  82.810  0.00  0.00    +0.000 A 
ATOM      4  C   UNL     1     100.909 126.593  82.262  0.00  0.00    +0.000 A 
ATOM      5  C   UNL     1     102.192 127.109  82.448  0.00  0.00    +0.000 A 
ATOM      6  C   UNL     1     102.403 128.252  83.217  0.00  0.00    +0.000 A 
ATOM      7  C   UNL     1     101.309 128.908  83.779  0.00  0.00    +0.000 A 
ATOM      8  C   UNL     1     100.017 128.413  83.578  0.00  0.00    +0.000 A 
ENDBRANCH   1   5
BRANCH   1   9
ATOM      9  C   UNL     1     103.598 126.569  80.597  0.00  0.00    +0.000 C 
ATOM     10  O   UNL     1     103.456 127.571  79.910  0.00  0.00    +0.000 OA
BRANCH   9  11
ATOM     11  C   UNL     1     104.142 125.241  80.097  0.00  0.00    +0.000 C 
ATOM     12  C   UNL     1     104.125 124.218  81.235  0.00  0.00    +0.000 C 
ATOM     13  C   UNL     1     104.730 122.885  80.802  0.00  0.00    +0.000 C 
ATOM     14  C   UNL     1     106.131 123.059  80.222  0.00  0.00    +0.000 C 
ATOM     15  C   UNL     1     106.146 124.077  79.085  0.00  0.00    +0.000 C 
ATOM     16  C   UNL     1     105.553 125.414  79.524  0.00  0.00    +0.000 C 
ENDBRANCH   9  11
ENDBRANCH   1   9
TORSDOF 3
ENDMDL
