REMARK  Name = *****
REMARK  2 active torsions:
REMARK  status: ('A' for Active; 'I' for Inactive)
REMARK    1  A    between atoms: C_3  and  C_8
REMARK    2  A    between atoms: C_9  and  C_10
REMARK                            x       y       z     vdW  Elec       q    Type
REMARK                         _______ _______ _______ _____ _____    ______ ____
ROOT
ATOM      1  C   UNL     1       1.576  -1.080   0.675  0.00  0.00    +0.000 A 
ATOM      2  C   UNL     1       2.251   0.142   0.614  0.00  0.00    +0.000 A 
ATOM      3  C   UNL     1       1.677   1.246  -0.031  0.00  0.00    +0.000 A 
ATOM      4  C   UNL     1       0.424   1.098  -0.641  0.00  0.00    +0.000 A 
ATOM      5  C   UNL     1      -0.246  -0.124  -0.577  0.00  0.00    +0.000 A 
ATOM      6  C   UNL     1       0.322  -1.213   0.080  0.00  0.00    +0.000 A 
ATOM      7 CL   UNL     1      -1.788  -0.291  -1.324  0.00  0.00    +0.000 Cl
ENDROOT
BRANCH   3   8
ATOM      8  C   UNL     1       2.436   2.503  -0.096  0.00  0.00    +0.000 C 
ATOM      9  C   UNL     1       1.881   3.719   0.044  0.00  0.00    +0.000 C 
BRANCH   9  10
ATOM     10  C   UNL     1       2.573   4.966  -0.004  0.00  0.00    +0.000 A 
ATOM     11  C   UNL     1       3.918   5.177  -0.217  0.00  0.00    +0.000 A 
ATOM     12  O   UNL     1       4.203   6.506  -0.194  0.00  0.00    +0.000 OA
ATOM     13  C   UNL     1       3.033   7.155   0.034  0.00  0.00    +0.000 A 
ATOM     14  C   UNL     1       2.000   6.255   0.158  0.00  0.00    +0.000 A 
ENDBRANCH   9  10
ENDBRANCH   3   8
TORSDOF 2
