MODEL 1
REMARK VINA RESULT:      -4.5      0.000      0.000
REMARK  Name = *****
REMARK  3 active torsions:
REMARK  status: ('A' for Active; 'I' for Inactive)
REMARK    1  A    between atoms: C_1  and  C_2
REMARK    2  A    between atoms: C_5  and  S_8
REMARK    3  A    between atoms: S_8  and  C_9
REMARK                            x       y       z     vdW  Elec       q    Type
REMARK                         _______ _______ _______ _____ _____    ______ ____
ROOT
ATOM      1  C   UNL     1      89.241  68.596  86.871  0.00  0.00    +0.000 A 
ATOM      2  N   UNL     1      90.137  67.801  86.313  0.00  0.00    +0.000 NA
ATOM      3  C   UNL     1      89.587  66.551  86.421  0.00  0.00    +0.000 A 
ATOM      4  C   UNL     1      90.062  65.296  86.020  0.00  0.00    +0.000 A 
ATOM      5  C   UNL     1      89.262  64.173  86.280  0.00  0.00    +0.000 A 
ATOM      6  C   UNL     1      88.023  64.300  86.922  0.00  0.00    +0.000 A 
ATOM      7  C   UNL     1      87.535  65.549  87.326  0.00  0.00    +0.000 A 
ATOM      8  C   UNL     1      88.359  66.633  87.050  0.00  0.00    +0.000 A 
ATOM      9  O   UNL     1      88.125  67.944  87.337  0.00  0.00    +0.000 OA
ENDROOT
BRANCH   1  10
ATOM     10  S   UNL     1      89.496  70.319  87.002  0.00  0.00    +0.000 S 
BRANCH  10  15
ATOM     11  C   UNL     1      83.792  72.469  87.032  0.00  0.00    +0.000 C 
ATOM     12  C   UNL     1      85.186  71.911  87.041  0.00  0.00    +0.000 A 
ATOM     13  C   UNL     1      85.839  71.624  88.244  0.00  0.00    +0.000 A 
ATOM     14  C   UNL     1      87.144  71.126  88.240  0.00  0.00    +0.000 A 
ATOM     15  C   UNL     1      87.813  70.897  87.032  0.00  0.00    +0.000 A 
ATOM     16  C   UNL     1      87.164  71.195  85.830  0.00  0.00    +0.000 A 
ATOM     17  C   UNL     1      85.860  71.697  85.833  0.00  0.00    +0.000 A 
ENDBRANCH  10  15
ENDBRANCH   1  10
TORSDOF 2
ENDMDL
