REMARK  Name = *****
REMARK  4 active torsions:
REMARK  status: ('A' for Active; 'I' for Inactive)
REMARK    1  A    between atoms: C_1  and  C_2
REMARK    2  A    between atoms: C_5  and  S_8
REMARK    3  A    between atoms: S_8  and  C_9
REMARK    4  A    between atoms: C_9  and  C_11
REMARK                            x       y       z     vdW  Elec       q    Type
REMARK                         _______ _______ _______ _____ _____    ______ ____
ROOT
ATOM      1  S   UNL     1      -3.391   1.842   0.467  0.00  0.00    +0.000 S 
ENDROOT
BRANCH   1   6
ATOM      2  C   UNL     1       2.069  -0.757  -0.292  0.00  0.00    +0.000 C 
ATOM      3  C   UNL     1       0.721  -0.115  -0.140  0.00  0.00    +0.000 A 
ATOM      4  C   UNL     1       0.616   1.232   0.223  0.00  0.00    +0.000 A 
ATOM      5  C   UNL     1      -0.638   1.822   0.399  0.00  0.00    +0.000 A 
ATOM      6  C   UNL     1      -1.804   1.074   0.215  0.00  0.00    +0.000 A 
ATOM      7  C   UNL     1      -1.702  -0.278  -0.123  0.00  0.00    +0.000 A 
ATOM      8  C   UNL     1      -0.447  -0.869  -0.298  0.00  0.00    +0.000 A 
ENDBRANCH   1   6
BRANCH   1   9
ATOM      9  C   UNL     1      -4.032   1.916  -1.174  0.00  0.00    +0.000 C 
ATOM     10  S   UNL     1      -3.268   2.689  -2.452  0.00  0.00    +0.000 S 
BRANCH   9  11
ATOM     11  C   UNL     1      -5.377   1.390  -1.351  0.00  0.00    +0.000 A 
ATOM     12  C   UNL     1      -6.456   1.966  -2.005  0.00  0.00    +0.000 A 
ATOM     13  C   UNL     1      -7.622   1.146  -1.986  0.00  0.00    +0.000 A 
ATOM     14  C   UNL     1      -7.401  -0.043  -1.331  0.00  0.00    +0.000 A 
ATOM     15  S   UNL     1      -5.801  -0.168  -0.750  0.00  0.00    +0.000 S 
ENDBRANCH   9  11
ENDBRANCH   1   9
TORSDOF 3
