MODEL 1
REMARK VINA RESULT:      -4.6      0.000      0.000
REMARK  Name = *****
REMARK  4 active torsions:
REMARK  status: ('A' for Active; 'I' for Inactive)
REMARK    1  A    between atoms: C_1  and  C_2
REMARK    2  A    between atoms: C_2  and  C_3
REMARK    3  A    between atoms: C_2  and  S_9
REMARK    4  A    between atoms: S_9  and  C_11
REMARK                            x       y       z     vdW  Elec       q    Type
REMARK                         _______ _______ _______ _____ _____    ______ ____
ROOT
ATOM      1  C   UNL     1     103.933 127.820  80.876  0.00  0.00    +0.000 C 
ATOM      2  C   UNL     1     103.173 126.495  80.987  0.00  0.00    +0.000 C 
ENDROOT
BRANCH   2   3
ATOM      3  C   UNL     1     103.906 125.290  80.341  0.00  0.00    +0.000 C 
ATOM      4  C   UNL     1     104.140 124.106  81.299  0.00  0.00    +0.000 C 
ATOM      5  C   UNL     1     104.830 122.941  80.589  0.00  0.00    +0.000 C 
ATOM      6  C   UNL     1     106.140 123.375  79.938  0.00  0.00    +0.000 C 
ATOM      7  C   UNL     1     105.937 124.561  79.002  0.00  0.00    +0.000 C 
ATOM      8  C   UNL     1     105.244 125.724  79.711  0.00  0.00    +0.000 C 
ENDBRANCH   2   3
BRANCH   2   9
ATOM      9  S   UNL     1     102.812 126.180  82.781  0.00  0.00    +0.000 S 
ATOM     10  O   UNL     1     103.827 126.953  83.573  0.00  0.00    +0.000 OA
BRANCH   9  11
ATOM     11  C   UNL     1     101.288 127.142  82.913  0.00  0.00    +0.000 A 
ATOM     12  C   UNL     1     101.321 128.406  83.515  0.00  0.00    +0.000 A 
ATOM     13  C   UNL     1     100.152 129.161  83.626  0.00  0.00    +0.000 A 
ATOM     14  C   UNL     1      98.949 128.661  83.126  0.00  0.00    +0.000 A 
ATOM     15  C   UNL     1      98.914 127.410  82.511  0.00  0.00    +0.000 A 
ATOM     16  C   UNL     1     100.081 126.654  82.401  0.00  0.00    +0.000 A 
ENDBRANCH   9  11
ENDBRANCH   2   9
TORSDOF 3
ENDMDL
