MODEL 1
REMARK VINA RESULT:      -4.3      0.000      0.000
REMARK  Name = *****
REMARK  3 active torsions:
REMARK  status: ('A' for Active; 'I' for Inactive)
REMARK    1  A    between atoms: C_6  and  C_7
REMARK    2  A    between atoms: C_7  and  S_8
REMARK    3  A    between atoms: S_8  and  C_9
REMARK                            x       y       z     vdW  Elec       q    Type
REMARK                         _______ _______ _______ _____ _____    ______ ____
ROOT
ATOM      1  C   UNL     1     102.764 127.687  82.898  0.00  0.00    +0.000 C 
ENDROOT
BRANCH   1   7
ATOM      2  C   UNL     1     100.552 128.739  83.537  0.00  0.00    +0.000 A 
ATOM      3  C   UNL     1      99.157 128.732  83.569  0.00  0.00    +0.000 A 
ATOM      4  C   UNL     1      98.463 127.668  83.005  0.00  0.00    +0.000 A 
ATOM      5  C   UNL     1      99.137 126.611  82.407  0.00  0.00    +0.000 A 
ATOM      6  C   UNL     1     100.533 126.615  82.373  0.00  0.00    +0.000 A 
ATOM      7  C   UNL     1     101.255 127.676  82.945  0.00  0.00    +0.000 A 
ATOM      8  F   UNL     1      97.123 127.663  83.037  0.00  0.00    +0.000 F 
ENDBRANCH   1   7
BRANCH   1   9
ATOM      9  S   UNL     1     103.373 127.281  81.229  0.00  0.00    +0.000 S 
BRANCH   9  10
ATOM     10  C   UNL     1     103.888 125.573  81.368  0.00  0.00    +0.000 A 
ATOM     11  C   UNL     1     104.289 124.762  80.299  0.00  0.00    +0.000 A 
ATOM     12  C   UNL     1     104.671 123.434  80.518  0.00  0.00    +0.000 A 
ATOM     13  C   UNL     1     104.652 122.913  81.805  0.00  0.00    +0.000 A 
ATOM     14  C   UNL     1     104.257 123.695  82.880  0.00  0.00    +0.000 A 
ATOM     15  C   UNL     1     103.875 125.021  82.660  0.00  0.00    +0.000 A 
ATOM     16  F   UNL     1     105.019 121.642  82.010  0.00  0.00    +0.000 F 
ENDBRANCH   9  10
ENDBRANCH   1   9
TORSDOF 3
ENDMDL
