MODEL 1
REMARK VINA RESULT:      -4.2      0.000      0.000
REMARK  Name = *****
REMARK  4 active torsions:
REMARK  status: ('A' for Active; 'I' for Inactive)
REMARK    1  A    between atoms: C_1  and  C_2
REMARK    2  A    between atoms: C_5  and  O_8
REMARK    3  A    between atoms: O_8  and  C_9
REMARK    4  A    between atoms: C_9  and  C_11
REMARK                            x       y       z     vdW  Elec       q    Type
REMARK                         _______ _______ _______ _____ _____    ______ ____
ROOT
ATOM      1  O   UNL     1      88.516  69.158  87.739  0.00  0.00    +0.000 OA
ENDROOT
BRANCH   1   6
ATOM      2  C   UNL     1      88.432  64.503  88.769  0.00  0.00    +0.000 C 
ATOM      3  C   UNL     1      88.061  65.037  87.384  0.00  0.00    +0.000 C 
ATOM      4  C   UNL     1      86.755  65.853  87.423  0.00  0.00    +0.000 C 
ATOM      5  C   UNL     1      86.985  67.281  87.912  0.00  0.00    +0.000 C 
ATOM      6  C   UNL     1      87.991  68.027  87.024  0.00  0.00    +0.000 C 
ATOM      7  C   UNL     1      89.170  67.168  86.650  0.00  0.00    +0.000 C 
ATOM      8  C   UNL     1      89.209  65.837  86.820  0.00  0.00    +0.000 C 
ENDBRANCH   1   6
BRANCH   1   9
ATOM      9  C   UNL     1      88.625  70.305  87.025  0.00  0.00    +0.000 C 
ATOM     10  O   UNL     1      89.651  70.754  86.541  0.00  0.00    +0.000 OA
BRANCH   9  11
ATOM     11  C   UNL     1      87.299  70.969  86.902  0.00  0.00    +0.000 A 
ATOM     12  C   UNL     1      86.593  71.261  88.077  0.00  0.00    +0.000 A 
ATOM     13  C   UNL     1      85.346  71.886  88.012  0.00  0.00    +0.000 A 
ATOM     14  C   UNL     1      84.798  72.223  86.775  0.00  0.00    +0.000 A 
ATOM     15  C   UNL     1      85.494  71.936  85.601  0.00  0.00    +0.000 A 
ATOM     16  C   UNL     1      86.742  71.311  85.661  0.00  0.00    +0.000 A 
ENDBRANCH   9  11
ENDBRANCH   1   9
TORSDOF 3
ENDMDL
