REMARK  Name = *****
REMARK  4 active torsions:
REMARK  status: ('A' for Active; 'I' for Inactive)
REMARK    1  A    between atoms: C_1  and  C_2
REMARK    2  A    between atoms: N_4  and  C_5
REMARK    3  A    between atoms: C_8  and  C_11
REMARK    4  A    between atoms: C_12  and  C_13
REMARK                            x       y       z     vdW  Elec       q    Type
REMARK                         _______ _______ _______ _____ _____    ______ ____
ROOT
ATOM      1  C   UNL     1       4.736   0.874  -0.621  0.00  0.00    +0.000 A 
ATOM      2  C   UNL     1       5.441  -0.322  -0.497  0.00  0.00    +0.000 A 
ATOM      3  C   UNL     1       6.840  -0.338  -0.590  0.00  0.00    +0.000 A 
ATOM      4  C   UNL     1       7.557   0.841  -0.819  0.00  0.00    +0.000 A 
ATOM      5  C   UNL     1       6.849   2.042  -0.925  0.00  0.00    +0.000 A 
ATOM      6  C   UNL     1       5.452   2.057  -0.832  0.00  0.00    +0.000 A 
ENDROOT
BRANCH   1  10
ATOM      7  C   UNL     1       1.000   0.452  -0.311  0.00  0.00    +0.000 C 
ATOM      8  C   UNL     1       2.422  -0.049  -0.351  0.00  0.00    +0.000 C 
ATOM      9  O   UNL     1       2.667  -1.246  -0.254  0.00  0.00    +0.000 OA
ATOM     10  N   UNL     1       3.332   0.976  -0.537  0.00  0.00    +0.000 N 
ATOM     11  H   UNL     1       2.956   1.882  -0.621  0.00  0.00    +0.000 HD
ENDBRANCH   1  10
BRANCH   4  12
ATOM     12  C   UNL     1       9.025   0.869  -0.888  0.00  0.00    +0.000 C 
ATOM     13  C   UNL     1       9.764  -0.091  -1.468  0.00  0.00    +0.000 C 
BRANCH  13  14
ATOM     14  C   UNL     1      11.231  -0.054  -1.552  0.00  0.00    +0.000 A 
ATOM     15  C   UNL     1      12.027   0.401  -0.490  0.00  0.00    +0.000 A 
ATOM     16  C   UNL     1      13.421   0.392  -0.595  0.00  0.00    +0.000 A 
ATOM     17  C   UNL     1      14.017  -0.081  -1.757  0.00  0.00    +0.000 A 
ATOM     18  C   UNL     1      13.248  -0.551  -2.814  0.00  0.00    +0.000 A 
ATOM     19  C   UNL     1      11.855  -0.543  -2.709  0.00  0.00    +0.000 A 
ATOM     20  F   UNL     1      15.353  -0.090  -1.857  0.00  0.00    +0.000 F 
ENDBRANCH  13  14
ENDBRANCH   4  12
TORSDOF 3
