MODEL 1
REMARK VINA RESULT:      -4.9      0.000      0.000
REMARK  Name = *****
REMARK  3 active torsions:
REMARK  status: ('A' for Active; 'I' for Inactive)
REMARK    1  A    between atoms: C_6  and  C_7
REMARK    2  A    between atoms: C_7  and  C_8
REMARK    3  A    between atoms: C_8  and  C_9
REMARK                            x       y       z     vdW  Elec       q    Type
REMARK                         _______ _______ _______ _____ _____    ______ ____
ROOT
ATOM      1  C   UNL     1     102.974 127.447  83.004  0.00  0.00    +0.000 C 
ENDROOT
BRANCH   1   7
ATOM      2  C   UNL     1     100.683 126.561  82.403  0.00  0.00    +0.000 A 
ATOM      3  C   UNL     1      99.291 126.682  82.365  0.00  0.00    +0.000 A 
ATOM      4  C   UNL     1      98.685 127.814  82.899  0.00  0.00    +0.000 A 
ATOM      5  C   UNL     1      99.455 128.820  83.468  0.00  0.00    +0.000 A 
ATOM      6  C   UNL     1     100.843 128.708  83.511  0.00  0.00    +0.000 A 
ATOM      7  C   UNL     1     101.470 127.571  82.981  0.00  0.00    +0.000 A 
ATOM      8  F   UNL     1      98.870 129.913  83.979  0.00  0.00    +0.000 F 
ATOM      9  F   UNL     1      97.351 127.927  82.859  0.00  0.00    +0.000 F 
ENDBRANCH   1   7
BRANCH   1  10
ATOM     10  C   UNL     1     103.566 127.470  81.592  0.00  0.00    +0.000 C 
BRANCH  10  11
ATOM     11  C   UNL     1     104.082 126.113  81.182  0.00  0.00    +0.000 A 
ATOM     12  C   UNL     1     104.718 125.942  79.943  0.00  0.00    +0.000 A 
ATOM     13  C   UNL     1     105.175 124.683  79.564  0.00  0.00    +0.000 A 
ATOM     14  C   UNL     1     105.002 123.589  80.402  0.00  0.00    +0.000 A 
ATOM     15  C   UNL     1     104.369 123.740  81.631  0.00  0.00    +0.000 A 
ATOM     16  C   UNL     1     103.906 125.001  82.020  0.00  0.00    +0.000 A 
ATOM     17  F   UNL     1     105.442 122.379  80.034  0.00  0.00    +0.000 F 
ATOM     18  F   UNL     1     105.783 124.535  78.378  0.00  0.00    +0.000 F 
ENDBRANCH  10  11
ENDBRANCH   1  10
TORSDOF 3
ENDMDL
