MODEL 1
REMARK VINA RESULT:      -4.6      0.000      0.000
REMARK  Name = *****
REMARK  3 active torsions:
REMARK  status: ('A' for Active; 'I' for Inactive)
REMARK    1  A    between atoms: C_4  and  C_7
REMARK    2  A    between atoms: C_7  and  N_9
REMARK    3  A    between atoms: N_9  and  C_10
REMARK                            x       y       z     vdW  Elec       q    Type
REMARK                         _______ _______ _______ _____ _____    ______ ____
ROOT
ATOM      1  C   UNL     1     102.949 126.074  81.269  0.00  0.00    +0.000 C 
ATOM      2  S   UNL     1     103.593 127.317  80.347  0.00  0.00    +0.000 S 
ENDROOT
BRANCH   1   6
ATOM      3  C   UNL     1     105.224 122.488  81.798  0.00  0.00    +0.000 A 
ATOM      4  C   UNL     1     105.140 123.072  80.531  0.00  0.00    +0.000 A 
ATOM      5  C   UNL     1     104.392 124.235  80.347  0.00  0.00    +0.000 A 
ATOM      6  C   UNL     1     103.726 124.809  81.435  0.00  0.00    +0.000 A 
ATOM      7  C   UNL     1     103.813 124.227  82.706  0.00  0.00    +0.000 A 
ATOM      8  C   UNL     1     104.563 123.064  82.883  0.00  0.00    +0.000 A 
ENDBRANCH   1   6
BRANCH   1   9
ATOM      9  N   UNL     1     101.757 126.029  81.982  0.00  0.00    +0.000 N 
ATOM     10  H   UNL     1     101.417 125.115  82.123  0.00  0.00    +0.000 HD
BRANCH   9  11
ATOM     11  C   UNL     1     100.933 127.031  82.546  0.00  0.00    +0.000 A 
ATOM     12  C   UNL     1     101.375 128.141  83.263  0.00  0.00    +0.000 A 
ATOM     13  C   UNL     1     100.466 129.081  83.763  0.00  0.00    +0.000 A 
ATOM     14  C   UNL     1      99.100 128.926  83.545  0.00  0.00    +0.000 A 
ATOM     15  C   UNL     1      98.642 127.832  82.819  0.00  0.00    +0.000 A 
ATOM     16  C   UNL     1      99.553 126.896  82.320  0.00  0.00    +0.000 A 
ENDBRANCH   9  11
ENDBRANCH   1   9
TORSDOF 3
ENDMDL
