MODEL 1
REMARK VINA RESULT:      -4.3      0.000      0.000
REMARK  Name = *****
REMARK  3 active torsions:
REMARK  status: ('A' for Active; 'I' for Inactive)
REMARK    1  A    between atoms: C_4  and  C_7
REMARK    2  A    between atoms: C_7  and  O_8
REMARK    3  A    between atoms: O_8  and  C_9
REMARK                            x       y       z     vdW  Elec       q    Type
REMARK                         _______ _______ _______ _____ _____    ______ ____
ROOT
ATOM      1  O   UNL     1     102.606 126.996  82.907  0.00  0.00    +0.000 OA
ENDROOT
BRANCH   1   2
ATOM      2  C   UNL     1     101.323 127.498  82.960  0.00  0.00    +0.000 A 
ATOM      3  N   UNL     1     101.097 128.719  83.483  0.00  0.00    +0.000 NA
ATOM      4  C   UNL     1      99.815 129.142  83.500  0.00  0.00    +0.000 A 
ATOM      5  C   UNL     1      98.749 128.394  83.015  0.00  0.00    +0.000 A 
ATOM      6  C   UNL     1      99.014 127.138  82.481  0.00  0.00    +0.000 A 
ATOM      7  C   UNL     1     100.326 126.678  82.452  0.00  0.00    +0.000 A 
ATOM      8 BR   UNL     1      99.465 130.857  84.232  0.00  0.00    +0.000 Br
ENDBRANCH   1   2
BRANCH   1   9
ATOM      9  C   UNL     1     102.700 125.647  83.363  0.00  0.00    +0.000 C 
BRANCH   9  13
ATOM     10  C   UNL     1     105.020 123.403  80.497  0.00  0.00    +0.000 A 
ATOM     11  C   UNL     1     104.903 122.950  81.810  0.00  0.00    +0.000 A 
ATOM     12  C   UNL     1     104.154 123.678  82.736  0.00  0.00    +0.000 A 
ATOM     13  C   UNL     1     103.512 124.866  82.356  0.00  0.00    +0.000 A 
ATOM     14  C   UNL     1     103.639 125.313  81.034  0.00  0.00    +0.000 A 
ATOM     15  C   UNL     1     104.389 124.584  80.109  0.00  0.00    +0.000 A 
ENDBRANCH   9  13
ENDBRANCH   1   9
TORSDOF 3
ENDMDL
