MODEL 1
REMARK VINA RESULT:      -5.2      0.000      0.000
REMARK  Name = *****
REMARK  5 active torsions:
REMARK  status: ('A' for Active; 'I' for Inactive)
REMARK    1  A    between atoms: C_1  and  C_2
REMARK    2  A    between atoms: C_5  and  C_8
REMARK    3  A    between atoms: C_8  and  C_9
REMARK    4  A    between atoms: C_9  and  C_11
REMARK    5  A    between atoms: C_14  and  C_17
REMARK                            x       y       z     vdW  Elec       q    Type
REMARK                         _______ _______ _______ _____ _____    ______ ____
ROOT
ATOM      1  C   UNL     1      87.650  70.516  88.366  0.00  0.00    +0.000 C 
ATOM      2 BR   UNL     1      88.380  71.380  89.959  0.00  0.00    +0.000 Br
ENDROOT
BRANCH   1   7
ATOM      3  C   UNL     1      83.067  73.161  85.860  0.00  0.00    +0.000 C 
ATOM      4  C   UNL     1      84.268  72.519  86.489  0.00  0.00    +0.000 A 
ATOM      5  C   UNL     1      85.302  71.999  85.710  0.00  0.00    +0.000 A 
ATOM      6  C   UNL     1      86.412  71.389  86.308  0.00  0.00    +0.000 A 
ATOM      7  C   UNL     1      86.526  71.290  87.704  0.00  0.00    +0.000 A 
ATOM      8  C   UNL     1      85.466  71.803  88.476  0.00  0.00    +0.000 A 
ATOM      9  C   UNL     1      84.359  72.415  87.879  0.00  0.00    +0.000 A 
ENDBRANCH   1   7
BRANCH   1  10
ATOM     10  C   UNL     1      88.770  70.005  87.473  0.00  0.00    +0.000 C 
ATOM     11  O   UNL     1      89.637  70.798  87.088  0.00  0.00    +0.000 OA
BRANCH  10  12
ATOM     12  C   UNL     1      88.935  68.563  87.067  0.00  0.00    +0.000 A 
ATOM     13  C   UNL     1      90.002  68.057  86.318  0.00  0.00    +0.000 A 
ATOM     14  C   UNL     1      90.102  66.679  86.065  0.00  0.00    +0.000 A 
ATOM     15  C   UNL     1      89.120  65.792  86.521  0.00  0.00    +0.000 A 
ATOM     16  C   UNL     1      88.017  66.304  87.205  0.00  0.00    +0.000 A 
ATOM     17  C   UNL     1      87.931  67.671  87.480  0.00  0.00    +0.000 A 
ATOM     18  C   UNL     1      89.223  64.315  86.276  0.00  0.00    +0.000 C 
ENDBRANCH  10  12
ENDBRANCH   1  10
TORSDOF 3
ENDMDL
