MODEL 1
REMARK VINA RESULT:      -4.2      0.000      0.000
REMARK  Name = *****
REMARK  4 active torsions:
REMARK  status: ('A' for Active; 'I' for Inactive)
REMARK    1  A    between atoms: C_2  and  C_3
REMARK    2  A    between atoms: C_2  and  O_8
REMARK    3  A    between atoms: O_8  and  C_9
REMARK    4  A    between atoms: C_9  and  C_10
REMARK                            x       y       z     vdW  Elec       q    Type
REMARK                         _______ _______ _______ _____ _____    ______ ____
ROOT
ATOM      1  O   UNL     1     102.535 125.651  81.586  0.00  0.00    +0.000 OA
ENDROOT
BRANCH   1   3
ATOM      2  C   UNL     1     103.583 127.329  80.180  0.00  0.00    +0.000 C 
ATOM      3  C   UNL     1     103.490 126.093  80.700  0.00  0.00    +0.000 C 
BRANCH   3   4
ATOM      4  C   UNL     1     104.446 125.092  80.324  0.00  0.00    +0.000 A 
ATOM      5  C   UNL     1     105.422 125.126  79.337  0.00  0.00    +0.000 A 
ATOM      6  C   UNL     1     106.196 123.932  79.260  0.00  0.00    +0.000 A 
ATOM      7  C   UNL     1     105.798 123.004  80.192  0.00  0.00    +0.000 A 
ATOM      8  S   UNL     1     104.502 123.571  81.147  0.00  0.00    +0.000 S 
ENDBRANCH   3   4
ENDBRANCH   1   3
BRANCH   1   9
ATOM      9  C   UNL     1     102.448 126.285  82.861  0.00  0.00    +0.000 C 
BRANCH   9  10
ATOM     10  C   UNL     1     101.198 127.132  82.918  0.00  0.00    +0.000 A 
ATOM     11  C   UNL     1      99.979 126.644  82.423  0.00  0.00    +0.000 A 
ATOM     12  C   UNL     1      98.819 127.414  82.508  0.00  0.00    +0.000 A 
ATOM     13  C   UNL     1      98.861 128.677  83.094  0.00  0.00    +0.000 A 
ATOM     14  C   UNL     1     100.063 129.170  83.599  0.00  0.00    +0.000 A 
ATOM     15  C   UNL     1     101.225 128.400  83.515  0.00  0.00    +0.000 A 
ENDBRANCH   9  10
ENDBRANCH   1   9
TORSDOF 4
ENDMDL
