REMARK  Name = *****
REMARK  2 active torsions:
REMARK  status: ('A' for Active; 'I' for Inactive)
REMARK    1  A    between atoms: C_4  and  C_7
REMARK    2  A    between atoms: C_8  and  C_9
REMARK                            x       y       z     vdW  Elec       q    Type
REMARK                         _______ _______ _______ _____ _____    ______ ____
ROOT
ATOM      1  C   UNL     1      -1.325   2.539  -0.270  0.00  0.00    +0.000 C 
ATOM      2  C   UNL     1      -2.626   2.778  -0.505  0.00  0.00    +0.000 C 
ENDROOT
BRANCH   1   6
ATOM      3  C   UNL     1       0.316  -1.432   0.628  0.00  0.00    +0.000 C 
ATOM      4  C   UNL     1       1.117  -0.159   0.938  0.00  0.00    +0.000 C 
ATOM      5  C   UNL     1       0.386   1.129   0.675  0.00  0.00    +0.000 C 
ATOM      6  C   UNL     1      -0.753   1.213  -0.045  0.00  0.00    +0.000 C 
ATOM      7  C   UNL     1      -1.263  -0.008  -0.663  0.00  0.00    +0.000 C 
ATOM      8  C   UNL     1      -0.792  -1.226  -0.360  0.00  0.00    +0.000 C 
ENDBRANCH   1   6
BRANCH   2   9
ATOM      9  C   UNL     1      -3.188   4.120  -0.715  0.00  0.00    +0.000 A 
ATOM     10  C   UNL     1      -2.526   5.098  -1.468  0.00  0.00    +0.000 A 
ATOM     11  C   UNL     1      -3.107   6.353  -1.672  0.00  0.00    +0.000 A 
ATOM     12  C   UNL     1      -4.361   6.637  -1.135  0.00  0.00    +0.000 A 
ATOM     13  C   UNL     1      -5.037   5.667  -0.399  0.00  0.00    +0.000 A 
ATOM     14  C   UNL     1      -4.456   4.413  -0.195  0.00  0.00    +0.000 A 
ENDBRANCH   2   9
TORSDOF 2
