MODEL 1
REMARK VINA RESULT:      -3.9      0.000      0.000
REMARK  Name = *****
REMARK  4 active torsions:
REMARK  status: ('A' for Active; 'I' for Inactive)
REMARK    1  A    between atoms: C_1  and  C_2
REMARK    2  A    between atoms: C_3  and  C_7
REMARK    3  A    between atoms: C_8  and  C_9
REMARK    4  A    between atoms: C_10  and  C_14
REMARK                            x       y       z     vdW  Elec       q    Type
REMARK                         _______ _______ _______ _____ _____    ______ ____
ROOT
ATOM      1  C   UNL     1     101.855 126.414  82.190  0.00  0.00    +0.000 C 
ATOM      2  C   UNL     1     102.684 126.847  81.224  0.00  0.00    +0.000 C 
ENDROOT
BRANCH   1   5
ATOM      3  C   UNL     1     101.915 129.015  84.029  0.00  0.00    +0.000 C 
ATOM      4  C   UNL     1     100.748 128.250  83.494  0.00  0.00    +0.000 A 
ATOM      5  C   UNL     1     100.713 127.125  82.686  0.00  0.00    +0.000 A 
ATOM      6  C   UNL     1      99.374 126.752  82.348  0.00  0.00    +0.000 A 
ATOM      7  C   UNL     1      98.439 127.569  82.941  0.00  0.00    +0.000 A 
ATOM      8  S   UNL     1      99.163 128.790  83.886  0.00  0.00    +0.000 S 
ENDBRANCH   1   5
BRANCH   2   9
ATOM      9  C   UNL     1     103.841 126.154  80.728  0.00  0.00    +0.000 A 
ATOM     10  C   UNL     1     105.016 126.804  80.384  0.00  0.00    +0.000 A 
ATOM     11  S   UNL     1     106.207 125.709  79.811  0.00  0.00    +0.000 S 
ATOM     12  C   UNL     1     105.172 124.370  80.015  0.00  0.00    +0.000 A 
ATOM     13  C   UNL     1     103.941 124.742  80.508  0.00  0.00    +0.000 A 
ATOM     14  C   UNL     1     105.348 128.261  80.453  0.00  0.00    +0.000 C 
ENDBRANCH   2   9
TORSDOF 2
ENDMDL
