REMARK  Name = *****
REMARK  4 active torsions:
REMARK  status: ('A' for Active; 'I' for Inactive)
REMARK    1  A    between atoms: C_1  and  C_2
REMARK    2  A    between atoms: C_2  and  C_4
REMARK    3  A    between atoms: C_8  and  C_10
REMARK    4  A    between atoms: C_11  and  C_12
REMARK                            x       y       z     vdW  Elec       q    Type
REMARK                         _______ _______ _______ _____ _____    ______ ____
ROOT
ATOM      1  C   UNL     1       3.184   0.167   1.207  0.00  0.00    +0.000 A 
ATOM      2  C   UNL     1       2.628  -0.229   2.427  0.00  0.00    +0.000 A 
ATOM      3  C   UNL     1       3.343  -0.044   3.611  0.00  0.00    +0.000 A 
ATOM      4  C   UNL     1       4.615   0.532   3.582  0.00  0.00    +0.000 A 
ATOM      5  C   UNL     1       5.197   0.917   2.368  0.00  0.00    +0.000 A 
ATOM      6  C   UNL     1       4.464   0.743   1.186  0.00  0.00    +0.000 A 
ENDROOT
BRANCH   1   8
ATOM      7  C   UNL     1       1.117  -0.683  -0.092  0.00  0.00    +0.000 C 
ATOM      8  C   UNL     1       2.457   0.005  -0.088  0.00  0.00    +0.000 C 
ATOM      9  O   UNL     1       2.953   0.434  -1.128  0.00  0.00    +0.000 OA
ENDBRANCH   1   8
BRANCH   5  10
ATOM     10  C   UNL     1       6.521   1.555   2.292  0.00  0.00    +0.000 C 
ATOM     11  C   UNL     1       7.543   1.279   3.119  0.00  0.00    +0.000 C 
BRANCH  11  12
ATOM     12  C   UNL     1       8.871   1.907   3.029  0.00  0.00    +0.000 A 
ATOM     13  C   UNL     1       9.047   3.244   2.650  0.00  0.00    +0.000 A 
ATOM     14  C   UNL     1      10.324   3.810   2.608  0.00  0.00    +0.000 A 
ATOM     15  C   UNL     1      11.438   3.049   2.957  0.00  0.00    +0.000 A 
ATOM     16  C   UNL     1      11.275   1.724   3.353  0.00  0.00    +0.000 A 
ATOM     17  C   UNL     1       9.998   1.157   3.393  0.00  0.00    +0.000 A 
ENDBRANCH  11  12
ENDBRANCH   5  10
TORSDOF 3
