MODEL 1
REMARK VINA RESULT:      -4.3      0.000      0.000
REMARK  Name = *****
REMARK  4 active torsions:
REMARK  status: ('A' for Active; 'I' for Inactive)
REMARK    1  A    between atoms: C_4  and  C_7
REMARK    2  A    between atoms: C_7  and  O_8
REMARK    3  A    between atoms: O_8  and  C_9
REMARK    4  A    between atoms: C_9  and  C_11
REMARK                            x       y       z     vdW  Elec       q    Type
REMARK                         _______ _______ _______ _____ _____    ______ ____
ROOT
ATOM      1  C   UNL     1      98.878 127.140  82.707  0.00  0.00    +0.000 C 
ATOM      2  O   UNL     1      97.887 126.477  82.447  0.00  0.00    +0.000 OA
ENDROOT
BRANCH   1   3
ATOM      3  C   UNL     1      98.851 128.328  83.603  0.00  0.00    +0.000 A 
ATOM      4  C   UNL     1      98.360 128.269  84.913  0.00  0.00    +0.000 A 
ATOM      5  C   UNL     1      98.365 129.417  85.706  0.00  0.00    +0.000 A 
ATOM      6  C   UNL     1      98.855 130.624  85.207  0.00  0.00    +0.000 A 
ATOM      7  C   UNL     1      99.346 130.688  83.904  0.00  0.00    +0.000 A 
ATOM      8  C   UNL     1      99.345 129.543  83.104  0.00  0.00    +0.000 A 
ATOM      9 CL   UNL     1      97.762 129.344  87.316  0.00  0.00    +0.000 Cl
ENDBRANCH   1   3
BRANCH   1  10
ATOM     10  O   UNL     1     100.132 126.929  82.242  0.00  0.00    +0.000 OA
BRANCH  10  11
ATOM     11  C   UNL     1     101.091 126.401  83.175  0.00  0.00    +0.000 C 
BRANCH  11  15
ATOM     12  C   UNL     1     104.335 128.614  81.242  0.00  0.00    +0.000 C 
ATOM     13  C   UNL     1     104.110 128.832  82.734  0.00  0.00    +0.000 C 
ATOM     14  C   UNL     1     102.734 128.339  83.178  0.00  0.00    +0.000 C 
ATOM     15  C   UNL     1     102.500 126.871  82.787  0.00  0.00    +0.000 C 
ATOM     16  C   UNL     1     102.735 126.662  81.285  0.00  0.00    +0.000 C 
ATOM     17  C   UNL     1     104.112 127.157  80.851  0.00  0.00    +0.000 C 
ENDBRANCH  11  15
ENDBRANCH  10  11
ENDBRANCH   1  10
TORSDOF 4
ENDMDL
