REMARK  Name = *****
REMARK  4 active torsions:
REMARK  status: ('A' for Active; 'I' for Inactive)
REMARK    1  A    between atoms: C_1  and  O_2
REMARK    2  A    between atoms: O_2  and  C_3
REMARK    3  A    between atoms: C_6  and  C_9
REMARK    4  A    between atoms: C_10  and  C_11
REMARK                            x       y       z     vdW  Elec       q    Type
REMARK                         _______ _______ _______ _____ _____    ______ ____
ROOT
ATOM      1  C   UNL     1       3.080  -1.017  -0.550  0.00  0.00    +0.000 A 
ATOM      2  C   UNL     1       2.394  -2.089  -1.118  0.00  0.00    +0.000 A 
ATOM      3  C   UNL     1       3.096  -3.212  -1.577  0.00  0.00    +0.000 A 
ATOM      4  C   UNL     1       4.492  -3.274  -1.485  0.00  0.00    +0.000 A 
ATOM      5  C   UNL     1       5.171  -2.202  -0.898  0.00  0.00    +0.000 A 
ATOM      6  C   UNL     1       4.470  -1.082  -0.440  0.00  0.00    +0.000 A 
ENDROOT
BRANCH   1   8
ATOM      7  C   UNL     1       1.107   0.250  -0.166  0.00  0.00    +0.000 C 
ATOM      8  O   UNL     1       2.520   0.132  -0.064  0.00  0.00    +0.000 OA
ENDBRANCH   1   8
BRANCH   4   9
ATOM      9  C   UNL     1       5.259  -4.447  -1.924  0.00  0.00    +0.000 C 
ATOM     10  C   UNL     1       4.958  -5.187  -3.004  0.00  0.00    +0.000 C 
BRANCH  10  11
ATOM     11  C   UNL     1       5.763  -6.378  -3.441  0.00  0.00    +0.000 C 
ATOM     12  C   UNL     1       6.294  -6.250  -4.868  0.00  0.00    +0.000 C 
ATOM     13  C   UNL     1       6.610  -7.683  -5.289  0.00  0.00    +0.000 C 
ATOM     14  C   UNL     1       5.794  -8.590  -4.367  0.00  0.00    +0.000 C 
ATOM     15  C   UNL     1       4.936  -7.660  -3.518  0.00  0.00    +0.000 C 
ENDBRANCH  10  11
ENDBRANCH   4   9
TORSDOF 3
