MODEL 1
REMARK VINA RESULT:      -5.3      0.000      0.000
REMARK  Name = *****
REMARK  2 active torsions:
REMARK  status: ('A' for Active; 'I' for Inactive)
REMARK    1  A    between atoms: C_10  and  O_11
REMARK    2  A    between atoms: O_11  and  C_12
REMARK                            x       y       z     vdW  Elec       q    Type
REMARK                         _______ _______ _______ _____ _____    ______ ____
ROOT
ATOM      1  C   UNL     1     100.390 131.225  84.483  0.00  0.00    +0.000 A 
ATOM      2  C   UNL     1     101.645 130.663  84.687  0.00  0.00    +0.000 A 
ATOM      3  C   UNL     1     101.892 129.351  84.282  0.00  0.00    +0.000 A 
ATOM      4  C   UNL     1     100.884 128.578  83.661  0.00  0.00    +0.000 A 
ATOM      5  C   UNL     1      99.616 129.159  83.451  0.00  0.00    +0.000 A 
ATOM      6  C   UNL     1      99.381 130.480  83.868  0.00  0.00    +0.000 A 
ATOM      7  C   UNL     1      98.614 128.405  82.827  0.00  0.00    +0.000 A 
ATOM      8  C   UNL     1      98.900 127.108  82.433  0.00  0.00    +0.000 A 
ATOM      9  N   UNL     1     100.091 126.510  82.622  0.00  0.00    +0.000 NA
ATOM     10  C   UNL     1     101.050 127.246  83.239  0.00  0.00    +0.000 A 
ENDROOT
BRANCH  10  11
ATOM     11  O   UNL     1     102.301 126.670  83.432  0.00  0.00    +0.000 OA
BRANCH  11  12
ATOM     12  C   UNL     1     103.035 126.332  82.320  0.00  0.00    +0.000 A 
ATOM     13  C   UNL     1     103.518 125.023  82.250  0.00  0.00    +0.000 A 
ATOM     14  C   UNL     1     104.214 124.575  81.133  0.00  0.00    +0.000 A 
ATOM     15  C   UNL     1     104.414 125.448  80.073  0.00  0.00    +0.000 A 
ATOM     16  C   UNL     1     103.924 126.750  80.110  0.00  0.00    +0.000 A 
ATOM     17  C   UNL     1     103.222 127.193  81.233  0.00  0.00    +0.000 A 
ATOM     18  F   UNL     1     105.079 125.027  78.989  0.00  0.00    +0.000 F 
ATOM     19  F   UNL     1     103.305 124.171  83.264  0.00  0.00    +0.000 F 
ENDBRANCH  11  12
ENDBRANCH  10  11
TORSDOF 2
ENDMDL
