MODEL 1
REMARK VINA RESULT:      -4.4      0.000      0.000
REMARK  Name = *****
REMARK  3 active torsions:
REMARK  status: ('A' for Active; 'I' for Inactive)
REMARK    1  A    between atoms: C_7  and  C_8
REMARK    2  A    between atoms: C_8  and  S_9
REMARK    3  A    between atoms: S_9  and  C_10
REMARK                            x       y       z     vdW  Elec       q    Type
REMARK                         _______ _______ _______ _____ _____    ______ ____
ROOT
ATOM      1  C   UNL     1     101.586 126.269  83.214  0.00  0.00    +0.000 C 
ENDROOT
BRANCH   1   8
ATOM      2  C   UNL     1     103.798 124.273  83.061  0.00  0.00    +0.000 C 
ATOM      3  C   UNL     1     103.434 124.955  81.962  0.00  0.00    +0.000 C 
ATOM      4  C   UNL     1     104.132 124.706  80.642  0.00  0.00    +0.000 C 
ATOM      5  C   UNL     1     104.743 125.999  80.108  0.00  0.00    +0.000 C 
ATOM      6  C   UNL     1     103.704 127.113  80.018  0.00  0.00    +0.000 C 
ATOM      7  C   UNL     1     102.983 127.330  81.351  0.00  0.00    +0.000 C 
ATOM      8  C   UNL     1     102.344 126.029  81.889  0.00  0.00    +0.000 C 
ENDBRANCH   1   8
BRANCH   1   9
ATOM      9  S   UNL     1      99.915 126.982  82.958  0.00  0.00    +0.000 S 
BRANCH   9  10
ATOM     10  C   UNL     1     100.200 128.639  83.551  0.00  0.00    +0.000 A 
ATOM     11  C   UNL     1      99.243 129.646  83.391  0.00  0.00    +0.000 A 
ATOM     12  C   UNL     1      99.487 130.933  83.875  0.00  0.00    +0.000 A 
ATOM     13  C   UNL     1     100.685 131.219  84.529  0.00  0.00    +0.000 A 
ATOM     14  C   UNL     1     101.636 130.216  84.705  0.00  0.00    +0.000 A 
ATOM     15  C   UNL     1     101.393 128.929  84.221  0.00  0.00    +0.000 A 
ENDBRANCH   9  10
ENDBRANCH   1   9
TORSDOF 3
ENDMDL
