MODEL 1
REMARK VINA RESULT:      -4.7      0.000      0.000
REMARK  Name = *****
REMARK  6 active torsions:
REMARK  status: ('A' for Active; 'I' for Inactive)
REMARK    1  A    between atoms: C_1  and  C_2
REMARK    2  A    between atoms: C_4  and  C_9
REMARK    3  A    between atoms: C_5  and  C_8
REMARK    4  A    between atoms: C_9  and  C_11
REMARK    5  A    between atoms: C_11  and  C_12
REMARK    6  A    between atoms: C_12  and  C_13
REMARK                            x       y       z     vdW  Elec       q    Type
REMARK                         _______ _______ _______ _____ _____    ______ ____
ROOT
ATOM      1  C   UNL     1      89.225  69.021  86.428  0.00  0.00    +0.000 C 
ATOM      2  O   UNL     1      90.191  68.272  86.560  0.00  0.00    +0.000 OA
ENDROOT
BRANCH   1   6
ATOM      3  C   UNL     1      88.628  71.894  90.486  0.00  0.00    +0.000 C 
ATOM      4  C   UNL     1      88.141  70.790  89.595  0.00  0.00    +0.000 A 
ATOM      5  C   UNL     1      88.862  70.431  88.449  0.00  0.00    +0.000 A 
ATOM      6  C   UNL     1      88.425  69.376  87.633  0.00  0.00    +0.000 A 
ATOM      7  C   UNL     1      87.267  68.649  87.966  0.00  0.00    +0.000 A 
ATOM      8  C   UNL     1      86.568  69.000  89.130  0.00  0.00    +0.000 A 
ATOM      9  C   UNL     1      86.999  70.058  89.933  0.00  0.00    +0.000 A 
ATOM     10  C   UNL     1      86.775  67.496  87.135  0.00  0.00    +0.000 C 
ENDBRANCH   1   6
BRANCH   1  11
ATOM     11  C   UNL     1      88.799  69.612  85.088  0.00  0.00    +0.000 C 
ATOM     12 CL   UNL     1      90.020  69.116  83.871  0.00  0.00    +0.000 Cl
BRANCH  11  13
ATOM     13  C   UNL     1      88.690  71.139  85.171  0.00  0.00    +0.000 C 
BRANCH  13  14
ATOM     14  C   UNL     1      87.281  71.648  84.967  0.00  0.00    +0.000 A 
ATOM     15  C   UNL     1      86.349  71.592  86.012  0.00  0.00    +0.000 A 
ATOM     16  C   UNL     1      85.042  72.045  85.820  0.00  0.00    +0.000 A 
ATOM     17  C   UNL     1      84.655  72.555  84.582  0.00  0.00    +0.000 A 
ATOM     18  C   UNL     1      85.575  72.615  83.537  0.00  0.00    +0.000 A 
ATOM     19  C   UNL     1      86.882  72.164  83.727  0.00  0.00    +0.000 A 
ENDBRANCH  13  14
ENDBRANCH  11  13
ENDBRANCH   1  11
TORSDOF 4
ENDMDL
