MODEL 1
REMARK VINA RESULT:      -4.6      0.000      0.000
REMARK  Name = *****
REMARK  4 active torsions:
REMARK  status: ('A' for Active; 'I' for Inactive)
REMARK    1  A    between atoms: C_1  and  C_2
REMARK    2  A    between atoms: C_5  and  C_8
REMARK    3  A    between atoms: C_8  and  C_9
REMARK    4  A    between atoms: C_9  and  C_11
REMARK                            x       y       z     vdW  Elec       q    Type
REMARK                         _______ _______ _______ _____ _____    ______ ____
ROOT
ATOM      1  C   UNL     1     101.855 126.137  83.343  0.00  0.00    +0.000 C 
ENDROOT
BRANCH   1   6
ATOM      2  C   UNL     1     105.597 124.968  79.031  0.00  0.00    +0.000 C 
ATOM      3  C   UNL     1     104.610 125.257  80.122  0.00  0.00    +0.000 A 
ATOM      4  C   UNL     1     104.385 124.324  81.140  0.00  0.00    +0.000 A 
ATOM      5  C   UNL     1     103.494 124.607  82.178  0.00  0.00    +0.000 A 
ATOM      6  C   UNL     1     102.815 125.831  82.219  0.00  0.00    +0.000 A 
ATOM      7  C   UNL     1     103.061 126.776  81.215  0.00  0.00    +0.000 A 
ATOM      8  C   UNL     1     103.952 126.491  80.177  0.00  0.00    +0.000 A 
ENDBRANCH   1   6
BRANCH   1   9
ATOM      9  C   UNL     1     100.641 126.951  82.924  0.00  0.00    +0.000 C 
ATOM     10  O   UNL     1      99.757 126.522  82.184  0.00  0.00    +0.000 OA
BRANCH   9  11
ATOM     11  C   UNL     1     100.556 128.358  83.435  0.00  0.00    +0.000 C 
ATOM     12  C   UNL     1     101.668 128.896  83.967  0.00  0.00    +0.000 C 
ATOM     13  C   UNL     1     101.704 130.269  84.571  0.00  0.00    +0.000 C 
ATOM     14  C   UNL     1     100.311 130.849  84.825  0.00  0.00    +0.000 C 
ATOM     15  C   UNL     1      99.377 130.583  83.648  0.00  0.00    +0.000 C 
ATOM     16  C   UNL     1      99.242 129.083  83.367  0.00  0.00    +0.000 C 
ENDBRANCH   9  11
ENDBRANCH   1   9
TORSDOF 3
ENDMDL
