REMARK  Name = *****
REMARK  4 active torsions:
REMARK  status: ('A' for Active; 'I' for Inactive)
REMARK    1  A    between atoms: C_1  and  C_2
REMARK    2  A    between atoms: C_3  and  O_9
REMARK    3  A    between atoms: C_4  and  C_8
REMARK    4  A    between atoms: O_9  and  P_10
REMARK                            x       y       z     vdW  Elec       q    Type
REMARK                         _______ _______ _______ _____ _____    ______ ____
ROOT
ATOM      1  C   UNL     1       2.429   0.590  -0.064  0.00  0.00    +0.000 C 
ATOM      2  C   UNL     1       0.991   0.153  -0.112  0.00  0.00    +0.000 A 
ATOM      3  C   UNL     1      -0.119   1.024  -0.134  0.00  0.00    +0.000 A 
ATOM      4  C   UNL     1      -1.428   0.483  -0.070  0.00  0.00    +0.000 A 
ATOM      5  C   UNL     1      -1.618  -0.906  -0.082  0.00  0.00    +0.000 A 
ATOM      6  C   UNL     1      -0.528  -1.763  -0.119  0.00  0.00    +0.000 A 
ATOM      7  C   UNL     1       0.761  -1.238  -0.126  0.00  0.00    +0.000 A 
ATOM      8  C   UNL     1      -2.643   1.372  -0.019  0.00  0.00    +0.000 C 
ENDROOT
BRANCH   3   9
ATOM      9  O   UNL     1      -0.095   2.400  -0.177  0.00  0.00    +0.000 OA
BRANCH   9  10
ATOM     10  P   UNL     1       1.055   3.407  -0.680  0.00  0.00    +0.000 P 
ATOM     11  S   UNL     1       0.080   5.231  -0.330  0.00  0.00    +0.000 S 
ATOM     12  C   UNL     1      -1.546   5.146  -1.121  0.00  0.00    +0.000 C 
ATOM     13  C   UNL     1      -1.475   4.982  -2.636  0.00  0.00    +0.000 C 
ATOM     14  C   UNL     1      -0.984   3.613  -3.098  0.00  0.00    +0.000 C 
ATOM     15  S   UNL     1       0.767   3.319  -2.758  0.00  0.00    +0.000 S 
ENDBRANCH   9  10
ENDBRANCH   3   9
TORSDOF 2
