MODEL 1
REMARK VINA RESULT:      -4.6      0.000      0.000
REMARK  Name = *****
REMARK  5 active torsions:
REMARK  status: ('A' for Active; 'I' for Inactive)
REMARK    1  A    between atoms: C_1  and  C_2
REMARK    2  A    between atoms: C_2  and  C_3
REMARK    3  A    between atoms: C_2  and  O_8
REMARK    4  A    between atoms: O_8  and  C_9
REMARK    5  A    between atoms: C_9  and  C_11
REMARK                            x       y       z     vdW  Elec       q    Type
REMARK                         _______ _______ _______ _____ _____    ______ ____
ROOT
ATOM      1  C   UNL     1     102.623 126.185  83.310  0.00  0.00    +0.000 C 
ATOM      2  O   UNL     1     102.504 125.122  83.891  0.00  0.00    +0.000 OA
ENDROOT
BRANCH   1   3
ATOM      3  C   UNL     1     101.670 127.313  83.422  0.00  0.00    +0.000 A 
ATOM      4  C   UNL     1     100.419 127.209  82.810  0.00  0.00    +0.000 A 
ATOM      5  C   UNL     1      99.500 128.247  82.916  0.00  0.00    +0.000 A 
ATOM      6  C   UNL     1      99.822 129.391  83.635  0.00  0.00    +0.000 A 
ATOM      7  C   UNL     1     101.062 129.513  84.256  0.00  0.00    +0.000 A 
ATOM      8  C   UNL     1     101.989 128.473  84.151  0.00  0.00    +0.000 A 
ATOM      9  F   UNL     1      98.938 130.392  83.738  0.00  0.00    +0.000 F 
ATOM     10  F   UNL     1      98.304 128.147  82.320  0.00  0.00    +0.000 F 
ATOM     11  F   UNL     1     100.087 126.127  82.091  0.00  0.00    +0.000 F 
ENDBRANCH   1   3
BRANCH   1  12
ATOM     12  O   UNL     1     103.626 126.534  82.466  0.00  0.00    +0.000 OA
BRANCH  12  14
ATOM     13  C   UNL     1     103.597 127.231  80.186  0.00  0.00    +0.000 C 
ATOM     14  C   UNL     1     103.559 126.025  81.119  0.00  0.00    +0.000 C 
BRANCH  14  15
ATOM     15  C   UNL     1     104.729 125.063  80.856  0.00  0.00    +0.000 C 
ATOM     16  C   UNL     1     105.275 125.131  79.429  0.00  0.00    +0.000 C 
ATOM     17  C   UNL     1     106.165 123.900  79.334  0.00  0.00    +0.000 C 
ATOM     18  C   UNL     1     105.506 122.851  80.229  0.00  0.00    +0.000 C 
ATOM     19  C   UNL     1     104.399 123.574  80.995  0.00  0.00    +0.000 C 
ENDBRANCH  14  15
ENDBRANCH  12  14
ENDBRANCH   1  12
TORSDOF 4
ENDMDL
