MODEL 1
REMARK VINA RESULT:      -3.8      0.000      0.000
REMARK  Name = *****
REMARK  5 active torsions:
REMARK  status: ('A' for Active; 'I' for Inactive)
REMARK    1  A    between atoms: C_1  and  C_2
REMARK    2  A    between atoms: C_5  and  C_8
REMARK    3  A    between atoms: C_8  and  O_9
REMARK    4  A    between atoms: O_9  and  N_10
REMARK    5  A    between atoms: C_11  and  C_12
REMARK                            x       y       z     vdW  Elec       q    Type
REMARK                         _______ _______ _______ _____ _____    ______ ____
ROOT
ATOM      1  O   UNL     1      90.399  69.878  83.590  0.00  0.00    +0.000 OA
ENDROOT
BRANCH   1   2
ATOM      2  N   UNL     1      89.874  69.116  82.539  0.00  0.00    +0.000 NA
ATOM      3  C   UNL     1      89.332  68.007  82.948  0.00  0.00    +0.000 C 
BRANCH   3   4
ATOM      4  C   UNL     1      89.130  67.496  84.322  0.00  0.00    +0.000 A 
ATOM      5  C   UNL     1      90.182  67.043  85.124  0.00  0.00    +0.000 A 
ATOM      6  C   UNL     1      89.927  66.608  86.426  0.00  0.00    +0.000 A 
ATOM      7  C   UNL     1      88.629  66.639  86.935  0.00  0.00    +0.000 A 
ATOM      8  C   UNL     1      87.582  67.109  86.144  0.00  0.00    +0.000 A 
ATOM      9  C   UNL     1      87.831  67.543  84.841  0.00  0.00    +0.000 A 
ENDBRANCH   3   4
ENDBRANCH   1   2
BRANCH   1  10
ATOM     10  C   UNL     1      89.556  71.007  83.812  0.00  0.00    +0.000 C 
BRANCH  10  15
ATOM     11  C   UNL     1      87.244  70.512  89.135  0.00  0.00    +0.000 C 
ATOM     12  C   UNL     1      87.836  70.616  87.761  0.00  0.00    +0.000 A 
ATOM     13  C   UNL     1      89.203  70.399  87.557  0.00  0.00    +0.000 A 
ATOM     14  C   UNL     1      89.758  70.526  86.281  0.00  0.00    +0.000 A 
ATOM     15  C   UNL     1      88.959  70.891  85.190  0.00  0.00    +0.000 A 
ATOM     16  C   UNL     1      87.591  71.109  85.396  0.00  0.00    +0.000 A 
ATOM     17  C   UNL     1      87.036  70.982  86.672  0.00  0.00    +0.000 A 
ENDBRANCH  10  15
ENDBRANCH   1  10
TORSDOF 4
ENDMDL
