REMARK  Name = *****
REMARK  3 active torsions:
REMARK  status: ('A' for Active; 'I' for Inactive)
REMARK    1  A    between atoms: C_1  and  C_2
REMARK    2  A    between atoms: C_4  and  C_8
REMARK    3  A    between atoms: N_9  and  C_10
REMARK                            x       y       z     vdW  Elec       q    Type
REMARK                         _______ _______ _______ _____ _____    ______ ____
ROOT
ATOM      1  C   UNL     1      -1.669   2.657  -0.150  0.00  0.00    +0.000 C 
ATOM      2  N   UNL     1      -1.066   3.729   0.259  0.00  0.00    +0.000 NA
ENDROOT
BRANCH   1   6
ATOM      3  C   UNL     1       2.416  -0.172   0.538  0.00  0.00    +0.000 C 
ATOM      4  C   UNL     1       0.988  -0.025   0.101  0.00  0.00    +0.000 A 
ATOM      5  C   UNL     1       0.353   1.221   0.169  0.00  0.00    +0.000 A 
ATOM      6  C   UNL     1      -0.988   1.349  -0.209  0.00  0.00    +0.000 A 
ATOM      7  C   UNL     1      -1.707   0.235  -0.647  0.00  0.00    +0.000 A 
ATOM      8  C   UNL     1      -1.083  -1.011  -0.702  0.00  0.00    +0.000 A 
ATOM      9  C   UNL     1       0.256  -1.141  -0.325  0.00  0.00    +0.000 A 
ENDBRANCH   1   6
BRANCH   2  10
ATOM     10  C   UNL     1      -1.838   4.899   0.261  0.00  0.00    +0.000 A 
ATOM     11  C   UNL     1      -2.622   5.230   1.370  0.00  0.00    +0.000 A 
ATOM     12  C   UNL     1      -3.381   6.401   1.374  0.00  0.00    +0.000 A 
ATOM     13  C   UNL     1      -3.352   7.254   0.271  0.00  0.00    +0.000 A 
ATOM     14  C   UNL     1      -2.559   6.939  -0.832  0.00  0.00    +0.000 A 
ATOM     15  C   UNL     1      -1.801   5.766  -0.833  0.00  0.00    +0.000 A 
ENDBRANCH   2  10
TORSDOF 2
