MODEL 1
REMARK VINA RESULT:      -3.7      0.000      0.000
REMARK  Name = *****
REMARK  2 active torsions:
REMARK  status: ('A' for Active; 'I' for Inactive)
REMARK    1  A    between atoms: C_5  and  C_6
REMARK    2  A    between atoms: C_7  and  C_8
REMARK                            x       y       z     vdW  Elec       q    Type
REMARK                         _______ _______ _______ _____ _____    ______ ____
ROOT
ATOM      1  C   UNL     1     103.088 126.209  81.208  0.00  0.00    +0.000 C 
ATOM      2  C   UNL     1     102.059 125.937  82.031  0.00  0.00    +0.000 C 
ENDROOT
BRANCH   1   7
ATOM      3  C   UNL     1     104.201 123.895  81.101  0.00  0.00    +0.000 A 
ATOM      4  C   UNL     1     105.228 123.269  80.427  0.00  0.00    +0.000 A 
ATOM      5  S   UNL     1     106.014 124.319  79.333  0.00  0.00    +0.000 S 
ATOM      6  C   UNL     1     104.980 125.616  79.756  0.00  0.00    +0.000 A 
ATOM      7  C   UNL     1     104.050 125.263  80.715  0.00  0.00    +0.000 A 
ENDBRANCH   1   7
BRANCH   2   8
ATOM      8  C   UNL     1     101.089 126.871  82.532  0.00  0.00    +0.000 A 
ATOM      9  C   UNL     1      99.718 126.750  82.415  0.00  0.00    +0.000 A 
ATOM     10  S   UNL     1      98.879 128.058  83.136  0.00  0.00    +0.000 S 
ATOM     11  C   UNL     1     100.340 128.802  83.615  0.00  0.00    +0.000 A 
ATOM     12  C   UNL     1     101.443 128.068  83.231  0.00  0.00    +0.000 A 
ENDBRANCH   2   8
TORSDOF 2
ENDMDL
