MODEL 1
REMARK VINA RESULT:      -4.5      0.000      0.000
REMARK  Name = *****
REMARK  5 active torsions:
REMARK  status: ('A' for Active; 'I' for Inactive)
REMARK    1  A    between atoms: C_1  and  C_2
REMARK    2  A    between atoms: C_3  and  C_15
REMARK    3  A    between atoms: C_5  and  C_7
REMARK    4  A    between atoms: C_8  and  C_9
REMARK    5  A    between atoms: C_15  and  C_17
REMARK                            x       y       z     vdW  Elec       q    Type
REMARK                         _______ _______ _______ _____ _____    ______ ____
ROOT
ATOM      1  C   UNL     1      99.826 129.366  85.112  0.00  0.00    +0.000 C 
ATOM      2  C   UNL     1     100.184 128.353  84.071  0.00  0.00    +0.000 A 
ATOM      3  C   UNL     1      99.409 127.390  83.439  0.00  0.00    +0.000 A 
ATOM      4  C   UNL     1     100.197 126.682  82.458  0.00  0.00    +0.000 A 
ATOM      5  C   UNL     1     101.521 127.070  82.390  0.00  0.00    +0.000 A 
ATOM      6  S   UNL     1     101.806 128.338  83.510  0.00  0.00    +0.000 S 
ENDROOT
BRANCH   3   7
ATOM      7  C   UNL     1      97.987 127.078  83.661  0.00  0.00    +0.000 C 
ATOM      8  O   UNL     1      97.162 127.271  82.765  0.00  0.00    +0.000 OA
ATOM      9  C   UNL     1      97.519 126.499  84.970  0.00  0.00    +0.000 C 
ENDBRANCH   3   7
BRANCH   5  10
ATOM     10  C   UNL     1     102.605 126.605  81.587  0.00  0.00    +0.000 C 
ATOM     11  C   UNL     1     102.991 125.318  81.572  0.00  0.00    +0.000 C 
BRANCH  11  12
ATOM     12  C   UNL     1     104.110 124.813  80.761  0.00  0.00    +0.000 A 
ATOM     13  C   UNL     1     104.834 125.637  79.889  0.00  0.00    +0.000 A 
ATOM     14  C   UNL     1     105.915 125.129  79.165  0.00  0.00    +0.000 A 
ATOM     15  C   UNL     1     106.291 123.796  79.313  0.00  0.00    +0.000 A 
ATOM     16  C   UNL     1     105.589 122.971  80.188  0.00  0.00    +0.000 A 
ATOM     17  C   UNL     1     104.508 123.478  80.914  0.00  0.00    +0.000 A 
ENDBRANCH  11  12
ENDBRANCH   5  10
TORSDOF 3
ENDMDL
