MODEL 1
REMARK VINA RESULT:      -4.4      0.000      0.000
REMARK  Name = *****
REMARK  3 active torsions:
REMARK  status: ('A' for Active; 'I' for Inactive)
REMARK    1  A    between atoms: C_4  and  C_7
REMARK    2  A    between atoms: N_9  and  C_10
REMARK    3  A    between atoms: N_9  and  O_18
REMARK                            x       y       z     vdW  Elec       q    Type
REMARK                         _______ _______ _______ _____ _____    ______ ____
ROOT
ATOM      1  C   UNL     1      87.001  64.050  87.793  0.00  0.00    +0.000 C 
ATOM      2  O   UNL     1      86.165  64.454  86.987  0.00  0.00    +0.000 OA
ATOM      3  N   UNL     1      88.360  64.359  87.790  0.00  0.00    +0.000 N 
ENDROOT
BRANCH   3   4
ATOM      4  C   UNL     1      88.989  65.099  86.753  0.00  0.00    +0.000 A 
ATOM      5  C   UNL     1      89.460  64.503  85.566  0.00  0.00    +0.000 A 
ATOM      6  C   UNL     1      90.108  65.276  84.594  0.00  0.00    +0.000 A 
ATOM      7  C   UNL     1      90.273  66.649  84.777  0.00  0.00    +0.000 A 
ATOM      8  C   UNL     1      89.769  67.252  85.925  0.00  0.00    +0.000 A 
ATOM      9  C   UNL     1      89.123  66.492  86.900  0.00  0.00    +0.000 A 
ATOM     10 CL   UNL     1      89.948  68.949  86.145  0.00  0.00    +0.000 Cl
ATOM     11 CL   UNL     1      89.101  62.865  85.129  0.00  0.00    +0.000 Cl
ENDBRANCH   3   4
BRANCH   1  15
ATOM     12  C   UNL     1      85.501  61.634  90.976  0.00  0.00    +0.000 A 
ATOM     13  C   UNL     1      85.728  61.054  89.726  0.00  0.00    +0.000 A 
ATOM     14  C   UNL     1      86.221  61.831  88.676  0.00  0.00    +0.000 A 
ATOM     15  C   UNL     1      86.499  63.186  88.888  0.00  0.00    +0.000 A 
ATOM     16  C   UNL     1      86.248  63.772  90.132  0.00  0.00    +0.000 A 
ATOM     17  C   UNL     1      85.755  62.992  91.178  0.00  0.00    +0.000 A 
ENDBRANCH   1  15
BRANCH   3  18
ATOM     18  O   UNL     1      89.224  63.499  88.509  0.00  0.00    +0.000 OA
ATOM     19  H   UNL     1      88.723  63.047  89.206  0.00  0.00    +0.000 HD
ENDBRANCH   3  18
TORSDOF 3
ENDMDL
