MODEL 1
REMARK VINA RESULT:      -4.8      0.000      0.000
REMARK  Name = *****
REMARK  1 active torsions:
REMARK  status: ('A' for Active; 'I' for Inactive)
REMARK    1  A    between atoms: C_10  and  C_12
REMARK                            x       y       z     vdW  Elec       q    Type
REMARK                         _______ _______ _______ _____ _____    ______ ____
ROOT
ATOM      1  C   UNL     1      99.948 128.931  85.523  0.00  0.00    +0.000 C 
ATOM      2  C   UNL     1      99.052 129.386  84.364  0.00  0.00    +0.000 C 
ATOM      3  C   UNL     1      99.476 130.839  84.315  0.00  0.00    +0.000 C 
ATOM      4  C   UNL     1     100.781 130.886  84.625  0.00  0.00    +0.000 C 
ATOM      5  C   UNL     1     101.228 129.462  84.871  0.00  0.00    +0.000 C 
ATOM      6  C   UNL     1     101.211 128.718  83.511  0.00  0.00    +0.000 C 
ATOM      7  C   UNL     1      99.704 128.665  83.155  0.00  0.00    +0.000 C 
ATOM      8  C   UNL     1      99.227 127.237  82.987  0.00  0.00    +0.000 C 
ATOM      9  N   UNL     1     100.212 126.430  82.271  0.00  0.00    +0.000 NA
ATOM     10  C   UNL     1     101.418 126.534  82.709  0.00  0.00    +0.000 C 
ATOM     11  O   UNL     1     101.816 127.428  83.643  0.00  0.00    +0.000 OA
ENDROOT
BRANCH  10  12
ATOM     12  C   UNL     1     102.537 125.673  82.250  0.00  0.00    +0.000 A 
ATOM     13  C   UNL     1     102.905 125.706  80.897  0.00  0.00    +0.000 A 
ATOM     14  C   UNL     1     103.955 124.910  80.430  0.00  0.00    +0.000 A 
ATOM     15  C   UNL     1     104.640 124.080  81.314  0.00  0.00    +0.000 A 
ATOM     16  C   UNL     1     104.285 124.037  82.662  0.00  0.00    +0.000 A 
ATOM     17  C   UNL     1     103.234 124.833  83.131  0.00  0.00    +0.000 A 
ATOM     18 CL   UNL     1     105.933 123.101  80.741  0.00  0.00    +0.000 Cl
ENDBRANCH  10  12
TORSDOF 1
ENDMDL
