REMARK  Name = *****
REMARK  5 active torsions:
REMARK  status: ('A' for Active; 'I' for Inactive)
REMARK    1  A    between atoms: C_1  and  C_2
REMARK    2  A    between atoms: C_5  and  N_8
REMARK    3  A    between atoms: N_8  and  N_9
REMARK    4  A    between atoms: N_9  and  C_11
REMARK    5  A    between atoms: C_14  and  C_17
REMARK                            x       y       z     vdW  Elec       q    Type
REMARK                         _______ _______ _______ _____ _____    ______ ____
ROOT
ATOM      1  N   UNL     1      -1.945  -2.139   0.571  0.00  0.00    +0.000 N 
ATOM      2  H   UNL     1      -2.777  -1.645   0.751  0.00  0.00    +0.000 HD
ENDROOT
BRANCH   1   7
ATOM      3  C   UNL     1       2.482   1.385  -0.413  0.00  0.00    +0.000 C 
ATOM      4  C   UNL     1       1.324   0.459  -0.196  0.00  0.00    +0.000 A 
ATOM      5  C   UNL     1       0.053   0.956   0.096  0.00  0.00    +0.000 A 
ATOM      6  C   UNL     1      -0.999   0.073   0.335  0.00  0.00    +0.000 A 
ATOM      7  C   UNL     1      -0.832  -1.322   0.306  0.00  0.00    +0.000 A 
ATOM      8  C   UNL     1       0.444  -1.806   0.013  0.00  0.00    +0.000 A 
ATOM      9  C   UNL     1       1.511  -0.928  -0.228  0.00  0.00    +0.000 A 
ATOM     10  F   UNL     1      -2.212   0.579   0.614  0.00  0.00    +0.000 F 
ENDBRANCH   1   7
BRANCH   1  11
ATOM     11  N   UNL     1      -2.079  -3.546   0.625  0.00  0.00    +0.000 N 
ATOM     12  O   UNL     1      -1.145  -4.270   0.333  0.00  0.00    +0.000 OA
BRANCH  11  13
ATOM     13  C   UNL     1      -3.320  -4.181   1.039  0.00  0.00    +0.000 A 
ATOM     14  C   UNL     1      -4.432  -3.426   1.404  0.00  0.00    +0.000 A 
ATOM     15  C   UNL     1      -5.610  -4.042   1.825  0.00  0.00    +0.000 A 
ATOM     16  C   UNL     1      -5.693  -5.438   1.886  0.00  0.00    +0.000 A 
ATOM     17  C   UNL     1      -4.579  -6.201   1.513  0.00  0.00    +0.000 A 
ATOM     18  C   UNL     1      -3.400  -5.579   1.092  0.00  0.00    +0.000 A 
ATOM     19  C   UNL     1      -6.947  -6.118   2.349  0.00  0.00    +0.000 C 
ATOM     20  F   UNL     1      -4.400  -2.085   1.368  0.00  0.00    +0.000 F 
ENDBRANCH  11  13
ENDBRANCH   1  11
TORSDOF 3
