MODEL 1
REMARK VINA RESULT:      -4.5      0.000      0.000
REMARK  Name = *****
REMARK  2 active torsions:
REMARK  status: ('A' for Active; 'I' for Inactive)
REMARK    1  A    between atoms: C_5  and  C_6
REMARK    2  A    between atoms: C_7  and  C_8
REMARK                            x       y       z     vdW  Elec       q    Type
REMARK                         _______ _______ _______ _____ _____    ______ ____
ROOT
ATOM      1  C   UNL     1      85.129  60.659  90.143  0.00  0.00    +0.000 C 
ATOM      2  C   UNL     1      85.870  61.498  89.707  0.00  0.00    +0.000 C 
ENDROOT
BRANCH   1   7
ATOM      3  C   UNL     1      85.248  55.612  90.968  0.00  0.00    +0.000 C 
ATOM      4  C   UNL     1      86.231  56.654  90.436  0.00  0.00    +0.000 C 
ATOM      5  C   UNL     1      86.089  57.994  91.158  0.00  0.00    +0.000 C 
ATOM      6  C   UNL     1      84.654  58.474  91.120  0.00  0.00    +0.000 C 
ATOM      7  C   UNL     1      84.248  59.670  90.657  0.00  0.00    +0.000 C 
ATOM      8  C   UNL     1      83.661  57.464  91.648  0.00  0.00    +0.000 C 
ATOM      9  C   UNL     1      83.809  56.125  90.924  0.00  0.00    +0.000 C 
ENDBRANCH   1   7
BRANCH   2  10
ATOM     10  C   UNL     1      86.758  62.489  89.181  0.00  0.00    +0.000 A 
ATOM     11  C   UNL     1      87.450  63.337  90.048  0.00  0.00    +0.000 A 
ATOM     12  C   UNL     1      88.316  64.306  89.536  0.00  0.00    +0.000 A 
ATOM     13  C   UNL     1      88.490  64.427  88.157  0.00  0.00    +0.000 A 
ATOM     14  C   UNL     1      87.799  63.580  87.289  0.00  0.00    +0.000 A 
ATOM     15  C   UNL     1      86.934  62.611  87.801  0.00  0.00    +0.000 A 
ENDBRANCH   2  10
TORSDOF 2
ENDMDL
