MODEL 1
REMARK VINA RESULT:      -5.0      0.000      0.000
REMARK  Name = *****
REMARK  4 active torsions:
REMARK  status: ('A' for Active; 'I' for Inactive)
REMARK    1  A    between atoms: C_5  and  C_7
REMARK    2  A    between atoms: C_7  and  C_8
REMARK    3  A    between atoms: C_8  and  O_10
REMARK    4  A    between atoms: O_10  and  C_11
REMARK                            x       y       z     vdW  Elec       q    Type
REMARK                         _______ _______ _______ _____ _____    ______ ____
ROOT
ATOM      1  O   UNL     1      90.273  67.962  86.517  0.00  0.00    +0.000 OA
ENDROOT
BRANCH   1   2
ATOM      2  C   UNL     1      89.715  66.686  86.457  0.00  0.00    +0.000 A 
ATOM      3  C   UNL     1      90.422  65.649  85.853  0.00  0.00    +0.000 A 
ATOM      4  C   UNL     1      89.869  64.375  85.804  0.00  0.00    +0.000 A 
ATOM      5  C   UNL     1      88.620  64.137  86.366  0.00  0.00    +0.000 A 
ATOM      6  C   UNL     1      87.923  65.170  86.984  0.00  0.00    +0.000 A 
ATOM      7  C   UNL     1      88.472  66.445  87.035  0.00  0.00    +0.000 A 
ATOM      8  F   UNL     1      87.809  67.441  87.640  0.00  0.00    +0.000 F 
ATOM      9  F   UNL     1      86.727  64.932  87.539  0.00  0.00    +0.000 F 
ATOM     10  F   UNL     1      88.093  62.905  86.325  0.00  0.00    +0.000 F 
ATOM     11  F   UNL     1      90.546  63.373  85.224  0.00  0.00    +0.000 F 
ATOM     12  F   UNL     1      91.631  65.880  85.324  0.00  0.00    +0.000 F 
ENDBRANCH   1   2
BRANCH   1  13
ATOM     13  C   UNL     1      89.753  68.778  85.515  0.00  0.00    +0.000 C 
ATOM     14  O   UNL     1      89.319  68.388  84.438  0.00  0.00    +0.000 OA
BRANCH  13  15
ATOM     15  C   UNL     1      89.744  70.209  86.012  0.00  0.00    +0.000 C 
BRANCH  15  20
ATOM     16  C   UNL     1      86.168  71.537  86.143  0.00  0.00    +0.000 A 
ATOM     17  C   UNL     1      85.909  71.486  87.514  0.00  0.00    +0.000 A 
ATOM     18  C   UNL     1      86.889  71.024  88.389  0.00  0.00    +0.000 A 
ATOM     19  C   UNL     1      88.120  70.614  87.885  0.00  0.00    +0.000 A 
ATOM     20  C   UNL     1      88.397  70.654  86.516  0.00  0.00    +0.000 A 
ATOM     21  C   UNL     1      87.408  71.125  85.644  0.00  0.00    +0.000 A 
ATOM     22  F   UNL     1      89.055  70.166  88.735  0.00  0.00    +0.000 F 
ENDBRANCH  15  20
ENDBRANCH  13  15
ENDBRANCH   1  13
TORSDOF 4
ENDMDL
