MODEL 1
REMARK VINA RESULT:      -4.7      0.000      0.000
REMARK  Name = *****
REMARK  0 active torsions:
REMARK  status: ('A' for Active; 'I' for Inactive)
REMARK                            x       y       z     vdW  Elec       q    Type
REMARK                         _______ _______ _______ _____ _____    ______ ____
ROOT
ATOM      1  C   UNL     1      90.005  67.049  86.136  0.00  0.00    +0.000 C 
ATOM      2  C   UNL     1      90.029  68.570  86.064  0.00  0.00    +0.000 C 
ATOM      3  C   UNL     1      89.188  69.202  87.178  0.00  0.00    +0.000 C 
ATOM      4  C   UNL     1      87.721  68.714  87.200  0.00  0.00    +0.000 C 
ATOM      5  C   UNL     1      87.732  67.156  87.240  0.00  0.00    +0.000 C 
ATOM      6  C   UNL     1      88.583  66.506  86.142  0.00  0.00    +0.000 C 
ATOM      7  S   UNL     1      86.856  69.208  88.760  0.00  0.00    +0.000 S 
ATOM      8  C   UNL     1      86.948  71.018  88.713  0.00  0.00    +0.000 C 
ATOM      9  C   UNL     1      85.796  71.635  87.961  0.00  0.00    +0.000 A 
ATOM     10  C   UNL     1      84.736  72.212  88.684  0.00  0.00    +0.000 A 
ATOM     11  C   UNL     1      83.644  72.778  88.028  0.00  0.00    +0.000 A 
ATOM     12  C   UNL     1      83.589  72.770  86.640  0.00  0.00    +0.000 A 
ATOM     13  C   UNL     1      84.626  72.194  85.908  0.00  0.00    +0.000 A 
ATOM     14  C   UNL     1      85.740  71.626  86.553  0.00  0.00    +0.000 A 
ATOM     15  C   UNL     1      86.830  71.001  85.720  0.00  0.00    +0.000 C 
ATOM     16  S   UNL     1      86.740  69.190  85.704  0.00  0.00    +0.000 S 
ENDROOT
TORSDOF 0
ENDMDL
