MODEL 1
REMARK VINA RESULT:      -4.5      0.000      0.000
REMARK  Name = *****
REMARK  4 active torsions:
REMARK  status: ('A' for Active; 'I' for Inactive)
REMARK    1  A    between atoms: C_1  and  N_2
REMARK    2  A    between atoms: C_5  and  C_8
REMARK    3  A    between atoms: C_8  and  C_9
REMARK    4  A    between atoms: C_9  and  C_10
REMARK                            x       y       z     vdW  Elec       q    Type
REMARK                         _______ _______ _______ _____ _____    ______ ____
ROOT
ATOM      1  C   UNL     1     102.608 127.615  82.833  0.00  0.00    +0.000 C 
ENDROOT
BRANCH   1   6
ATOM      2  C   UNL     1      98.328 126.914  84.877  0.00  0.00    +0.000 C 
ATOM      3  N   UNL     1      98.300 127.801  83.714  0.00  0.00    +0.000 N 
ATOM      4  C   UNL     1      98.726 127.112  82.487  0.00  0.00    +0.000 C 
ATOM      5  C   UNL     1     100.213 126.712  82.461  0.00  0.00    +0.000 C 
ATOM      6  C   UNL     1     101.120 127.786  83.019  0.00  0.00    +0.000 C 
ATOM      7  C   UNL     1     100.592 128.830  83.683  0.00  0.00    +0.000 C 
ATOM      8  C   UNL     1      99.116 129.004  83.931  0.00  0.00    +0.000 C 
ATOM      9  H   UNL     1      97.329 128.090  83.594  0.00  0.00    +0.000 HD
ENDBRANCH   1   6
BRANCH   1  10
ATOM     10  C   UNL     1     102.999 127.421  81.364  0.00  0.00    +0.000 C 
BRANCH  10  11
ATOM     11  C   UNL     1     103.695 126.099  81.140  0.00  0.00    +0.000 A 
ATOM     12  C   UNL     1     104.495 125.898  80.005  0.00  0.00    +0.000 A 
ATOM     13  C   UNL     1     105.128 124.669  79.787  0.00  0.00    +0.000 A 
ATOM     14  C   UNL     1     104.962 123.628  80.706  0.00  0.00    +0.000 A 
ATOM     15  C   UNL     1     104.161 123.820  81.835  0.00  0.00    +0.000 A 
ATOM     16  C   UNL     1     103.529 125.047  82.050  0.00  0.00    +0.000 A 
ATOM     17 CL   UNL     1     105.710 122.083  80.504  0.00  0.00    +0.000 Cl
ATOM     18 CL   UNL     1     106.097 124.506  78.366  0.00  0.00    +0.000 Cl
ENDBRANCH  10  11
ENDBRANCH   1  10
TORSDOF 3
ENDMDL
