MODEL 1
REMARK VINA RESULT:      -4.6      0.000      0.000
REMARK  Name = *****
REMARK  3 active torsions:
REMARK  status: ('A' for Active; 'I' for Inactive)
REMARK    1  A    between atoms: C_6  and  C_7
REMARK    2  A    between atoms: C_7  and  C_8
REMARK    3  A    between atoms: C_8  and  C_10
REMARK                            x       y       z     vdW  Elec       q    Type
REMARK                         _______ _______ _______ _____ _____    ______ ____
ROOT
ATOM      1  C   UNL     1     103.354 126.751  81.425  0.00  0.00    +0.000 C 
ATOM      2  O   UNL     1     103.345 127.341  80.342  0.00  0.00    +0.000 OA
ENDROOT
BRANCH   1   3
ATOM      3  C   UNL     1     103.843 125.338  81.475  0.00  0.00    +0.000 A 
ATOM      4  C   UNL     1     104.312 124.652  80.346  0.00  0.00    +0.000 A 
ATOM      5  C   UNL     1     104.771 123.336  80.463  0.00  0.00    +0.000 A 
ATOM      6  C   UNL     1     104.756 122.706  81.703  0.00  0.00    +0.000 A 
ATOM      7  C   UNL     1     104.286 123.365  82.830  0.00  0.00    +0.000 A 
ATOM      8  C   UNL     1     103.829 124.680  82.717  0.00  0.00    +0.000 A 
ATOM      9  F   UNL     1     105.199 121.447  81.807  0.00  0.00    +0.000 F 
ENDBRANCH   1   3
BRANCH   1  10
ATOM     10  C   UNL     1     102.871 127.438  82.689  0.00  0.00    +0.000 C 
BRANCH  10  16
ATOM     11  C   UNL     1     100.757 128.617  83.433  0.00  0.00    +0.000 A 
ATOM     12  C   UNL     1      99.366 128.686  83.537  0.00  0.00    +0.000 A 
ATOM     13  C   UNL     1      98.585 127.666  83.008  0.00  0.00    +0.000 A 
ATOM     14  C   UNL     1      99.169 126.575  82.376  0.00  0.00    +0.000 A 
ATOM     15  C   UNL     1     100.558 126.506  82.268  0.00  0.00    +0.000 A 
ATOM     16  C   UNL     1     101.367 127.530  82.788  0.00  0.00    +0.000 A 
ATOM     17  F   UNL     1      97.252 127.733  83.115  0.00  0.00    +0.000 F 
ENDBRANCH  10  16
ENDBRANCH   1  10
TORSDOF 3
ENDMDL
