MODEL 1
REMARK VINA RESULT:      -4.4      0.000      0.000
REMARK  Name = *****
REMARK  4 active torsions:
REMARK  status: ('A' for Active; 'I' for Inactive)
REMARK    1  A    between atoms: C_1  and  C_2
REMARK    2  A    between atoms: C_6  and  C_8
REMARK    3  A    between atoms: C_6  and  C_9
REMARK    4  A    between atoms: C_10  and  C_11
REMARK                            x       y       z     vdW  Elec       q    Type
REMARK                         _______ _______ _______ _____ _____    ______ ____
ROOT
ATOM      1  C   UNL     1      87.274  70.003  89.109  0.00  0.00    +0.000 C 
ATOM      2  C   UNL     1      87.823  69.538  87.766  0.00  0.00    +0.000 C 
ATOM      3  C   UNL     1      89.195  70.156  87.498  0.00  0.00    +0.000 C 
ATOM      4  C   UNL     1      89.801  69.590  86.221  0.00  0.00    +0.000 C 
ATOM      5  C   UNL     1      89.811  68.066  86.277  0.00  0.00    +0.000 C 
ATOM      6  C   UNL     1      88.429  67.476  86.631  0.00  0.00    +0.000 C 
ATOM      7  O   UNL     1      87.903  68.112  87.808  0.00  0.00    +0.000 OA
ATOM      8  C   UNL     1      87.441  67.623  85.460  0.00  0.00    +0.000 C 
ENDROOT
BRANCH   6   9
ATOM      9  C   UNL     1      88.633  66.028  87.053  0.00  0.00    +0.000 C 
ATOM     10  C   UNL     1      88.162  65.398  88.144  0.00  0.00    +0.000 C 
BRANCH  10  11
ATOM     11  C   UNL     1      88.452  63.945  88.458  0.00  0.00    +0.000 C 
ATOM     12  C   UNL     1      87.286  63.036  88.035  0.00  0.00    +0.000 C 
ATOM     13  C   UNL     1      86.068  63.144  88.953  0.00  0.00    +0.000 C 
ATOM     14  C   UNL     1      86.444  62.924  90.416  0.00  0.00    +0.000 C 
ATOM     15  C   UNL     1      87.564  63.857  90.860  0.00  0.00    +0.000 C 
ATOM     16  C   UNL     1      88.785  63.750  89.947  0.00  0.00    +0.000 C 
ENDBRANCH  10  11
ENDBRANCH   6   9
TORSDOF 2
ENDMDL
