MODEL 1
REMARK VINA RESULT:      -4.1      0.000      0.000
REMARK  Name = *****
REMARK  6 active torsions:
REMARK  status: ('A' for Active; 'I' for Inactive)
REMARK    1  A    between atoms: C_1  and  C_2
REMARK    2  A    between atoms: C_6  and  C_17
REMARK    3  A    between atoms: C_6  and  C_18
REMARK    4  A    between atoms: C_7  and  C_8
REMARK    5  A    between atoms: C_8  and  S_10
REMARK    6  A    between atoms: S_10  and  C_11
REMARK                            x       y       z     vdW  Elec       q    Type
REMARK                         _______ _______ _______ _____ _____    ______ ____
ROOT
ATOM      1  C   UNL     1      87.075  67.358  88.221  0.00  0.00    +0.000 C 
ATOM      2  C   UNL     1      87.865  66.480  87.288  0.00  0.00    +0.000 C 
ATOM      3  C   UNL     1      88.219  65.233  87.649  0.00  0.00    +0.000 C 
ATOM      4  C   UNL     1      88.978  64.280  86.775  0.00  0.00    +0.000 C 
ATOM      5  C   UNL     1      89.520  64.906  85.490  0.00  0.00    +0.000 C 
ATOM      6  C   UNL     1      88.565  65.950  84.865  0.00  0.00    +0.000 C 
ATOM      7  C   UNL     1      88.207  67.060  85.916  0.00  0.00    +0.000 C 
ATOM      8  C   UNL     1      87.263  65.250  84.398  0.00  0.00    +0.000 C 
ATOM      9  C   UNL     1      89.223  66.539  83.600  0.00  0.00    +0.000 C 
ENDROOT
BRANCH   7  10
ATOM     10  C   UNL     1      89.328  68.100  86.106  0.00  0.00    +0.000 C 
ATOM     11  O   UNL     1      90.397  67.888  86.666  0.00  0.00    +0.000 OA
BRANCH  10  12
ATOM     12  S   UNL     1      88.943  69.724  85.510  0.00  0.00    +0.000 S 
BRANCH  12  13
ATOM     13  C   UNL     1      88.187  70.420  86.962  0.00  0.00    +0.000 A 
ATOM     14  C   UNL     1      86.872  70.890  86.894  0.00  0.00    +0.000 A 
ATOM     15  C   UNL     1      86.261  71.443  88.022  0.00  0.00    +0.000 A 
ATOM     16  C   UNL     1      86.961  71.522  89.224  0.00  0.00    +0.000 A 
ATOM     17  C   UNL     1      88.267  71.043  89.304  0.00  0.00    +0.000 A 
ATOM     18  C   UNL     1      88.877  70.489  88.177  0.00  0.00    +0.000 A 
ENDBRANCH  12  13
ENDBRANCH  10  12
ENDBRANCH   7  10
TORSDOF 3
ENDMDL
