MODEL 1
REMARK VINA RESULT:      -4.0      0.000      0.000
REMARK  Name = *****
REMARK  6 active torsions:
REMARK  status: ('A' for Active; 'I' for Inactive)
REMARK    1  A    between atoms: C_1  and  C_2
REMARK    2  A    between atoms: C_6  and  C_7
REMARK    3  A    between atoms: C_7  and  S_8
REMARK    4  A    between atoms: S_8  and  C_9
REMARK    5  A    between atoms: C_12  and  O_15
REMARK    6  A    between atoms: O_15  and  C_16
REMARK                            x       y       z     vdW  Elec       q    Type
REMARK                         _______ _______ _______ _____ _____    ______ ____
ROOT
ATOM      1  S   UNL     1      96.324 116.543  81.946  0.00  0.00    +0.000 S 
ENDROOT
BRANCH   1   2
ATOM      2  C   UNL     1      96.483 116.595  80.170  0.00  0.00    +0.000 A 
ATOM      3  C   UNL     1      97.497 115.911  79.494  0.00  0.00    +0.000 A 
ATOM      4  C   UNL     1      97.587 115.964  78.098  0.00  0.00    +0.000 A 
ATOM      5  C   UNL     1      96.654 116.695  77.363  0.00  0.00    +0.000 A 
ATOM      6  C   UNL     1      95.631 117.365  78.036  0.00  0.00    +0.000 A 
ATOM      7  C   UNL     1      95.541 117.313  79.430  0.00  0.00    +0.000 A 
BRANCH   5   8
ATOM      8  O   UNL     1      96.627 116.830  76.002  0.00  0.00    +0.000 OA
ATOM      9  C   UNL     1      96.978 115.686  75.234  0.00  0.00    +0.000 C 
ENDBRANCH   5   8
ENDBRANCH   1   2
BRANCH   1  10
ATOM     10  C   UNL     1      95.809 118.266  82.283  0.00  0.00    +0.000 C 
BRANCH  10  16
ATOM     11  C   UNL     1      99.396 119.038  83.604  0.00  0.00    +0.000 C 
ATOM     12  C   UNL     1      98.348 118.653  82.556  0.00  0.00    +0.000 C 
ATOM     13  C   UNL     1      98.568 119.417  81.247  0.00  0.00    +0.000 C 
ATOM     14  C   UNL     1      97.689 120.665  81.323  0.00  0.00    +0.000 C 
ATOM     15  C   UNL     1      96.861 120.539  82.598  0.00  0.00    +0.000 C 
ATOM     16  C   UNL     1      96.925 119.057  82.991  0.00  0.00    +0.000 C 
ENDBRANCH  10  16
ENDBRANCH   1  10
TORSDOF 4
ENDMDL
