REMARK  Name = *****
REMARK  6 active torsions:
REMARK  status: ('A' for Active; 'I' for Inactive)
REMARK    1  A    between atoms: C_1  and  O_2
REMARK    2  A    between atoms: O_2  and  C_3
REMARK    3  A    between atoms: C_8  and  C_9
REMARK    4  A    between atoms: C_9  and  C_10
REMARK    5  A    between atoms: C_10  and  C_11
REMARK    6  A    between atoms: C_14  and  P_17
REMARK                            x       y       z     vdW  Elec       q    Type
REMARK                         _______ _______ _______ _____ _____    ______ ____
ROOT
ATOM      1  C   UNL     1       3.222   0.498   2.091  0.00  0.00    +0.000 C 
ENDROOT
BRANCH   1   2
ATOM      2  C   UNL     1       3.494   1.480   3.204  0.00  0.00    +0.000 A 
ATOM      3  C   UNL     1       3.769   2.822   2.919  0.00  0.00    +0.000 A 
ATOM      4  C   UNL     1       4.031   3.728   3.952  0.00  0.00    +0.000 A 
ATOM      5  C   UNL     1       4.030   3.306   5.286  0.00  0.00    +0.000 A 
ATOM      6  C   UNL     1       3.757   1.963   5.570  0.00  0.00    +0.000 A 
ATOM      7  C   UNL     1       3.493   1.057   4.538  0.00  0.00    +0.000 A 
BRANCH   5   8
ATOM      8  P   UNL     1       4.373   4.480   6.627  0.00  0.00    +0.000 P 
ATOM      9  H   UNL     1       4.610   5.731   6.094  0.00  0.00    +0.000 HD
ATOM     10  H   UNL     1       5.484   4.063   7.331  0.00  0.00    +0.000 HD
ENDBRANCH   5   8
ENDBRANCH   1   2
BRANCH   1  11
ATOM     11  C   UNL     1       4.452  -0.358   1.773  0.00  0.00    +0.000 C 
BRANCH  11  17
ATOM     12  C   UNL     1       3.498  -2.500   0.773  0.00  0.00    +0.000 A 
ATOM     13  C   UNL     1       3.276  -3.323  -0.336  0.00  0.00    +0.000 A 
ATOM     14  C   UNL     1       3.743  -2.951  -1.600  0.00  0.00    +0.000 A 
ATOM     15  C   UNL     1       4.435  -1.756  -1.766  0.00  0.00    +0.000 A 
ATOM     16  C   UNL     1       4.662  -0.929  -0.668  0.00  0.00    +0.000 A 
ATOM     17  C   UNL     1       4.202  -1.292   0.609  0.00  0.00    +0.000 A 
BRANCH  12  19
ATOM     18  C   UNL     1       2.364  -3.990   2.252  0.00  0.00    +0.000 C 
ATOM     19  O   UNL     1       3.076  -2.777   2.048  0.00  0.00    +0.000 OA
ENDBRANCH  12  19
ENDBRANCH  11  17
ENDBRANCH   1  11
TORSDOF 5
