REMARK  Name = *****
REMARK  4 active torsions:
REMARK  status: ('A' for Active; 'I' for Inactive)
REMARK    1  A    between atoms: C_6  and  C_7
REMARK    2  A    between atoms: C_7  and  C_8
REMARK    3  A    between atoms: C_8  and  C_9
REMARK    4  A    between atoms: C_9  and  C_10
REMARK                            x       y       z     vdW  Elec       q    Type
REMARK                         _______ _______ _______ _____ _____    ______ ____
ROOT
ATOM      1  C   UNL     1      -4.158   1.260   0.463  0.00  0.00    +0.000 C 
ATOM      2  O   UNL     1      -5.296   1.196   1.008  0.00  0.00    +0.000 OA
ENDROOT
BRANCH   1   3
ATOM      3  C   UNL     1      -3.460  -0.114   0.441  0.00  0.00    +0.000 C 
BRANCH   3   9
ATOM      4  C   UNL     1      -4.391  -0.868  -1.802  0.00  0.00    +0.000 A 
ATOM      5  C   UNL     1      -4.243  -1.454  -3.059  0.00  0.00    +0.000 A 
ATOM      6  C   UNL     1      -2.992  -1.909  -3.455  0.00  0.00    +0.000 A 
ATOM      7  C   UNL     1      -1.887  -1.790  -2.619  0.00  0.00    +0.000 A 
ATOM      8  C   UNL     1      -2.035  -1.203  -1.362  0.00  0.00    +0.000 A 
ATOM      9  C   UNL     1      -3.288  -0.727  -0.944  0.00  0.00    +0.000 A 
ATOM     10  F   UNL     1      -2.846  -2.475  -4.662  0.00  0.00    +0.000 F 
ENDBRANCH   3   9
ENDBRANCH   1   3
BRANCH   1  11
ATOM     11  C   UNL     1      -3.463   2.293  -0.072  0.00  0.00    +0.000 C 
BRANCH  11  12
ATOM     12  C   UNL     1      -3.862   3.710  -0.186  0.00  0.00    +0.000 A 
ATOM     13  C   UNL     1      -4.678   4.347   0.758  0.00  0.00    +0.000 A 
ATOM     14  C   UNL     1      -4.994   5.703   0.637  0.00  0.00    +0.000 A 
ATOM     15  C   UNL     1      -4.482   6.429  -0.429  0.00  0.00    +0.000 A 
ATOM     16  C   UNL     1      -3.659   5.827  -1.374  0.00  0.00    +0.000 A 
ATOM     17  C   UNL     1      -3.347   4.471  -1.249  0.00  0.00    +0.000 A 
ATOM     18  F   UNL     1      -4.779   7.731  -0.549  0.00  0.00    +0.000 F 
ENDBRANCH  11  12
ENDBRANCH   1  11
TORSDOF 4
