MODEL 1
REMARK VINA RESULT:      -4.2      0.000      0.000
REMARK  Name = *****
REMARK  2 active torsions:
REMARK  status: ('A' for Active; 'I' for Inactive)
REMARK    1  A    between atoms: C_6  and  C_7
REMARK    2  A    between atoms: C_8  and  C_9
REMARK                            x       y       z     vdW  Elec       q    Type
REMARK                         _______ _______ _______ _____ _____    ______ ____
ROOT
ATOM      1  C   UNL     1     104.317 123.849  82.559  0.00  0.00    +0.000 A 
ATOM      2  C   UNL     1     105.393 123.033  82.200  0.00  0.00    +0.000 A 
ATOM      3  C   UNL     1     105.892 123.078  80.899  0.00  0.00    +0.000 A 
ATOM      4  C   UNL     1     105.325 123.933  79.955  0.00  0.00    +0.000 A 
ATOM      5  C   UNL     1     104.249 124.750  80.315  0.00  0.00    +0.000 A 
ATOM      6  C   UNL     1     103.745 124.708  81.617  0.00  0.00    +0.000 A 
ATOM      7 CL   UNL     1     107.215 122.072  80.456  0.00  0.00    +0.000 Cl
ENDROOT
BRANCH   6   8
ATOM      8  C   UNL     1     102.642 125.542  81.985  0.00  0.00    +0.000 C 
ATOM      9  C   UNL     1     101.717 126.242  82.294  0.00  0.00    +0.000 C 
BRANCH   9  10
ATOM     10  C   UNL     1     100.617 127.075  82.665  0.00  0.00    +0.000 A 
ATOM     11  C   UNL     1     100.769 128.254  83.359  0.00  0.00    +0.000 A 
ATOM     12  S   UNL     1      99.268 129.024  83.657  0.00  0.00    +0.000 S 
ATOM     13  C   UNL     1      98.409 127.779  82.856  0.00  0.00    +0.000 A 
ATOM     14  C   UNL     1      99.250 126.799  82.373  0.00  0.00    +0.000 A 
ENDBRANCH   9  10
ENDBRANCH   6   8
TORSDOF 2
ENDMDL
