REMARK  Name = *****
REMARK  3 active torsions:
REMARK  status: ('A' for Active; 'I' for Inactive)
REMARK    1  A    between atoms: C_6  and  C_8
REMARK    2  A    between atoms: C_8  and  C_9
REMARK    3  A    between atoms: C_9  and  C_10
REMARK                            x       y       z     vdW  Elec       q    Type
REMARK                         _______ _______ _______ _____ _____    ______ ____
ROOT
ATOM      1  C   UNL     1       5.063  -2.453  -1.268  0.00  0.00    +0.000 C 
ENDROOT
BRANCH   1   7
ATOM      2  C   UNL     1       0.848   0.185   0.145  0.00  0.00    +0.000 C 
ATOM      3  C   UNL     1       2.186   0.145   0.075  0.00  0.00    +0.000 C 
ATOM      4  C   UNL     1       3.033   1.382  -0.048  0.00  0.00    +0.000 C 
ATOM      5  C   UNL     1       3.965   1.323  -1.255  0.00  0.00    +0.000 C 
ATOM      6  C   UNL     1       4.889   0.102  -1.233  0.00  0.00    +0.000 C 
ATOM      7  C   UNL     1       4.126  -1.232  -1.268  0.00  0.00    +0.000 C 
ATOM      8  S   UNL     1       3.002  -1.386   0.174  0.00  0.00    +0.000 S 
ENDBRANCH   1   7
BRANCH   1   9
ATOM      9  C   UNL     1       5.906  -2.558  -2.545  0.00  0.00    +0.000 C 
BRANCH   9  10
ATOM     10  C   UNL     1       6.724  -3.826  -2.568  0.00  0.00    +0.000 A 
ATOM     11  C   UNL     1       6.205  -4.997  -3.137  0.00  0.00    +0.000 A 
ATOM     12  C   UNL     1       6.956  -6.174  -3.142  0.00  0.00    +0.000 A 
ATOM     13  C   UNL     1       8.230  -6.192  -2.576  0.00  0.00    +0.000 A 
ATOM     14  C   UNL     1       8.752  -5.034  -2.002  0.00  0.00    +0.000 A 
ATOM     15  C   UNL     1       8.003  -3.857  -1.995  0.00  0.00    +0.000 A 
ENDBRANCH   9  10
ENDBRANCH   1   9
TORSDOF 3
