REMARK  Name = *****
REMARK  3 active torsions:
REMARK  status: ('A' for Active; 'I' for Inactive)
REMARK    1  A    between atoms: C_3  and  C_4
REMARK    2  A    between atoms: C_9  and  N_10
REMARK    3  A    between atoms: C_11  and  C_12
REMARK                            x       y       z     vdW  Elec       q    Type
REMARK                         _______ _______ _______ _____ _____    ______ ____
ROOT
ATOM      1  C   UNL     1      -1.519  -1.041  -1.202  0.00  0.00    +0.000 A 
ATOM      2  C   UNL     1      -0.763  -1.156  -2.385  0.00  0.00    +0.000 A 
ATOM      3  C   UNL     1      -1.269  -1.788  -3.523  0.00  0.00    +0.000 A 
ATOM      4  C   UNL     1      -2.543  -2.341  -3.502  0.00  0.00    +0.000 A 
ATOM      5  C   UNL     1      -3.308  -2.260  -2.340  0.00  0.00    +0.000 A 
ATOM      6  C   UNL     1      -2.814  -1.611  -1.199  0.00  0.00    +0.000 A 
ENDROOT
BRANCH   1   9
ATOM      7  C   UNL     1      -1.441   0.981   0.460  0.00  0.00    +0.000 C 
ATOM      8  C   UNL     1      -0.042   0.830  -0.052  0.00  0.00    +0.000 C 
ATOM      9  C   UNL     1      -0.941  -0.383   0.037  0.00  0.00    +0.000 C 
ENDBRANCH   1   9
BRANCH   6  10
ATOM     10  N   UNL     1      -3.612  -1.587  -0.040  0.00  0.00    +0.000 NA
ATOM     11  C   UNL     1      -4.459  -0.609   0.039  0.00  0.00    +0.000 C 
BRANCH  11  12
ATOM     12  C   UNL     1      -5.352  -0.444   1.201  0.00  0.00    +0.000 A 
ATOM     13  C   UNL     1      -5.295  -1.335   2.280  0.00  0.00    +0.000 A 
ATOM     14  C   UNL     1      -6.147  -1.157   3.370  0.00  0.00    +0.000 A 
ATOM     15  C   UNL     1      -7.045  -0.094   3.373  0.00  0.00    +0.000 A 
ATOM     16  C   UNL     1      -7.108   0.796   2.305  0.00  0.00    +0.000 A 
ATOM     17  C   UNL     1      -6.257   0.624   1.211  0.00  0.00    +0.000 A 
ATOM     18  F   UNL     1      -7.863   0.076   4.419  0.00  0.00    +0.000 F 
ENDBRANCH  11  12
ENDBRANCH   6  10
TORSDOF 3
