MODEL 1
REMARK VINA RESULT:      -4.7      0.000      0.000
REMARK  Name = *****
REMARK  3 active torsions:
REMARK  status: ('A' for Active; 'I' for Inactive)
REMARK    1  A    between atoms: C_6  and  C_7
REMARK    2  A    between atoms: N_9  and  C_10
REMARK    3  A    between atoms: N_9  and  N_17
REMARK                            x       y       z     vdW  Elec       q    Type
REMARK                         _______ _______ _______ _____ _____    ______ ____
ROOT
ATOM      1  C   UNL     1      87.673  64.822  86.273  0.00  0.00    +0.000 C 
ATOM      2  O   UNL     1      87.239  64.557  85.147  0.00  0.00    +0.000 OA
ATOM      3  N   UNL     1      87.801  63.838  87.273  0.00  0.00    +0.000 N 
ENDROOT
BRANCH   1   9
ATOM      4  C   UNL     1      89.511  66.539  86.232  0.00  0.00    +0.000 A 
ATOM      5  C   UNL     1      89.946  67.851  86.431  0.00  0.00    +0.000 A 
ATOM      6  C   UNL     1      89.048  68.822  86.877  0.00  0.00    +0.000 A 
ATOM      7  C   UNL     1      87.714  68.495  87.117  0.00  0.00    +0.000 A 
ATOM      8  C   UNL     1      87.275  67.183  86.920  0.00  0.00    +0.000 A 
ATOM      9  C   UNL     1      88.178  66.198  86.501  0.00  0.00    +0.000 A 
ATOM     10 CL   UNL     1      89.589  70.437  87.120  0.00  0.00    +0.000 Cl
ENDBRANCH   1   9
BRANCH   3  11
ATOM     11  C   UNL     1      87.842  64.025  88.689  0.00  0.00    +0.000 A 
ATOM     12  C   UNL     1      86.722  64.446  89.423  0.00  0.00    +0.000 A 
ATOM     13  C   UNL     1      86.792  64.612  90.812  0.00  0.00    +0.000 A 
ATOM     14  C   UNL     1      87.979  64.343  91.486  0.00  0.00    +0.000 A 
ATOM     15  C   UNL     1      89.094  63.900  90.785  0.00  0.00    +0.000 A 
ATOM     16  C   UNL     1      89.021  63.735  89.397  0.00  0.00    +0.000 A 
ATOM     17 CL   UNL     1      88.062  64.548  93.191  0.00  0.00    +0.000 Cl
ENDBRANCH   3  11
BRANCH   3  18
ATOM     18  N   UNL     1      87.701  62.485  86.817  0.00  0.00    +0.000 NA
ATOM     19  H   UNL     1      88.517  62.257  86.248  0.00  0.00    +0.000 HD
ATOM     20  H   UNL     1      86.855  62.375  86.258  0.00  0.00    +0.000 HD
ENDBRANCH   3  18
TORSDOF 3
ENDMDL
