MODEL 1
REMARK VINA RESULT:      -4.2      0.000      0.000
REMARK  Name = *****
REMARK  6 active torsions:
REMARK  status: ('A' for Active; 'I' for Inactive)
REMARK    1  A    between atoms: C_1  and  C_2
REMARK    2  A    between atoms: C_7  and  C_8
REMARK    3  A    between atoms: C_8  and  O_9
REMARK    4  A    between atoms: O_9  and  C_10
REMARK    5  A    between atoms: C_10  and  C_12
REMARK    6  A    between atoms: C_17  and  C_18
REMARK                            x       y       z     vdW  Elec       q    Type
REMARK                         _______ _______ _______ _____ _____    ______ ____
ROOT
ATOM      1  O   UNL     1     103.845 123.442  83.314  0.00  0.00    +0.000 OA
ENDROOT
BRANCH   1   2
ATOM      2  C   UNL     1     104.000 124.726  82.906  0.00  0.00    +0.000 C 
ATOM      3  O   UNL     1     104.884 125.475  83.309  0.00  0.00    +0.000 OA
BRANCH   2   4
ATOM      4  C   UNL     1     102.983 125.147  81.854  0.00  0.00    +0.000 C 
ATOM      5  C   UNL     1     103.601 125.443  80.477  0.00  0.00    +0.000 C 
ATOM      6  C   UNL     1     104.272 126.817  80.368  0.00  0.00    +0.000 C 
ATOM      7  C   UNL     1     103.604 127.891  81.169  0.00  0.00    +0.000 C 
ATOM      8  C   UNL     1     102.608 127.664  82.036  0.00  0.00    +0.000 C 
ATOM      9  C   UNL     1     102.051 126.292  82.317  0.00  0.00    +0.000 C 
ATOM     10  C   UNL     1     101.616 126.173  83.780  0.00  0.00    +0.000 C 
ENDBRANCH   2   4
ENDBRANCH   1   2
BRANCH   1  11
ATOM     11  C   UNL     1     104.957 122.580  83.022  0.00  0.00    +0.000 C 
BRANCH  11  18
ATOM     12  C   UNL     1     106.883 123.612  80.973  0.00  0.00    +0.000 C 
ATOM     13  C   UNL     1     106.206 122.255  80.773  0.00  0.00    +0.000 C 
ATOM     14  C   UNL     1     107.167 121.129  81.074  0.00  0.00    +0.000 C 
ATOM     15  C   UNL     1     106.790 119.972  81.641  0.00  0.00    +0.000 C 
ATOM     16  C   UNL     1     105.372 119.658  82.011  0.00  0.00    +0.000 C 
ATOM     17  C   UNL     1     104.369 120.664  81.441  0.00  0.00    +0.000 C 
ATOM     18  C   UNL     1     104.869 122.120  81.553  0.00  0.00    +0.000 C 
ENDBRANCH  11  18
ENDBRANCH   1  11
TORSDOF 4
ENDMDL
