MODEL 1
REMARK VINA RESULT:      -4.4      0.000      0.000
REMARK  Name = *****
REMARK  3 active torsions:
REMARK  status: ('A' for Active; 'I' for Inactive)
REMARK    1  A    between atoms: C_4  and  N_7
REMARK    2  A    between atoms: C_8  and  C_9
REMARK    3  A    between atoms: C_8  and  C_15
REMARK                            x       y       z     vdW  Elec       q    Type
REMARK                         _______ _______ _______ _____ _____    ______ ____
ROOT
ATOM      1  N   UNL     1      87.729  64.457  87.108  0.00  0.00    +0.000 NA
ATOM      2  C   UNL     1      87.360  63.719  88.104  0.00  0.00    +0.000 C 
ENDROOT
BRANCH   1   6
ATOM      3  C   UNL     1      89.326  68.295  86.162  0.00  0.00    +0.000 C 
ATOM      4  C   UNL     1      88.213  68.225  87.203  0.00  0.00    +0.000 C 
ATOM      5  C   UNL     1      87.484  66.884  87.158  0.00  0.00    +0.000 C 
ATOM      6  C   UNL     1      88.458  65.710  87.313  0.00  0.00    +0.000 C 
ATOM      7  C   UNL     1      89.563  65.783  86.251  0.00  0.00    +0.000 C 
ATOM      8  C   UNL     1      90.294  67.123  86.292  0.00  0.00    +0.000 C 
ENDBRANCH   1   6
BRANCH   2   9
ATOM      9  C   UNL     1      87.620  64.002  89.528  0.00  0.00    +0.000 A 
ATOM     10  C   UNL     1      86.590  64.499  90.331  0.00  0.00    +0.000 A 
ATOM     11  C   UNL     1      86.841  64.761  91.677  0.00  0.00    +0.000 A 
ATOM     12  C   UNL     1      88.110  64.524  92.211  0.00  0.00    +0.000 A 
ATOM     13  C   UNL     1      89.133  64.022  91.403  0.00  0.00    +0.000 A 
ATOM     14  C   UNL     1      88.890  63.758  90.056  0.00  0.00    +0.000 A 
ENDBRANCH   2   9
BRANCH   2  15
ATOM     15  C   UNL     1      86.580  62.440  87.843  0.00  0.00    +0.000 C 
ATOM     16  F   UNL     1      86.870  61.471  88.757  0.00  0.00    +0.000 F 
ATOM     17  F   UNL     1      85.234  62.642  87.923  0.00  0.00    +0.000 F 
ENDBRANCH   2  15
TORSDOF 3
ENDMDL
