REMARK  Name = *****
REMARK  3 active torsions:
REMARK  status: ('A' for Active; 'I' for Inactive)
REMARK    1  A    between atoms: C_2  and  C_3
REMARK    2  A    between atoms: C_2  and  C_9
REMARK    3  A    between atoms: C_3  and  C_4
REMARK                            x       y       z     vdW  Elec       q    Type
REMARK                         _______ _______ _______ _____ _____    ______ ____
ROOT
ATOM      1  C   UNL     1       0.966  -0.480  -0.271  0.00  0.00    +0.000 C 
ATOM      2  C   UNL     1       2.269  -0.163  -0.181  0.00  0.00    +0.000 C 
ENDROOT
BRANCH   2   3
ATOM      3  C   UNL     1       3.145  -0.909   0.748  0.00  0.00    +0.000 A 
ATOM      4  C   UNL     1       4.356  -1.462   0.310  0.00  0.00    +0.000 A 
ATOM      5  C   UNL     1       5.191  -2.148   1.197  0.00  0.00    +0.000 A 
ATOM      6  C   UNL     1       4.826  -2.286   2.534  0.00  0.00    +0.000 A 
ATOM      7  C   UNL     1       3.627  -1.740   2.986  0.00  0.00    +0.000 A 
ATOM      8  C   UNL     1       2.793  -1.055   2.099  0.00  0.00    +0.000 A 
ENDBRANCH   2   3
BRANCH   2   9
ATOM      9  C   UNL     1       2.890   0.917  -1.047  0.00  0.00    +0.000 C 
BRANCH   9  10
ATOM     10  C   UNL     1       3.481   2.082  -0.240  0.00  0.00    +0.000 C 
ATOM     11  C   UNL     1       2.449   2.847   0.588  0.00  0.00    +0.000 C 
ATOM     12  C   UNL     1       3.060   4.208   0.889  0.00  0.00    +0.000 C 
ATOM     13  C   UNL     1       3.528   4.774  -0.439  0.00  0.00    +0.000 C 
ATOM     14  S   UNL     1       4.200   3.353  -1.345  0.00  0.00    +0.000 S 
ENDBRANCH   9  10
ENDBRANCH   2   9
TORSDOF 3
