MODEL 1
REMARK VINA RESULT:      -4.7      0.000      0.000
REMARK  Name = *****
REMARK  3 active torsions:
REMARK  status: ('A' for Active; 'I' for Inactive)
REMARK    1  A    between atoms: C_4  and  C_7
REMARK    2  A    between atoms: C_8  and  C_9
REMARK    3  A    between atoms: C_9  and  C_11
REMARK                            x       y       z     vdW  Elec       q    Type
REMARK                         _______ _______ _______ _____ _____    ______ ____
ROOT
ATOM      1  C   UNL     1     101.404 126.269  83.104  0.00  0.00    +0.000 C 
ATOM      2  C   UNL     1     100.521 126.909  82.320  0.00  0.00    +0.000 C 
ATOM      3 CL   UNL     1     101.054 125.857  84.755  0.00  0.00    +0.000 Cl
ENDROOT
BRANCH   1   7
ATOM      4  C   UNL     1     104.827 124.044  81.520  0.00  0.00    +0.000 C 
ATOM      5  C   UNL     1     104.265 125.202  80.701  0.00  0.00    +0.000 C 
ATOM      6  C   UNL     1     102.855 125.580  81.151  0.00  0.00    +0.000 C 
ATOM      7  C   UNL     1     102.806 125.886  82.659  0.00  0.00    +0.000 C 
ATOM      8  C   UNL     1     103.376 124.711  83.476  0.00  0.00    +0.000 C 
ATOM      9  C   UNL     1     104.785 124.341  83.015  0.00  0.00    +0.000 C 
ENDBRANCH   1   7
BRANCH   2  10
ATOM     10  C   UNL     1      99.130 127.280  82.701  0.00  0.00    +0.000 C 
ATOM     11  O   UNL     1      98.148 126.757  82.190  0.00  0.00    +0.000 OA
BRANCH  10  12
ATOM     12  C   UNL     1      98.967 128.407  83.661  0.00  0.00    +0.000 A 
ATOM     13  C   UNL     1      99.491 129.658  83.311  0.00  0.00    +0.000 A 
ATOM     14  C   UNL     1      99.363 130.743  84.180  0.00  0.00    +0.000 A 
ATOM     15  C   UNL     1      98.703 130.587  85.397  0.00  0.00    +0.000 A 
ATOM     16  C   UNL     1      98.163 129.348  85.745  0.00  0.00    +0.000 A 
ATOM     17  C   UNL     1      98.290 128.259  84.879  0.00  0.00    +0.000 A 
ENDBRANCH  10  12
ENDBRANCH   2  10
TORSDOF 3
ENDMDL
