MODEL 1
REMARK VINA RESULT:      -4.5      0.000      0.000
REMARK  Name = *****
REMARK  3 active torsions:
REMARK  status: ('A' for Active; 'I' for Inactive)
REMARK    1  A    between atoms: C_1  and  C_2
REMARK    2  A    between atoms: C_3  and  C_7
REMARK    3  A    between atoms: C_8  and  C_9
REMARK                            x       y       z     vdW  Elec       q    Type
REMARK                         _______ _______ _______ _____ _____    ______ ____
ROOT
ATOM      1  C   UNL     1     102.827 125.663  82.931  0.00  0.00    +0.000 C 
ATOM      2  C   UNL     1     101.639 125.913  82.359  0.00  0.00    +0.000 C 
ENDROOT
BRANCH   1   5
ATOM      3  C   UNL     1     104.236 125.115  80.122  0.00  0.00    +0.000 C 
ATOM      4  C   UNL     1     104.229 124.256  81.335  0.00  0.00    +0.000 A 
ATOM      5  C   UNL     1     103.600 124.526  82.555  0.00  0.00    +0.000 A 
ATOM      6  O   UNL     1     103.849 123.462  83.396  0.00  0.00    +0.000 OA
ATOM      7  C   UNL     1     104.607 122.557  82.737  0.00  0.00    +0.000 A 
ATOM      8  C   UNL     1     104.871 122.992  81.467  0.00  0.00    +0.000 A 
ENDBRANCH   1   5
BRANCH   2   9
ATOM      9  C   UNL     1     100.787 127.058  82.709  0.00  0.00    +0.000 A 
ATOM     10  C   UNL     1      99.405 127.062  82.477  0.00  0.00    +0.000 A 
ATOM     11  C   UNL     1      98.625 128.160  82.852  0.00  0.00    +0.000 A 
ATOM     12  C   UNL     1      99.217 129.259  83.470  0.00  0.00    +0.000 A 
ATOM     13  C   UNL     1     100.587 129.259  83.721  0.00  0.00    +0.000 A 
ATOM     14  C   UNL     1     101.367 128.161  83.347  0.00  0.00    +0.000 A 
ENDBRANCH   2   9
TORSDOF 2
ENDMDL
