MODEL 1
REMARK VINA RESULT:      -4.4      0.000      0.000
REMARK  Name = *****
REMARK  2 active torsions:
REMARK  status: ('A' for Active; 'I' for Inactive)
REMARK    1  A    between atoms: C_4  and  C_7
REMARK    2  A    between atoms: N_8  and  C_9
REMARK                            x       y       z     vdW  Elec       q    Type
REMARK                         _______ _______ _______ _____ _____    ______ ____
ROOT
ATOM      1  C   UNL     1     101.777 125.932  82.280  0.00  0.00    +0.000 C 
ATOM      2  N   UNL     1     102.955 125.800  82.807  0.00  0.00    +0.000 NA
ENDROOT
BRANCH   2   3
ATOM      3  C   UNL     1     103.729 124.725  82.330  0.00  0.00    +0.000 A 
ATOM      4  C   UNL     1     103.958 124.638  80.951  0.00  0.00    +0.000 A 
ATOM      5  C   UNL     1     104.703 123.586  80.412  0.00  0.00    +0.000 A 
ATOM      6  C   UNL     1     105.221 122.600  81.248  0.00  0.00    +0.000 A 
ATOM      7  C   UNL     1     104.990 122.660  82.622  0.00  0.00    +0.000 A 
ATOM      8  C   UNL     1     104.244 123.714  83.161  0.00  0.00    +0.000 A 
ATOM      9 CL   UNL     1     103.985 123.732  84.871  0.00  0.00    +0.000 Cl
ENDBRANCH   2   3
BRANCH   1  13
ATOM     10  C   UNL     1      99.093 129.045  83.410  0.00  0.00    +0.000 A 
ATOM     11  C   UNL     1     100.455 129.176  83.686  0.00  0.00    +0.000 A 
ATOM     12  C   UNL     1     101.341 128.163  83.320  0.00  0.00    +0.000 A 
ATOM     13  C   UNL     1     100.861 127.019  82.678  0.00  0.00    +0.000 A 
ATOM     14  C   UNL     1      99.498 126.885  82.399  0.00  0.00    +0.000 A 
ATOM     15  C   UNL     1      98.614 127.902  82.768  0.00  0.00    +0.000 A 
ENDBRANCH   1  13
TORSDOF 2
ENDMDL
