REMARK  Name = *****
REMARK  6 active torsions:
REMARK  status: ('A' for Active; 'I' for Inactive)
REMARK    1  A    between atoms: C_1  and  C_2
REMARK    2  A    between atoms: C_2  and  N_4
REMARK    3  A    between atoms: N_4  and  C_5
REMARK    4  A    between atoms: N_4  and  C_12
REMARK    5  A    between atoms: C_5  and  C_6
REMARK    6  A    between atoms: C_12  and  C_13
REMARK                            x       y       z     vdW  Elec       q    Type
REMARK                         _______ _______ _______ _____ _____    ______ ____
ROOT
ATOM      1  N   UNL     1       3.395  -1.151   0.062  0.00  0.00    +0.000 N 
ENDROOT
BRANCH   1   3
ATOM      2  C   UNL     1       1.567   0.416  -0.594  0.00  0.00    +0.000 C 
ATOM      3  C   UNL     1       3.049   0.090  -0.488  0.00  0.00    +0.000 C 
ATOM      4  S   UNL     1       4.136   1.256  -1.037  0.00  0.00    +0.000 S 
ENDBRANCH   1   3
BRANCH   1   5
ATOM      5  C   UNL     1       2.395  -2.157   0.446  0.00  0.00    +0.000 C 
BRANCH   5   6
ATOM      6  C   UNL     1       2.109  -3.209  -0.607  0.00  0.00    +0.000 A 
ATOM      7  C   UNL     1       2.455  -3.058  -1.958  0.00  0.00    +0.000 A 
ATOM      8  C   UNL     1       2.140  -4.050  -2.891  0.00  0.00    +0.000 A 
ATOM      9  C   UNL     1       1.468  -5.202  -2.489  0.00  0.00    +0.000 A 
ATOM     10  C   UNL     1       1.108  -5.363  -1.154  0.00  0.00    +0.000 A 
ATOM     11  C   UNL     1       1.423  -4.373  -0.221  0.00  0.00    +0.000 A 
ENDBRANCH   5   6
ENDBRANCH   1   5
BRANCH   1  12
ATOM     12  C   UNL     1       4.799  -1.579   0.213  0.00  0.00    +0.000 C 
BRANCH  12  13
ATOM     13  C   UNL     1       5.506  -1.002   1.423  0.00  0.00    +0.000 A 
ATOM     14  C   UNL     1       4.849  -0.767   2.640  0.00  0.00    +0.000 A 
ATOM     15  C   UNL     1       5.547  -0.270   3.744  0.00  0.00    +0.000 A 
ATOM     16  C   UNL     1       6.912  -0.012   3.651  0.00  0.00    +0.000 A 
ATOM     17  C   UNL     1       7.582  -0.251   2.454  0.00  0.00    +0.000 A 
ATOM     18  C   UNL     1       6.886  -0.748   1.351  0.00  0.00    +0.000 A 
ENDBRANCH  12  13
ENDBRANCH   1  12
TORSDOF 5
