MODEL 1
REMARK VINA RESULT:      -4.7      0.000      0.000
REMARK  Name = *****
REMARK  4 active torsions:
REMARK  status: ('A' for Active; 'I' for Inactive)
REMARK    1  A    between atoms: C_1  and  O_2
REMARK    2  A    between atoms: O_2  and  C_3
REMARK    3  A    between atoms: C_3  and  C_11
REMARK    4  A    between atoms: C_4  and  C_5
REMARK                            x       y       z     vdW  Elec       q    Type
REMARK                         _______ _______ _______ _____ _____    ______ ____
ROOT
ATOM      1  C   UNL     1     102.790 125.986  81.592  0.00  0.00    +0.000 C 
ATOM      2  C   UNL     1     101.832 125.992  82.538  0.00  0.00    +0.000 C 
ENDROOT
BRANCH   2   3
ATOM      3  C   UNL     1     100.873 127.077  82.797  0.00  0.00    +0.000 A 
ATOM      4  C   UNL     1      99.536 126.902  82.416  0.00  0.00    +0.000 A 
ATOM      5  C   UNL     1      98.586 127.893  82.674  0.00  0.00    +0.000 A 
ATOM      6  C   UNL     1      98.962 129.065  83.327  0.00  0.00    +0.000 A 
ATOM      7  C   UNL     1     100.284 129.244  83.726  0.00  0.00    +0.000 A 
ATOM      8  C   UNL     1     101.233 128.252  83.467  0.00  0.00    +0.000 A 
ENDBRANCH   2   3
BRANCH   1   9
ATOM      9  C   UNL     1     103.733 124.856  81.457  0.00  0.00    +0.000 A 
ATOM     10  C   UNL     1     104.336 124.549  80.228  0.00  0.00    +0.000 A 
ATOM     11  C   UNL     1     105.238 123.488  80.123  0.00  0.00    +0.000 A 
ATOM     12  C   UNL     1     105.551 122.723  81.245  0.00  0.00    +0.000 A 
ATOM     13  C   UNL     1     104.965 123.022  82.474  0.00  0.00    +0.000 A 
ATOM     14  C   UNL     1     104.064 124.084  82.580  0.00  0.00    +0.000 A 
ENDBRANCH   1   9
BRANCH   1  16
ATOM     15  C   UNL     1     104.094 127.871  81.279  0.00  0.00    +0.000 C 
ATOM     16  O   UNL     1     103.027 127.073  80.769  0.00  0.00    +0.000 OA
ENDBRANCH   1  16
TORSDOF 3
ENDMDL
