MODEL 1
REMARK VINA RESULT:      -4.8      0.000      0.000
REMARK  Name = *****
REMARK  6 active torsions:
REMARK  status: ('A' for Active; 'I' for Inactive)
REMARK    1  A    between atoms: C_1  and  C_2
REMARK    2  A    between atoms: C_4  and  C_18
REMARK    3  A    between atoms: C_5  and  C_8
REMARK    4  A    between atoms: C_8  and  O_9
REMARK    5  A    between atoms: O_9  and  C_10
REMARK    6  A    between atoms: C_10  and  C_12
REMARK                            x       y       z     vdW  Elec       q    Type
REMARK                         _______ _______ _______ _____ _____    ______ ____
ROOT
ATOM      1  C   UNL     1     101.376 126.757  83.168  0.00  0.00    +0.000 C 
ENDROOT
BRANCH   1   6
ATOM      2  C   UNL     1     105.755 129.152  80.149  0.00  0.00    +0.000 C 
ATOM      3  C   UNL     1     104.609 128.570  80.920  0.00  0.00    +0.000 A 
ATOM      4  C   UNL     1     104.298 129.045  82.200  0.00  0.00    +0.000 A 
ATOM      5  C   UNL     1     103.252 128.485  82.954  0.00  0.00    +0.000 A 
ATOM      6  C   UNL     1     102.512 127.411  82.416  0.00  0.00    +0.000 A 
ATOM      7  C   UNL     1     102.830 126.940  81.131  0.00  0.00    +0.000 A 
ATOM      8  C   UNL     1     103.872 127.507  80.395  0.00  0.00    +0.000 A 
ATOM      9  C   UNL     1     102.945 129.055  84.311  0.00  0.00    +0.000 C 
ENDBRANCH   1   6
BRANCH   1  10
ATOM     10  O   UNL     1     100.263 126.590  82.283  0.00  0.00    +0.000 OA
BRANCH  10  11
ATOM     11  C   UNL     1      99.121 127.248  82.613  0.00  0.00    +0.000 C 
ATOM     12  O   UNL     1      98.024 127.073  82.101  0.00  0.00    +0.000 OA
BRANCH  11  13
ATOM     13  C   UNL     1      99.417 128.256  83.709  0.00  0.00    +0.000 C 
ATOM     14  C   UNL     1      98.501 128.039  84.920  0.00  0.00    +0.000 C 
ATOM     15  C   UNL     1      98.743 129.091  86.000  0.00  0.00    +0.000 C 
ATOM     16  C   UNL     1      98.602 130.505  85.444  0.00  0.00    +0.000 C 
ATOM     17  C   UNL     1      99.504 130.729  84.233  0.00  0.00    +0.000 C 
ATOM     18  C   UNL     1      99.273 129.675  83.153  0.00  0.00    +0.000 C 
ENDBRANCH  11  13
ENDBRANCH  10  11
ENDBRANCH   1  10
TORSDOF 4
ENDMDL
