MODEL 1
REMARK VINA RESULT:      -4.6      0.000      0.000
REMARK  Name = *****
REMARK  6 active torsions:
REMARK  status: ('A' for Active; 'I' for Inactive)
REMARK    1  A    between atoms: C_1  and  O_2
REMARK    2  A    between atoms: O_2  and  C_3
REMARK    3  A    between atoms: C_5  and  O_9
REMARK    4  A    between atoms: O_9  and  C_10
REMARK    5  A    between atoms: C_10  and  O_12
REMARK    6  A    between atoms: O_12  and  C_13
REMARK                            x       y       z     vdW  Elec       q    Type
REMARK                         _______ _______ _______ _____ _____    ______ ____
ROOT
ATOM      1  O   UNL     1     103.088 126.537  82.062  0.00  0.00    +0.000 OA
ENDROOT
BRANCH   1   4
ATOM      2  C   UNL     1      99.461 127.055  82.610  0.00  0.00    +0.000 A 
ATOM      3  C   UNL     1     100.649 126.463  82.184  0.00  0.00    +0.000 A 
ATOM      4  C   UNL     1     101.869 127.064  82.511  0.00  0.00    +0.000 A 
ATOM      5  C   UNL     1     101.919 128.266  83.214  0.00  0.00    +0.000 A 
ATOM      6  C   UNL     1     100.732 128.860  83.631  0.00  0.00    +0.000 A 
ATOM      7  C   UNL     1      99.510 128.254  83.331  0.00  0.00    +0.000 A 
BRANCH   2   9
ATOM      8  C   UNL     1      97.393 126.326  83.527  0.00  0.00    +0.000 C 
ATOM      9  O   UNL     1      98.199 126.578  82.382  0.00  0.00    +0.000 OA
ENDBRANCH   2   9
ENDBRANCH   1   4
BRANCH   1  10
ATOM     10  C   UNL     1     103.320 126.595  80.693  0.00  0.00    +0.000 C 
ATOM     11  O   UNL     1     103.564 127.602  80.043  0.00  0.00    +0.000 OA
BRANCH  10  12
ATOM     12  O   UNL     1     103.227 125.299  80.205  0.00  0.00    +0.000 OA
BRANCH  12  13
ATOM     13  C   UNL     1     104.414 124.558  80.213  0.00  0.00    +0.000 A 
ATOM     14  C   UNL     1     104.472 123.444  81.049  0.00  0.00    +0.000 A 
ATOM     15  C   UNL     1     105.616 122.647  81.045  0.00  0.00    +0.000 A 
ATOM     16  C   UNL     1     106.683 122.960  80.200  0.00  0.00    +0.000 A 
ATOM     17  C   UNL     1     106.606 124.067  79.351  0.00  0.00    +0.000 A 
ATOM     18  C   UNL     1     105.463 124.867  79.348  0.00  0.00    +0.000 A 
ENDBRANCH  12  13
ENDBRANCH  10  12
ENDBRANCH   1  10
TORSDOF 5
ENDMDL
