REMARK  Name = *****
REMARK  5 active torsions:
REMARK  status: ('A' for Active; 'I' for Inactive)
REMARK    1  A    between atoms: C_1  and  C_2
REMARK    2  A    between atoms: C_2  and  C_4
REMARK    3  A    between atoms: C_4  and  C_17
REMARK    4  A    between atoms: C_6  and  C_9
REMARK    5  A    between atoms: C_10  and  C_11
REMARK                            x       y       z     vdW  Elec       q    Type
REMARK                         _______ _______ _______ _____ _____    ______ ____
ROOT
ATOM      1  C   UNL     1       3.241   0.871   1.083  0.00  0.00    +0.000 C 
ATOM      2  C   UNL     1       2.319   0.505   2.259  0.00  0.00    +0.000 C 
ATOM      3  C   UNL     1       2.262   1.672   3.250  0.00  0.00    +0.000 C 
ATOM      4  S   UNL     1       2.344   3.161   2.219  0.00  0.00    +0.000 S 
ATOM      5  C   UNL     1       2.848   2.306   0.694  0.00  0.00    +0.000 C 
ATOM      6  C   UNL     1       2.985  -0.066  -0.109  0.00  0.00    +0.000 C 
ENDROOT
BRANCH   1   8
ATOM      7  C   UNL     1       5.253  -0.495   2.077  0.00  0.00    +0.000 C 
ATOM      8  C   UNL     1       4.741   0.768   1.422  0.00  0.00    +0.000 C 
ATOM      9  O   UNL     1       5.537   1.662   1.128  0.00  0.00    +0.000 OA
ENDBRANCH   1   8
BRANCH   3  10
ATOM     10  C   UNL     1       3.385   1.692   4.248  0.00  0.00    +0.000 C 
ATOM     11  C   UNL     1       3.225   1.381   5.545  0.00  0.00    +0.000 C 
BRANCH  11  12
ATOM     12  C   UNL     1       4.309   1.392   6.538  0.00  0.00    +0.000 A 
ATOM     13  C   UNL     1       5.342   2.337   6.511  0.00  0.00    +0.000 A 
ATOM     14  C   UNL     1       6.339   2.330   7.490  0.00  0.00    +0.000 A 
ATOM     15  C   UNL     1       6.307   1.386   8.513  0.00  0.00    +0.000 A 
ATOM     16  C   UNL     1       5.275   0.451   8.562  0.00  0.00    +0.000 A 
ATOM     17  C   UNL     1       4.279   0.458   7.582  0.00  0.00    +0.000 A 
ENDBRANCH  11  12
ENDBRANCH   3  10
TORSDOF 3
