MODEL 1
REMARK VINA RESULT:      -4.8      0.000      0.000
REMARK  Name = *****
REMARK  4 active torsions:
REMARK  status: ('A' for Active; 'I' for Inactive)
REMARK    1  A    between atoms: C_1  and  C_2
REMARK    2  A    between atoms: C_5  and  C_10
REMARK    3  A    between atoms: C_6  and  C_8
REMARK    4  A    between atoms: C_11  and  C_12
REMARK                            x       y       z     vdW  Elec       q    Type
REMARK                         _______ _______ _______ _____ _____    ______ ____
ROOT
ATOM      1  C   UNL     1      99.506 131.413  83.650  0.00  0.00    +0.000 C 
ATOM      2  C   UNL     1      99.538 130.329  84.732  0.00  0.00    +0.000 C 
ATOM      3  C   UNL     1     100.953 130.106  85.273  0.00  0.00    +0.000 C 
ATOM      4  C   UNL     1     101.889 129.502  84.226  0.00  0.00    +0.000 C 
ATOM      5  C   UNL     1     101.267 128.390  83.405  0.00  0.00    +0.000 C 
ATOM      6  C   UNL     1      99.936 128.165  83.420  0.00  0.00    +0.000 C 
ATOM      7  C   UNL     1      98.962 128.999  84.218  0.00  0.00    +0.000 C 
ENDROOT
BRANCH   6   8
ATOM      8  C   UNL     1      99.315 127.056  82.637  0.00  0.00    +0.000 C 
ATOM      9  O   UNL     1      98.254 127.189  82.036  0.00  0.00    +0.000 OA
ENDBRANCH   6   8
BRANCH   5  10
ATOM     10  C   UNL     1     102.165 127.590  82.629  0.00  0.00    +0.000 C 
ATOM     11  C   UNL     1     102.907 126.909  81.977  0.00  0.00    +0.000 C 
BRANCH  11  12
ATOM     12  C   UNL     1     103.791 126.100  81.196  0.00  0.00    +0.000 A 
ATOM     13  C   UNL     1     104.747 126.700  80.374  0.00  0.00    +0.000 A 
ATOM     14  C   UNL     1     105.611 125.909  79.613  0.00  0.00    +0.000 A 
ATOM     15  C   UNL     1     105.519 124.519  79.674  0.00  0.00    +0.000 A 
ATOM     16  C   UNL     1     104.565 123.917  80.494  0.00  0.00    +0.000 A 
ATOM     17  C   UNL     1     103.700 124.706  81.254  0.00  0.00    +0.000 A 
ENDBRANCH  11  12
ENDBRANCH   5  10
TORSDOF 3
ENDMDL
