MODEL 1
REMARK VINA RESULT:      -5.1      0.000      0.000
REMARK  Name = *****
REMARK  3 active torsions:
REMARK  status: ('A' for Active; 'I' for Inactive)
REMARK    1  A    between atoms: C_4  and  C_7
REMARK    2  A    between atoms: N_8  and  C_9
REMARK    3  A    between atoms: C_13  and  C_15
REMARK                            x       y       z     vdW  Elec       q    Type
REMARK                         _______ _______ _______ _____ _____    ______ ____
ROOT
ATOM      1  C   UNL     1     104.021 125.344  80.677  0.00  0.00    +0.000 A 
ATOM      2  C   UNL     1     104.986 125.616  79.705  0.00  0.00    +0.000 A 
ATOM      3  C   UNL     1     105.875 124.623  79.294  0.00  0.00    +0.000 A 
ATOM      4  C   UNL     1     105.812 123.351  79.865  0.00  0.00    +0.000 A 
ATOM      5  C   UNL     1     104.863 123.064  80.858  0.00  0.00    +0.000 A 
ATOM      6  C   UNL     1     103.972 124.074  81.258  0.00  0.00    +0.000 A 
ENDROOT
BRANCH   5   7
ATOM      7  C   UNL     1     104.779 121.700  81.493  0.00  0.00    +0.000 C 
ATOM      8  F   UNL     1     104.293 121.722  82.767  0.00  0.00    +0.000 F 
ATOM      9  F   UNL     1     103.974 120.847  80.804  0.00  0.00    +0.000 F 
ATOM     10  F   UNL     1     105.995 121.089  81.571  0.00  0.00    +0.000 F 
ENDBRANCH   5   7
BRANCH   1  12
ATOM     11  C   UNL     1     102.229 125.972  81.952  0.00  0.00    +0.000 C 
ATOM     12  N   UNL     1     103.137 126.342  81.104  0.00  0.00    +0.000 NA
BRANCH  11  16
ATOM     13  C   UNL     1      99.371 128.719  83.519  0.00  0.00    +0.000 A 
ATOM     14  C   UNL     1      98.932 127.578  82.844  0.00  0.00    +0.000 A 
ATOM     15  C   UNL     1      99.861 126.674  82.327  0.00  0.00    +0.000 A 
ATOM     16  C   UNL     1     101.229 126.913  82.489  0.00  0.00    +0.000 A 
ATOM     17  C   UNL     1     101.669 128.055  83.164  0.00  0.00    +0.000 A 
ATOM     18  C   UNL     1     100.736 128.957  83.679  0.00  0.00    +0.000 A 
ENDBRANCH  11  16
ENDBRANCH   1  12
TORSDOF 3
ENDMDL
