MODEL 1
REMARK VINA RESULT:      -4.2      0.000      0.000
REMARK  Name = *****
REMARK  3 active torsions:
REMARK  status: ('A' for Active; 'I' for Inactive)
REMARK    1  A    between atoms: C_4  and  C_8
REMARK    2  A    between atoms: C_8  and  O_9
REMARK    3  A    between atoms: O_9  and  C_10
REMARK                            x       y       z     vdW  Elec       q    Type
REMARK                         _______ _______ _______ _____ _____    ______ ____
ROOT
ATOM      1  C   UNL     1     102.766 125.597  83.196  0.00  0.00    +0.000 C 
ENDROOT
BRANCH   1   5
ATOM      2  C   UNL     1     103.404 126.713  80.284  0.00  0.00    +0.000 C 
ATOM      3  C   UNL     1     104.863 127.007  80.647  0.00  0.00    +0.000 C 
ATOM      4  C   UNL     1     104.867 126.665  82.154  0.00  0.00    +0.000 C 
ATOM      5  C   UNL     1     103.934 125.410  82.227  0.00  0.00    +0.000 C 
ATOM      6  C   UNL     1     103.476 125.256  80.754  0.00  0.00    +0.000 C 
ATOM      7  C   UNL     1     104.687 124.822  79.956  0.00  0.00    +0.000 C 
ATOM      8  C   UNL     1     105.522 125.870  79.901  0.00  0.00    +0.000 C 
ENDBRANCH   1   5
BRANCH   1   9
ATOM      9  O   UNL     1     102.598 126.997  83.427  0.00  0.00    +0.000 OA
BRANCH   9  10
ATOM     10  C   UNL     1     101.337 127.507  83.286  0.00  0.00    +0.000 A 
ATOM     11  C   UNL     1     100.901 128.757  83.726  0.00  0.00    +0.000 A 
ATOM     12  C   UNL     1      99.577 129.152  83.515  0.00  0.00    +0.000 A 
ATOM     13  C   UNL     1      98.683 128.302  82.865  0.00  0.00    +0.000 A 
ATOM     14  C   UNL     1      99.114 127.054  82.423  0.00  0.00    +0.000 A 
ATOM     15  C   UNL     1     100.437 126.660  82.633  0.00  0.00    +0.000 A 
ENDBRANCH   9  10
ENDBRANCH   1   9
TORSDOF 3
ENDMDL
