MODEL 1
REMARK VINA RESULT:      -4.9      0.000      0.000
REMARK  Name = *****
REMARK  4 active torsions:
REMARK  status: ('A' for Active; 'I' for Inactive)
REMARK    1  A    between atoms: C_3  and  C_17
REMARK    2  A    between atoms: C_6  and  C_7
REMARK    3  A    between atoms: C_7  and  N_8
REMARK    4  A    between atoms: N_8  and  C_9
REMARK                            x       y       z     vdW  Elec       q    Type
REMARK                         _______ _______ _______ _____ _____    ______ ____
ROOT
ATOM      1  C   UNL     1      87.764  66.893  87.375  0.00  0.00    +0.000 A 
ATOM      2  C   UNL     1      87.932  68.274  87.218  0.00  0.00    +0.000 A 
ATOM      3  C   UNL     1      89.098  68.796  86.640  0.00  0.00    +0.000 A 
ATOM      4  C   UNL     1      90.102  67.906  86.232  0.00  0.00    +0.000 A 
ATOM      5  C   UNL     1      89.936  66.526  86.390  0.00  0.00    +0.000 A 
ATOM      6  C   UNL     1      88.769  66.013  86.971  0.00  0.00    +0.000 A 
ENDROOT
BRANCH   3   7
ATOM      7  C   UNL     1      89.285  70.286  86.494  0.00  0.00    +0.000 C 
ATOM      8  F   UNL     1      88.159  70.931  86.080  0.00  0.00    +0.000 F 
ATOM      9  F   UNL     1      89.649  70.879  87.664  0.00  0.00    +0.000 F 
ATOM     10  F   UNL     1      90.253  70.614  85.592  0.00  0.00    +0.000 F 
ENDBRANCH   3   7
BRANCH   6  11
ATOM     11  C   UNL     1      88.691  64.545  87.073  0.00  0.00    +0.000 C 
BRANCH  11  12
ATOM     12  N   UNL     1      87.830  63.858  87.790  0.00  0.00    +0.000 N 
ATOM     13  O   UNL     1      86.968  63.062  87.297  0.00  0.00    +0.000 OA
BRANCH  12  14
ATOM     14  C   UNL     1      87.890  64.015  89.237  0.00  0.00    +0.000 A 
ATOM     15  C   UNL     1      89.087  63.797  89.931  0.00  0.00    +0.000 A 
ATOM     16  C   UNL     1      89.118  63.971  91.315  0.00  0.00    +0.000 A 
ATOM     17  C   UNL     1      87.965  64.371  91.993  0.00  0.00    +0.000 A 
ATOM     18  C   UNL     1      86.777  64.606  91.298  0.00  0.00    +0.000 A 
ATOM     19  C   UNL     1      86.739  64.434  89.913  0.00  0.00    +0.000 A 
ATOM     20 CL   UNL     1      88.011  64.585  93.699  0.00  0.00    +0.000 Cl
ENDBRANCH  12  14
ENDBRANCH  11  12
ENDBRANCH   6  11
TORSDOF 4
ENDMDL
