MODEL 1
REMARK VINA RESULT:      -3.9      0.000      0.000
REMARK  Name = *****
REMARK  3 active torsions:
REMARK  status: ('A' for Active; 'I' for Inactive)
REMARK    1  A    between atoms: P_3  and  C_6
REMARK    2  A    between atoms: C_6  and  C_7
REMARK    3  A    between atoms: C_7  and  C_8
REMARK                            x       y       z     vdW  Elec       q    Type
REMARK                         _______ _______ _______ _____ _____    ______ ____
ROOT
ATOM      1  C   UNL     1     102.147 126.988  82.227  0.00  0.00    +0.000 C 
ENDROOT
BRANCH   1   2
ATOM      2  C   UNL     1     103.045 125.846  81.811  0.00  0.00    +0.000 A 
ATOM      3  C   UNL     1     103.493 125.746  80.486  0.00  0.00    +0.000 A 
ATOM      4  C   UNL     1     104.308 124.680  80.095  0.00  0.00    +0.000 A 
ATOM      5  C   UNL     1     104.673 123.711  81.025  0.00  0.00    +0.000 A 
ATOM      6  C   UNL     1     104.230 123.795  82.344  0.00  0.00    +0.000 A 
ATOM      7  C   UNL     1     103.415 124.859  82.735  0.00  0.00    +0.000 A 
ATOM      8 CL   UNL     1     105.676 122.398  80.544  0.00  0.00    +0.000 Cl
ENDBRANCH   1   2
BRANCH   1   9
ATOM      9  C   UNL     1     100.691 126.538  82.361  0.00  0.00    +0.000 C 
BRANCH   9  12
ATOM     10  C   UNL     1      99.413 129.711  83.479  0.00  0.00    +0.000 A 
ATOM     11  C   UNL     1      98.868 128.512  83.227  0.00  0.00    +0.000 A 
ATOM     12  P   UNL     1      99.910 127.180  83.912  0.00  0.00    +0.000 P 
ATOM     13  C   UNL     1     101.141 128.430  84.431  0.00  0.00    +0.000 A 
ATOM     14  C   UNL     1     100.687 129.662  84.156  0.00  0.00    +0.000 A 
ENDBRANCH   9  12
ENDBRANCH   1   9
TORSDOF 3
ENDMDL
