MODEL 1
REMARK VINA RESULT:      -4.6      0.000      0.000
REMARK  Name = *****
REMARK  6 active torsions:
REMARK  status: ('A' for Active; 'I' for Inactive)
REMARK    1  A    between atoms: C_1  and  C_2
REMARK    2  A    between atoms: C_2  and  S_3
REMARK    3  A    between atoms: S_3  and  N_4
REMARK    4  A    between atoms: S_3  and  C_12
REMARK    5  A    between atoms: N_4  and  C_5
REMARK    6  A    between atoms: C_15  and  C_18
REMARK                            x       y       z     vdW  Elec       q    Type
REMARK                         _______ _______ _______ _____ _____    ______ ____
ROOT
ATOM      1  S   UNL     1      89.138  65.712  86.249  0.00  0.00    +0.000 S 
ATOM      2  O   UNL     1      88.027  65.718  85.314  0.00  0.00    +0.000 OA
ENDROOT
BRANCH   1   3
ATOM      3  C   UNL     1      88.402  65.172  87.787  0.00  0.00    +0.000 A 
ATOM      4  C   UNL     1      88.867  64.048  88.470  0.00  0.00    +0.000 A 
ATOM      5  C   UNL     1      88.268  63.680  89.678  0.00  0.00    +0.000 A 
ATOM      6  C   UNL     1      87.210  64.432  90.209  0.00  0.00    +0.000 A 
ATOM      7  C   UNL     1      86.735  65.541  89.499  0.00  0.00    +0.000 A 
ATOM      8  C   UNL     1      87.328  65.913  88.292  0.00  0.00    +0.000 A 
ATOM      9  C   UNL     1      86.545  64.010  91.486  0.00  0.00    +0.000 C 
ENDBRANCH   1   3
BRANCH   1  11
ATOM     10  C   UNL     1      91.536  64.944  85.160  0.00  0.00    +0.000 C 
ATOM     11  C   UNL     1      90.224  64.404  85.700  0.00  0.00    +0.000 C 
ENDBRANCH   1  11
BRANCH   1  12
ATOM     12  N   UNL     1      89.997  66.952  86.557  0.00  0.00    +0.000 NA
BRANCH  12  13
ATOM     13  C   UNL     1      89.895  68.291  86.075  0.00  0.00    +0.000 A 
ATOM     14  C   UNL     1      90.053  68.698  84.750  0.00  0.00    +0.000 A 
ATOM     15  C   UNL     1      89.928  70.048  84.402  0.00  0.00    +0.000 A 
ATOM     16  C   UNL     1      89.646  71.003  85.377  0.00  0.00    +0.000 A 
ATOM     17  C   UNL     1      89.492  70.609  86.703  0.00  0.00    +0.000 A 
ATOM     18  C   UNL     1      89.618  69.260  87.045  0.00  0.00    +0.000 A 
ENDBRANCH  12  13
ENDBRANCH   1  12
TORSDOF 4
ENDMDL
