MODEL 1
REMARK VINA RESULT:      -4.6      0.000      0.000
REMARK  Name = *****
REMARK  3 active torsions:
REMARK  status: ('A' for Active; 'I' for Inactive)
REMARK    1  A    between atoms: C_1  and  C_2
REMARK    2  A    between atoms: C_5  and  C_8
REMARK    3  A    between atoms: C_9  and  C_10
REMARK                            x       y       z     vdW  Elec       q    Type
REMARK                         _______ _______ _______ _____ _____    ______ ____
ROOT
ATOM      1  C   UNL     1      95.293 113.239  76.726  0.00  0.00    +0.000 C 
ATOM      2  C   UNL     1      95.895 114.338  77.550  0.00  0.00    +0.000 A 
ATOM      3  C   UNL     1      95.681 114.389  78.933  0.00  0.00    +0.000 A 
ATOM      4  C   UNL     1      96.216 115.432  79.693  0.00  0.00    +0.000 A 
ATOM      5  C   UNL     1      96.960 116.438  79.076  0.00  0.00    +0.000 A 
ATOM      6  C   UNL     1      97.166 116.402  77.697  0.00  0.00    +0.000 A 
ATOM      7  C   UNL     1      96.631 115.359  76.936  0.00  0.00    +0.000 A 
ENDROOT
BRANCH   5   8
ATOM      8  C   UNL     1      97.508 117.506  79.855  0.00  0.00    +0.000 C 
ATOM      9  C   UNL     1      97.968 118.404  80.509  0.00  0.00    +0.000 C 
BRANCH   9  10
ATOM     10  C   UNL     1      98.526 119.494  81.314  0.00  0.00    +0.000 C 
ATOM     11  C   UNL     1      98.853 119.025  82.706  0.00  0.00    +0.000 C 
ATOM     12  C   UNL     1      98.133 119.717  83.605  0.00  0.00    +0.000 C 
ATOM     13  C   UNL     1      97.288 120.659  82.913  0.00  0.00    +0.000 C 
ATOM     14  C   UNL     1      97.488 120.547  81.591  0.00  0.00    +0.000 C 
ENDBRANCH   9  10
ENDBRANCH   5   8
TORSDOF 2
ENDMDL
