MODEL 1
REMARK VINA RESULT:      -4.4      0.000      0.000
REMARK  Name = *****
REMARK  6 active torsions:
REMARK  status: ('A' for Active; 'I' for Inactive)
REMARK    1  A    between atoms: C_1  and  C_2
REMARK    2  A    between atoms: C_2  and  O_3
REMARK    3  A    between atoms: O_3  and  C_4
REMARK    4  A    between atoms: C_4  and  C_5
REMARK    5  A    between atoms: C_4  and  S_11
REMARK    6  A    between atoms: S_11  and  C_12
REMARK                            x       y       z     vdW  Elec       q    Type
REMARK                         _______ _______ _______ _____ _____    ______ ____
ROOT
ATOM      1  C   UNL     1     102.987 126.879  81.179  0.00  0.00    +0.000 C 
ENDROOT
BRANCH   1   2
ATOM      2  C   UNL     1     103.622 125.506  81.338  0.00  0.00    +0.000 A 
ATOM      3  C   UNL     1     104.214 124.847  80.248  0.00  0.00    +0.000 A 
ATOM      4  C   UNL     1     104.799 123.590  80.408  0.00  0.00    +0.000 A 
ATOM      5  C   UNL     1     104.805 122.977  81.659  0.00  0.00    +0.000 A 
ATOM      6  C   UNL     1     104.229 123.621  82.752  0.00  0.00    +0.000 A 
ATOM      7  C   UNL     1     103.643 124.879  82.595  0.00  0.00    +0.000 A 
ENDBRANCH   1   2
BRANCH   1   8
ATOM      8  O   UNL     1     103.776 127.691  80.298  0.00  0.00    +0.000 OA
BRANCH   8  10
ATOM      9  C   UNL     1     105.322 129.475  79.982  0.00  0.00    +0.000 C 
ATOM     10  C   UNL     1     104.504 128.698  80.994  0.00  0.00    +0.000 C 
ENDBRANCH   8  10
ENDBRANCH   1   8
BRANCH   1  11
ATOM     11  S   UNL     1     102.824 127.685  82.822  0.00  0.00    +0.000 S 
BRANCH  11  12
ATOM     12  C   UNL     1     101.047 127.739  82.949  0.00  0.00    +0.000 A 
ATOM     13  C   UNL     1     100.436 128.826  83.581  0.00  0.00    +0.000 A 
ATOM     14  C   UNL     1      99.044 128.888  83.686  0.00  0.00    +0.000 A 
ATOM     15  C   UNL     1      98.258 127.867  83.153  0.00  0.00    +0.000 A 
ATOM     16  C   UNL     1      98.862 126.788  82.509  0.00  0.00    +0.000 A 
ATOM     17  C   UNL     1     100.252 126.726  82.403  0.00  0.00    +0.000 A 
ENDBRANCH  11  12
ENDBRANCH   1  11
TORSDOF 5
ENDMDL
