MODEL 1
REMARK VINA RESULT:      -4.9      0.000      0.000
REMARK  Name = *****
REMARK  5 active torsions:
REMARK  status: ('A' for Active; 'I' for Inactive)
REMARK    1  A    between atoms: C_1  and  C_2
REMARK    2  A    between atoms: C_4  and  C_16
REMARK    3  A    between atoms: C_5  and  C_8
REMARK    4  A    between atoms: C_8  and  C_9
REMARK    5  A    between atoms: C_9  and  C_10
REMARK                            x       y       z     vdW  Elec       q    Type
REMARK                         _______ _______ _______ _____ _____    ______ ____
ROOT
ATOM      1  C   UNL     1      84.072  72.538  87.084  0.00  0.00    +0.000 C 
ATOM      2  C   UNL     1      85.407  71.863  87.193  0.00  0.00    +0.000 A 
ATOM      3  C   UNL     1      85.971  71.604  88.448  0.00  0.00    +0.000 A 
ATOM      4  C   UNL     1      87.237  71.005  88.572  0.00  0.00    +0.000 A 
ATOM      5  C   UNL     1      87.949  70.654  87.408  0.00  0.00    +0.000 A 
ATOM      6  C   UNL     1      87.386  70.936  86.152  0.00  0.00    +0.000 A 
ATOM      7  C   UNL     1      86.131  71.537  86.045  0.00  0.00    +0.000 A 
ATOM      8  C   UNL     1      87.779  70.734  89.949  0.00  0.00    +0.000 C 
ENDROOT
BRANCH   5   9
ATOM      9  C   UNL     1      89.321  70.017  87.455  0.00  0.00    +0.000 C 
BRANCH   9  10
ATOM     10  C   UNL     1      89.626  69.234  86.174  0.00  0.00    +0.000 C 
BRANCH  10  11
ATOM     11  C   UNL     1      89.439  67.749  86.371  0.00  0.00    +0.000 A 
ATOM     12  C   UNL     1      90.359  66.840  85.831  0.00  0.00    +0.000 A 
ATOM     13  C   UNL     1      90.174  65.467  85.997  0.00  0.00    +0.000 A 
ATOM     14  C   UNL     1      89.067  64.991  86.698  0.00  0.00    +0.000 A 
ATOM     15  C   UNL     1      88.145  65.887  87.234  0.00  0.00    +0.000 A 
ATOM     16  C   UNL     1      88.328  67.261  87.069  0.00  0.00    +0.000 A 
ENDBRANCH  10  11
ENDBRANCH   9  10
ENDBRANCH   5   9
TORSDOF 3
ENDMDL
