REMARK  Name = *****
REMARK  4 active torsions:
REMARK  status: ('A' for Active; 'I' for Inactive)
REMARK    1  A    between atoms: C_1  and  C_2
REMARK    2  A    between atoms: C_3  and  C_14
REMARK    3  A    between atoms: C_4  and  C_5
REMARK    4  A    between atoms: C_6  and  C_7
REMARK                            x       y       z     vdW  Elec       q    Type
REMARK                         _______ _______ _______ _____ _____    ______ ____
ROOT
ATOM      1  C   UNL     1       4.279  -1.846  -1.453  0.00  0.00    +0.000 C 
ATOM      2  C   UNL     1       5.172  -2.647  -1.388  0.00  0.00    +0.000 C 
ENDROOT
BRANCH   1   6
ATOM      3  C   UNL     1       1.237  -0.051   0.012  0.00  0.00    +0.000 C 
ATOM      4  C   UNL     1       2.686  -0.309  -0.228  0.00  0.00    +0.000 C 
ATOM      5  C   UNL     1       3.459   0.565  -1.183  0.00  0.00    +0.000 C 
ATOM      6  C   UNL     1       3.210  -0.892  -1.528  0.00  0.00    +0.000 C 
ATOM      7 CL   UNL     1       2.081  -1.206  -2.853  0.00  0.00    +0.000 Cl
ATOM      8  C   UNL     1       4.807   1.078  -0.800  0.00  0.00    +0.000 C 
ENDBRANCH   1   6
BRANCH   2   9
ATOM      9  C   UNL     1       6.233  -3.602  -1.310  0.00  0.00    +0.000 A 
ATOM     10  C   UNL     1       7.562  -3.181  -1.397  0.00  0.00    +0.000 A 
ATOM     11  C   UNL     1       8.598  -4.115  -1.319  0.00  0.00    +0.000 A 
ATOM     12  C   UNL     1       8.305  -5.469  -1.155  0.00  0.00    +0.000 A 
ATOM     13  C   UNL     1       6.979  -5.891  -1.068  0.00  0.00    +0.000 A 
ATOM     14  C   UNL     1       5.942  -4.959  -1.145  0.00  0.00    +0.000 A 
ENDBRANCH   2   9
TORSDOF 2
