REMARK  Name = *****
REMARK  2 active torsions:
REMARK  status: ('A' for Active; 'I' for Inactive)
REMARK    1  A    between atoms: C_4  and  C_7
REMARK    2  A    between atoms: C_8  and  C_9
REMARK                            x       y       z     vdW  Elec       q    Type
REMARK                         _______ _______ _______ _____ _____    ______ ____
ROOT
ATOM      1  C   UNL     1       2.902   0.179  -0.234  0.00  0.00    +0.000 C 
ATOM      2  C   UNL     1       4.096   0.254  -0.343  0.00  0.00    +0.000 C 
ENDROOT
BRANCH   1   6
ATOM      3  C   UNL     1      -1.303  -0.077   0.073  0.00  0.00    +0.000 A 
ATOM      4  C   UNL     1      -0.682   1.171   0.025  0.00  0.00    +0.000 A 
ATOM      5  C   UNL     1       0.708   1.256  -0.071  0.00  0.00    +0.000 A 
ATOM      6  C   UNL     1       1.479   0.092  -0.121  0.00  0.00    +0.000 A 
ATOM      7  C   UNL     1       0.855  -1.157  -0.070  0.00  0.00    +0.000 A 
ATOM      8  C   UNL     1      -0.535  -1.241   0.027  0.00  0.00    +0.000 A 
ENDBRANCH   1   6
BRANCH   2   9
ATOM      9  C   UNL     1       5.514   0.342  -0.488  0.00  0.00    +0.000 A 
ATOM     10  C   UNL     1       6.187   1.541  -0.561  0.00  0.00    +0.000 A 
ATOM     11  S   UNL     1       7.876   1.320  -0.744  0.00  0.00    +0.000 S 
ATOM     12  C   UNL     1       7.710  -0.384  -0.724  0.00  0.00    +0.000 A 
ATOM     13  C   UNL     1       6.395  -0.773  -0.580  0.00  0.00    +0.000 A 
ENDBRANCH   2   9
TORSDOF 2
