MODEL 1
REMARK VINA RESULT:      -4.2      0.000      0.000
REMARK  Name = *****
REMARK  4 active torsions:
REMARK  status: ('A' for Active; 'I' for Inactive)
REMARK    1  A    between atoms: C_1  and  C_2
REMARK    2  A    between atoms: C_4  and  C_7
REMARK    3  A    between atoms: C_8  and  C_9
REMARK    4  A    between atoms: C_12  and  C_14
REMARK                            x       y       z     vdW  Elec       q    Type
REMARK                         _______ _______ _______ _____ _____    ______ ____
ROOT
ATOM      1  C   UNL     1     101.962 126.281  81.951  0.00  0.00    +0.000 C 
ATOM      2  C   UNL     1     102.861 125.652  81.463  0.00  0.00    +0.000 C 
ENDROOT
BRANCH   1   6
ATOM      3  C   UNL     1      99.585 129.952  84.540  0.00  0.00    +0.000 C 
ATOM      4  C   UNL     1      99.841 128.731  83.727  0.00  0.00    +0.000 A 
ATOM      5  C   UNL     1     101.049 128.224  83.290  0.00  0.00    +0.000 A 
ATOM      6  C   UNL     1     100.892 127.030  82.531  0.00  0.00    +0.000 A 
ATOM      7  C   UNL     1      99.571 126.663  82.412  0.00  0.00    +0.000 A 
ATOM      8  S   UNL     1      98.527 127.757  83.214  0.00  0.00    +0.000 S 
ENDBRANCH   1   6
BRANCH   2   9
ATOM      9  C   UNL     1     103.927 124.903  80.876  0.00  0.00    +0.000 A 
ATOM     10  C   UNL     1     104.315 123.665  81.333  0.00  0.00    +0.000 A 
ATOM     11  S   UNL     1     105.617 123.026  80.427  0.00  0.00    +0.000 S 
ATOM     12  C   UNL     1     105.671 124.404  79.413  0.00  0.00    +0.000 A 
ATOM     13  C   UNL     1     104.710 125.332  79.767  0.00  0.00    +0.000 A 
ATOM     14  C   UNL     1     106.671 124.498  78.312  0.00  0.00    +0.000 C 
ENDBRANCH   2   9
TORSDOF 2
ENDMDL
