MODEL 1
REMARK VINA RESULT:      -4.2      0.000      0.000
REMARK  Name = *****
REMARK  2 active torsions:
REMARK  status: ('A' for Active; 'I' for Inactive)
REMARK    1  A    between atoms: C_3  and  C_6
REMARK    2  A    between atoms: N_7  and  C_8
REMARK                            x       y       z     vdW  Elec       q    Type
REMARK                         _______ _______ _______ _____ _____    ______ ____
ROOT
ATOM      1  C   UNL     1      88.844  68.771  86.898  0.00  0.00    +0.000 C 
ATOM      2  N   UNL     1      89.986  68.220  86.629  0.00  0.00    +0.000 NA
ENDROOT
BRANCH   2   3
ATOM      3  C   UNL     1      89.967  66.843  86.364  0.00  0.00    +0.000 A 
ATOM      4  C   UNL     1      90.935  66.246  85.551  0.00  0.00    +0.000 A 
ATOM      5  C   UNL     1      90.901  64.872  85.325  0.00  0.00    +0.000 A 
ATOM      6  C   UNL     1      89.917  64.079  85.913  0.00  0.00    +0.000 A 
ATOM      7  C   UNL     1      88.962  64.667  86.742  0.00  0.00    +0.000 A 
ATOM      8  C   UNL     1      88.993  66.044  86.967  0.00  0.00    +0.000 A 
ATOM      9 CL   UNL     1      92.086  64.145  84.309  0.00  0.00    +0.000 Cl
ENDBRANCH   2   3
BRANCH   1  12
ATOM     10  C   UNL     1      87.426  71.050  88.929  0.00  0.00    +0.000 C 
ATOM     11  C   UNL     1      88.619  70.494  88.661  0.00  0.00    +0.000 C 
ATOM     12  C   UNL     1      88.747  70.255  87.182  0.00  0.00    +0.000 C 
ATOM     13  C   UNL     1      87.431  70.777  86.672  0.00  0.00    +0.000 C 
ATOM     14  C   UNL     1      86.693  71.225  87.698  0.00  0.00    +0.000 C 
ENDBRANCH   1  12
TORSDOF 2
ENDMDL
