MODEL 1
REMARK VINA RESULT:      -4.0      0.000      0.000
REMARK  Name = *****
REMARK  3 active torsions:
REMARK  status: ('A' for Active; 'I' for Inactive)
REMARK    1  A    between atoms: C_4  and  C_7
REMARK    2  A    between atoms: C_7  and  O_9
REMARK    3  A    between atoms: O_9  and  C_10
REMARK                            x       y       z     vdW  Elec       q    Type
REMARK                         _______ _______ _______ _____ _____    ______ ____
ROOT
ATOM      1  C   UNL     1     102.026 125.908  82.788  0.00  0.00    +0.000 C 
ATOM      2  O   UNL     1     102.599 125.431  83.755  0.00  0.00    +0.000 OA
ENDROOT
BRANCH   1   6
ATOM      3  C   UNL     1      99.054 128.976  83.234  0.00  0.00    +0.000 A 
ATOM      4  C   UNL     1      98.705 127.776  82.618  0.00  0.00    +0.000 A 
ATOM      5  C   UNL     1      99.654 126.764  82.462  0.00  0.00    +0.000 A 
ATOM      6  C   UNL     1     100.966 126.949  82.925  0.00  0.00    +0.000 A 
ATOM      7  C   UNL     1     101.308 128.161  83.543  0.00  0.00    +0.000 A 
ATOM      8  C   UNL     1     100.355 129.169  83.697  0.00  0.00    +0.000 A 
ENDBRANCH   1   6
BRANCH   1   9
ATOM      9  O   UNL     1     102.204 125.616  81.488  0.00  0.00    +0.000 OA
BRANCH   9  10
ATOM     10  C   UNL     1     103.400 125.548  80.920  0.00  0.00    +0.000 A 
ATOM     11  C   UNL     1     104.164 124.483  80.474  0.00  0.00    +0.000 A 
ATOM     12  C   UNL     1     105.418 124.879  79.920  0.00  0.00    +0.000 A 
ATOM     13  C   UNL     1     105.584 126.241  79.956  0.00  0.00    +0.000 A 
ATOM     14  S   UNL     1     104.241 127.027  80.655  0.00  0.00    +0.000 S 
ENDBRANCH   9  10
ENDBRANCH   1   9
TORSDOF 3
ENDMDL
