MODEL 1
REMARK VINA RESULT:      -4.2      0.000      0.000
REMARK  Name = *****
REMARK  5 active torsions:
REMARK  status: ('A' for Active; 'I' for Inactive)
REMARK    1  A    between atoms: C_1  and  C_2
REMARK    2  A    between atoms: C_5  and  S_8
REMARK    3  A    between atoms: S_8  and  O_9
REMARK    4  A    between atoms: O_9  and  C_10
REMARK    5  A    between atoms: C_10  and  C_11
REMARK                            x       y       z     vdW  Elec       q    Type
REMARK                         _______ _______ _______ _____ _____    ______ ____
ROOT
ATOM      1  S   UNL     1     105.114 124.390  79.918  0.00  0.00    +0.000 S 
ENDROOT
BRANCH   1   6
ATOM      2  C   UNL     1     104.039 119.982  84.001  0.00  0.00    +0.000 C 
ATOM      3  C   UNL     1     104.335 121.068  83.010  0.00  0.00    +0.000 A 
ATOM      4  C   UNL     1     104.419 122.401  83.424  0.00  0.00    +0.000 A 
ATOM      5  C   UNL     1     104.659 123.418  82.495  0.00  0.00    +0.000 A 
ATOM      6  C   UNL     1     104.811 123.118  81.138  0.00  0.00    +0.000 A 
ATOM      7  C   UNL     1     104.704 121.788  80.720  0.00  0.00    +0.000 A 
ATOM      8  C   UNL     1     104.464 120.770  81.648  0.00  0.00    +0.000 A 
ENDBRANCH   1   6
BRANCH   1   9
ATOM      9  O   UNL     1     103.672 125.217  80.040  0.00  0.00    +0.000 OA
BRANCH   9  10
ATOM     10  C   UNL     1     103.814 126.603  80.346  0.00  0.00    +0.000 C 
BRANCH  10  11
ATOM     11  C   UNL     1     102.968 126.905  81.556  0.00  0.00    +0.000 A 
ATOM     12  C   UNL     1     102.025 125.974  82.013  0.00  0.00    +0.000 A 
ATOM     13  C   UNL     1     101.229 126.261  83.123  0.00  0.00    +0.000 A 
ATOM     14  C   UNL     1     101.363 127.481  83.781  0.00  0.00    +0.000 A 
ATOM     15  C   UNL     1     102.287 128.420  83.327  0.00  0.00    +0.000 A 
ATOM     16  C   UNL     1     103.084 128.136  82.217  0.00  0.00    +0.000 A 
ENDBRANCH  10  11
ENDBRANCH   9  10
ENDBRANCH   1   9
TORSDOF 4
ENDMDL
