MODEL 1
REMARK VINA RESULT:      -4.3      0.000      0.000
REMARK  Name = *****
REMARK  4 active torsions:
REMARK  status: ('A' for Active; 'I' for Inactive)
REMARK    1  A    between atoms: N_2  and  C_3
REMARK    2  A    between atoms: C_7  and  C_9
REMARK    3  A    between atoms: C_9  and  O_11
REMARK    4  A    between atoms: O_11  and  C_12
REMARK                            x       y       z     vdW  Elec       q    Type
REMARK                         _______ _______ _______ _____ _____    ______ ____
ROOT
ATOM      1  C   UNL     1     102.771 125.217  82.626  0.00  0.00    +0.000 C 
ATOM      2  O   UNL     1     102.836 124.905  83.805  0.00  0.00    +0.000 OA
ENDROOT
BRANCH   1   7
ATOM      3  C   UNL     1     105.387 123.146  80.896  0.00  0.00    +0.000 A 
ATOM      4  C   UNL     1     105.666 123.883  79.747  0.00  0.00    +0.000 A 
ATOM      5  C   UNL     1     104.990 125.083  79.528  0.00  0.00    +0.000 A 
ATOM      6  C   UNL     1     104.045 125.532  80.457  0.00  0.00    +0.000 A 
ATOM      7  C   UNL     1     103.769 124.782  81.612  0.00  0.00    +0.000 A 
ATOM      8  C   UNL     1     104.449 123.578  81.832  0.00  0.00    +0.000 A 
BRANCH   3  10
ATOM      9  C   UNL     1     106.631 120.945  81.296  0.00  0.00    +0.000 C 
ATOM     10  N   UNL     1     106.059 121.952  81.113  0.00  0.00    +0.000 NA
ENDBRANCH   3  10
ENDBRANCH   1   7
BRANCH   1  11
ATOM     11  O   UNL     1     101.811 125.982  82.053  0.00  0.00    +0.000 OA
BRANCH  11  12
ATOM     12  C   UNL     1     100.986 126.743  82.954  0.00  0.00    +0.000 C 
ATOM     13  C   UNL     1      99.561 126.836  82.399  0.00  0.00    +0.000 C 
ATOM     14  C   UNL     1      98.690 127.768  83.235  0.00  0.00    +0.000 C 
ATOM     15  C   UNL     1      99.320 129.151  83.376  0.00  0.00    +0.000 C 
ATOM     16  C   UNL     1     100.744 129.069  83.919  0.00  0.00    +0.000 C 
ATOM     17  C   UNL     1     101.610 128.135  83.081  0.00  0.00    +0.000 C 
ENDBRANCH  11  12
ENDBRANCH   1  11
TORSDOF 4
ENDMDL
