REMARK  Name = *****
REMARK  2 active torsions:
REMARK  status: ('A' for Active; 'I' for Inactive)
REMARK    1  A    between atoms: C_1  and  C_2
REMARK    2  A    between atoms: C_5  and  C_8
REMARK                            x       y       z     vdW  Elec       q    Type
REMARK                         _______ _______ _______ _____ _____    ______ ____
ROOT
ATOM      1  C   UNL     1      -3.242  -0.140   0.101  0.00  0.00    +0.000 C 
ATOM      2  S   UNL     1      -3.924  -1.024  -1.349  0.00  0.00    +0.000 S 
ATOM      3  C   UNL     1      -4.770  -2.288  -0.439  0.00  0.00    +0.000 A 
ATOM      4  C   UNL     1      -5.436  -3.340  -1.067  0.00  0.00    +0.000 A 
ATOM      5  C   UNL     1      -6.083  -4.305  -0.294  0.00  0.00    +0.000 A 
ATOM      6  C   UNL     1      -6.065  -4.216   1.100  0.00  0.00    +0.000 A 
ATOM      7  C   UNL     1      -5.399  -3.160   1.726  0.00  0.00    +0.000 A 
ATOM      8  C   UNL     1      -4.752  -2.199   0.952  0.00  0.00    +0.000 A 
ATOM      9  S   UNL     1      -3.885  -0.829   1.670  0.00  0.00    +0.000 S 
ENDROOT
BRANCH   1  14
ATOM     10  C   UNL     1       2.598   0.105  -0.027  0.00  0.00    +0.000 C 
ATOM     11  C   UNL     1       1.101   0.041   0.034  0.00  0.00    +0.000 A 
ATOM     12  C   UNL     1       0.332   1.205  -0.060  0.00  0.00    +0.000 A 
ATOM     13  C   UNL     1      -1.064   1.139  -0.034  0.00  0.00    +0.000 A 
ATOM     14  C   UNL     1      -1.725  -0.096   0.077  0.00  0.00    +0.000 A 
ATOM     15  C   UNL     1      -0.944  -1.262   0.155  0.00  0.00    +0.000 A 
ATOM     16  C   UNL     1       0.451  -1.194   0.129  0.00  0.00    +0.000 A 
ENDBRANCH   1  14
TORSDOF 1
