REMARK  Name = *****
REMARK  3 active torsions:
REMARK  status: ('A' for Active; 'I' for Inactive)
REMARK    1  A    between atoms: C_4  and  C_7
REMARK    2  A    between atoms: C_7  and  N_8
REMARK    3  A    between atoms: N_8  and  C_9
REMARK                            x       y       z     vdW  Elec       q    Type
REMARK                         _______ _______ _______ _____ _____    ______ ____
ROOT
ATOM      1  C   UNL     1       2.748  -0.793  -0.350  0.00  0.00    +0.000 C 
ENDROOT
BRANCH   1   5
ATOM      2  C   UNL     1      -0.925   1.415   0.194  0.00  0.00    +0.000 C 
ATOM      3  C   UNL     1      -1.011   0.020  -0.418  0.00  0.00    +0.000 C 
ATOM      4  C   UNL     1       0.351  -0.467  -0.904  0.00  0.00    +0.000 C 
ATOM      5  C   UNL     1       1.399  -0.408   0.211  0.00  0.00    +0.000 C 
ATOM      6  C   UNL     1       1.485   0.993   0.820  0.00  0.00    +0.000 C 
ATOM      7  C   UNL     1       0.121   1.479   1.304  0.00  0.00    +0.000 C 
ENDBRANCH   1   5
BRANCH   1   8
ATOM      8  N   UNL     1       3.389  -1.800   0.131  0.00  0.00    +0.000 NA
BRANCH   8   9
ATOM      9  C   UNL     1       4.687  -2.063  -0.505  0.00  0.00    +0.000 C 
ATOM     10  C   UNL     1       4.949  -3.572  -0.431  0.00  0.00    +0.000 C 
ATOM     11  C   UNL     1       6.340  -3.927  -0.950  0.00  0.00    +0.000 C 
ATOM     12  C   UNL     1       7.428  -3.142  -0.224  0.00  0.00    +0.000 C 
ATOM     13  C   UNL     1       7.171  -1.638  -0.284  0.00  0.00    +0.000 C 
ATOM     14  C   UNL     1       5.780  -1.284   0.234  0.00  0.00    +0.000 C 
ENDBRANCH   8   9
ENDBRANCH   1   8
TORSDOF 3
