MODEL 1
REMARK VINA RESULT:      -4.9      0.000      0.000
REMARK  Name = *****
REMARK  2 active torsions:
REMARK  status: ('A' for Active; 'I' for Inactive)
REMARK    1  A    between atoms: C_8  and  C_9
REMARK    2  A    between atoms: C_10  and  C_11
REMARK                            x       y       z     vdW  Elec       q    Type
REMARK                         _______ _______ _______ _____ _____    ______ ____
ROOT
ATOM      1  C   UNL     1      99.196 128.860  83.457  0.00  0.00    +0.000 C 
ATOM      2  C   UNL     1      98.590 127.757  82.566  0.00  0.00    +0.000 C 
ATOM      3  C   UNL     1      97.588 127.235  83.588  0.00  0.00    +0.000 C 
ATOM      4  C   UNL     1      98.187 127.297  84.792  0.00  0.00    +0.000 C 
ATOM      5  C   UNL     1      99.585 127.859  84.562  0.00  0.00    +0.000 C 
ATOM      6  C   UNL     1     100.412 126.811  83.802  0.00  0.00    +0.000 C 
ATOM      7  C   UNL     1      99.738 126.742  82.447  0.00  0.00    +0.000 C 
ATOM      8  C   UNL     1     101.213 127.076  82.544  0.00  0.00    +0.000 C 
ENDROOT
BRANCH   8   9
ATOM      9  C   UNL     1     102.178 126.058  82.106  0.00  0.00    +0.000 C 
ATOM     10  C   UNL     1     103.122 126.243  81.169  0.00  0.00    +0.000 C 
BRANCH  10  11
ATOM     11  C   UNL     1     104.082 125.216  80.743  0.00  0.00    +0.000 A 
ATOM     12  C   UNL     1     104.118 123.940  81.323  0.00  0.00    +0.000 A 
ATOM     13  C   UNL     1     105.025 122.978  80.870  0.00  0.00    +0.000 A 
ATOM     14  C   UNL     1     105.898 123.279  79.826  0.00  0.00    +0.000 A 
ATOM     15  C   UNL     1     105.861 124.539  79.232  0.00  0.00    +0.000 A 
ATOM     16  C   UNL     1     104.954 125.499  79.684  0.00  0.00    +0.000 A 
ENDBRANCH  10  11
ENDBRANCH   8   9
TORSDOF 2
ENDMDL
