MODEL 1
REMARK VINA RESULT:      -4.4      0.000      0.000
REMARK  Name = *****
REMARK  1 active torsions:
REMARK  status: ('A' for Active; 'I' for Inactive)
REMARK    1  A    between atoms: C_4  and  C_7
REMARK                            x       y       z     vdW  Elec       q    Type
REMARK                         _______ _______ _______ _____ _____    ______ ____
ROOT
ATOM      1  C   UNL     1     102.265 126.110  82.430  0.00  0.00    +0.000 A 
ATOM      2  C   UNL     1     102.773 125.756  81.178  0.00  0.00    +0.000 A 
ATOM      3  C   UNL     1     103.780 124.800  81.336  0.00  0.00    +0.000 A 
ATOM      4  C   UNL     1     104.028 124.437  82.599  0.00  0.00    +0.000 A 
ATOM      5  S   UNL     1     103.060 125.222  83.709  0.00  0.00    +0.000 S 
ATOM      6  S   UNL     1     105.238 123.291  82.729  0.00  0.00    +0.000 S 
ATOM      7  C   UNL     1     105.435 123.288  81.000  0.00  0.00    +0.000 A 
ATOM      8  C   UNL     1     104.566 124.166  80.367  0.00  0.00    +0.000 A 
ENDROOT
BRANCH   1  12
ATOM      9  C   UNL     1      99.103 128.860  83.314  0.00  0.00    +0.000 A 
ATOM     10  C   UNL     1      98.827 127.649  82.684  0.00  0.00    +0.000 A 
ATOM     11  C   UNL     1      99.864 126.754  82.401  0.00  0.00    +0.000 A 
ATOM     12  C   UNL     1     101.189 127.058  82.749  0.00  0.00    +0.000 A 
ATOM     13  C   UNL     1     101.451 128.284  83.377  0.00  0.00    +0.000 A 
ATOM     14  C   UNL     1     100.414 129.178  83.660  0.00  0.00    +0.000 A 
ENDBRANCH   1  12
TORSDOF 1
ENDMDL
