MODEL 1
REMARK VINA RESULT:      -4.4      0.000      0.000
REMARK  Name = *****
REMARK  2 active torsions:
REMARK  status: ('A' for Active; 'I' for Inactive)
REMARK    1  A    between atoms: C_4  and  S_7
REMARK    2  A    between atoms: S_7  and  P_8
REMARK                            x       y       z     vdW  Elec       q    Type
REMARK                         _______ _______ _______ _____ _____    ______ ____
ROOT
ATOM      1  P   UNL     1      89.978  66.082  85.185  0.00  0.00    +0.000 P 
ATOM      2  S   UNL     1      91.610  65.011  85.121  0.00  0.00    +0.000 S 
ATOM      3  O   UNL     1      89.976  67.303  84.072  0.00  0.00    +0.000 OA
ATOM      4  C   UNL     1      89.882  68.497  84.728  0.00  0.00    +0.000 A 
ATOM      5  C   UNL     1      89.817  69.733  84.122  0.00  0.00    +0.000 A 
ATOM      6  C   UNL     1      89.724  70.854  84.951  0.00  0.00    +0.000 A 
ATOM      7  C   UNL     1      89.700  70.714  86.352  0.00  0.00    +0.000 A 
ATOM      8  C   UNL     1      89.771  69.450  86.946  0.00  0.00    +0.000 A 
ATOM      9  C   UNL     1      89.860  68.358  86.110  0.00  0.00    +0.000 A 
ATOM     10  O   UNL     1      89.938  67.057  86.519  0.00  0.00    +0.000 OA
ENDROOT
BRANCH   1  11
ATOM     11  S   UNL     1      88.077  65.152  85.098  0.00  0.00    +0.000 S 
BRANCH  11  15
ATOM     12  C   UNL     1      87.549  64.590  89.606  0.00  0.00    +0.000 A 
ATOM     13  C   UNL     1      86.772  65.525  88.923  0.00  0.00    +0.000 A 
ATOM     14  C   UNL     1      86.938  65.698  87.547  0.00  0.00    +0.000 A 
ATOM     15  C   UNL     1      87.874  64.930  86.849  0.00  0.00    +0.000 A 
ATOM     16  C   UNL     1      88.661  64.006  87.541  0.00  0.00    +0.000 A 
ATOM     17  C   UNL     1      88.494  63.833  88.917  0.00  0.00    +0.000 A 
ENDBRANCH  11  15
ENDBRANCH   1  11
TORSDOF 2
ENDMDL
