REMARK  Name = *****
REMARK  4 active torsions:
REMARK  status: ('A' for Active; 'I' for Inactive)
REMARK    1  A    between atoms: C_1  and  C_2
REMARK    2  A    between atoms: C_5  and  S_8
REMARK    3  A    between atoms: S_8  and  O_10
REMARK    4  A    between atoms: O_10  and  C_11
REMARK                            x       y       z     vdW  Elec       q    Type
REMARK                         _______ _______ _______ _____ _____    ______ ____
ROOT
ATOM      1  S   UNL     1      -4.833   3.843   0.252  0.00  0.00    +0.000 S 
ATOM      2  O   UNL     1      -5.558   4.710  -0.734  0.00  0.00    +0.000 OA
ENDROOT
BRANCH   1   7
ATOM      3  C   UNL     1       0.972   3.486  -1.659  0.00  0.00    +0.000 C 
ATOM      4  C   UNL     1      -0.446   3.605  -1.184  0.00  0.00    +0.000 A 
ATOM      5  C   UNL     1      -0.829   3.052   0.044  0.00  0.00    +0.000 A 
ATOM      6  C   UNL     1      -2.157   3.130   0.471  0.00  0.00    +0.000 A 
ATOM      7  C   UNL     1      -3.122   3.752  -0.330  0.00  0.00    +0.000 A 
ATOM      8  C   UNL     1      -2.744   4.294  -1.561  0.00  0.00    +0.000 A 
ATOM      9  C   UNL     1      -1.416   4.215  -1.989  0.00  0.00    +0.000 A 
ENDBRANCH   1   7
BRANCH   1  10
ATOM     10  O   UNL     1      -5.130   2.314  -0.165  0.00  0.00    +0.000 OA
BRANCH  10  11
ATOM     11  C   UNL     1      -5.768   1.530   0.836  0.00  0.00    +0.000 C 
ATOM     12  C   UNL     1      -7.299   1.712   0.806  0.00  0.00    +0.000 C 
ATOM     13  C   UNL     1      -7.811   0.300   0.467  0.00  0.00    +0.000 C 
ATOM     14  C   UNL     1      -7.568  -0.626   1.671  0.00  0.00    +0.000 C 
ATOM     15  C   UNL     1      -6.045  -0.821   1.657  0.00  0.00    +0.000 C 
ATOM     16  C   UNL     1      -5.600   0.039   0.464  0.00  0.00    +0.000 C 
ATOM     17  C   UNL     1      -6.752  -0.183  -0.520  0.00  0.00    +0.000 C 
ENDBRANCH  10  11
ENDBRANCH   1  10
TORSDOF 3
