REMARK  Name = *****
REMARK  1 active torsions:
REMARK  status: ('A' for Active; 'I' for Inactive)
REMARK    1  A    between atoms: C_4  and  C_7
REMARK                            x       y       z     vdW  Elec       q    Type
REMARK                         _______ _______ _______ _____ _____    ______ ____
ROOT
ATOM      1  C   UNL     1      -2.994   0.568  -0.208  0.00  0.00    +0.000 A 
ATOM      2  N   UNL     1      -3.989  -0.319  -0.209  0.00  0.00    +0.000 NA
ATOM      3  C   UNL     1      -5.077   0.479  -0.278  0.00  0.00    +0.000 A 
ATOM      4  C   UNL     1      -4.743   1.777  -0.317  0.00  0.00    +0.000 A 
ATOM      5  O   UNL     1      -3.400   1.895  -0.274  0.00  0.00    +0.000 OA
ATOM      6  S   UNL     1      -6.021   2.836  -0.402  0.00  0.00    +0.000 S 
ATOM      7  C   UNL     1      -7.121   1.477  -0.388  0.00  0.00    +0.000 A 
ATOM      8  C   UNL     1      -6.457   0.255  -0.317  0.00  0.00    +0.000 A 
ENDROOT
BRANCH   1  12
ATOM      9  C   UNL     1       1.208  -0.195  -0.030  0.00  0.00    +0.000 A 
ATOM     10  C   UNL     1       0.299  -1.250  -0.033  0.00  0.00    +0.000 A 
ATOM     11  C   UNL     1      -1.072  -0.989  -0.091  0.00  0.00    +0.000 A 
ATOM     12  C   UNL     1      -1.553   0.328  -0.148  0.00  0.00    +0.000 A 
ATOM     13  C   UNL     1      -0.624   1.379  -0.144  0.00  0.00    +0.000 A 
ATOM     14  C   UNL     1       0.748   1.119  -0.086  0.00  0.00    +0.000 A 
ENDBRANCH   1  12
TORSDOF 1
