REMARK  Name = *****
REMARK  3 active torsions:
REMARK  status: ('A' for Active; 'I' for Inactive)
REMARK    1  A    between atoms: C_1  and  C_2
REMARK    2  A    between atoms: C_7  and  C_8
REMARK    3  A    between atoms: C_10  and  C_11
REMARK                            x       y       z     vdW  Elec       q    Type
REMARK                         _______ _______ _______ _____ _____    ______ ____
ROOT
ATOM      1  C   UNL     1       1.374  -2.137  -0.649  0.00  0.00    +0.000 C 
ATOM      2  C   UNL     1       2.563  -1.825  -1.522  0.00  0.00    +0.000 C 
ATOM      3  C   UNL     1       2.791  -2.283  -0.106  0.00  0.00    +0.000 C 
ENDROOT
BRANCH   1  10
ATOM      4  C   UNL     1      -0.305  -0.487  -2.519  0.00  0.00    +0.000 C 
ATOM      5  C   UNL     1      -0.325  -0.247  -1.032  0.00  0.00    +0.000 A 
ATOM      6  C   UNL     1      -1.133   0.787  -0.527  0.00  0.00    +0.000 A 
ATOM      7  C   UNL     1      -1.187   1.047   0.840  0.00  0.00    +0.000 A 
ATOM      8  C   UNL     1      -0.433   0.278   1.717  0.00  0.00    +0.000 A 
ATOM      9  C   UNL     1       0.382  -0.741   1.222  0.00  0.00    +0.000 A 
ATOM     10  C   UNL     1       0.475  -1.018  -0.157  0.00  0.00    +0.000 A 
ENDBRANCH   1  10
BRANCH   3  11
ATOM     11  C   UNL     1       3.352  -3.658   0.167  0.00  0.00    +0.000 A 
ATOM     12  C   UNL     1       4.587  -4.060  -0.372  0.00  0.00    +0.000 A 
ATOM     13  C   UNL     1       5.119  -5.326  -0.109  0.00  0.00    +0.000 A 
ATOM     14  C   UNL     1       4.423  -6.211   0.707  0.00  0.00    +0.000 A 
ATOM     15  C   UNL     1       3.204  -5.839   1.263  0.00  0.00    +0.000 A 
ATOM     16  C   UNL     1       2.678  -4.571   0.996  0.00  0.00    +0.000 A 
ATOM     17 CL   UNL     1       5.074  -7.769   1.034  0.00  0.00    +0.000 Cl
ENDBRANCH   3  11
TORSDOF 2
