MODEL 1
REMARK VINA RESULT:      -4.6      0.000      0.000
REMARK  Name = *****
REMARK  2 active torsions:
REMARK  status: ('A' for Active; 'I' for Inactive)
REMARK    1  A    between atoms: C_4  and  C_7
REMARK    2  A    between atoms: C_8  and  C_9
REMARK                            x       y       z     vdW  Elec       q    Type
REMARK                         _______ _______ _______ _____ _____    ______ ____
ROOT
ATOM      1  C   UNL     1     102.098 126.022  82.038  0.00  0.00    +0.000 C 
ATOM      2  C   UNL     1     103.139 126.300  81.234  0.00  0.00    +0.000 C 
ENDROOT
BRANCH   1   6
ATOM      3  C   UNL     1      99.238 129.063  83.228  0.00  0.00    +0.000 C 
ATOM      4  C   UNL     1     100.526 128.978  84.036  0.00  0.00    +0.000 C 
ATOM      5  C   UNL     1     101.619 128.232  83.263  0.00  0.00    +0.000 C 
ATOM      6  C   UNL     1     101.130 126.982  82.561  0.00  0.00    +0.000 C 
ATOM      7  C   UNL     1      99.813 126.738  82.416  0.00  0.00    +0.000 C 
ATOM      8  C   UNL     1      98.727 127.668  82.876  0.00  0.00    +0.000 C 
ENDBRANCH   1   6
BRANCH   2   9
ATOM      9  C   UNL     1     104.101 125.339  80.706  0.00  0.00    +0.000 C 
ATOM     10  C   UNL     1     104.038 124.051  81.103  0.00  0.00    +0.000 C 
ATOM     11  C   UNL     1     104.995 122.984  80.661  0.00  0.00    +0.000 C 
ATOM     12  C   UNL     1     106.243 123.539  79.979  0.00  0.00    +0.000 C 
ATOM     13  C   UNL     1     105.878 124.649  79.004  0.00  0.00    +0.000 C 
ATOM     14  C   UNL     1     105.151 125.796  79.714  0.00  0.00    +0.000 C 
ENDBRANCH   2   9
TORSDOF 2
ENDMDL
