REMARK  Name = *****
REMARK  3 active torsions:
REMARK  status: ('A' for Active; 'I' for Inactive)
REMARK    1  A    between atoms: C_1  and  C_2
REMARK    2  A    between atoms: C_2  and  C_10
REMARK    3  A    between atoms: C_3  and  C_4
REMARK                            x       y       z     vdW  Elec       q    Type
REMARK                         _______ _______ _______ _____ _____    ______ ____
ROOT
ATOM      1  C   UNL     1       0.936  -0.201   0.126  0.00  0.00    +0.000 C 
ATOM      2  C   UNL     1       2.450  -0.145   0.038  0.00  0.00    +0.000 C 
ATOM      3  C   UNL     1       3.081   0.709  -0.802  0.00  0.00    +0.000 C 
ENDROOT
BRANCH   3   4
ATOM      4  C   UNL     1       2.423   1.678  -1.682  0.00  0.00    +0.000 A 
ATOM      5  C   UNL     1       1.957   2.895  -1.172  0.00  0.00    +0.000 A 
ATOM      6  C   UNL     1       1.331   3.815  -2.016  0.00  0.00    +0.000 A 
ATOM      7  C   UNL     1       1.168   3.522  -3.369  0.00  0.00    +0.000 A 
ATOM      8  C   UNL     1       1.632   2.311  -3.882  0.00  0.00    +0.000 A 
ATOM      9  C   UNL     1       2.259   1.390  -3.041  0.00  0.00    +0.000 A 
ENDBRANCH   3   4
BRANCH   2  10
ATOM     10  C   UNL     1       3.299  -1.003   0.832  0.00  0.00    +0.000 A 
ATOM     11  C   UNL     1       4.475  -1.658   0.489  0.00  0.00    +0.000 A 
ATOM     12  C   UNL     1       5.029  -2.422   1.557  0.00  0.00    +0.000 A 
ATOM     13  C   UNL     1       4.263  -2.342   2.694  0.00  0.00    +0.000 A 
ATOM     14  S   UNL     1       2.887  -1.357   2.472  0.00  0.00    +0.000 S 
ENDBRANCH   2  10
TORSDOF 2
