MODEL 1
REMARK VINA RESULT:      -4.1      0.000      0.000
REMARK  Name = *****
REMARK  3 active torsions:
REMARK  status: ('A' for Active; 'I' for Inactive)
REMARK    1  A    between atoms: C_4  and  C_7
REMARK    2  A    between atoms: C_8  and  C_9
REMARK    3  A    between atoms: C_9  and  C_10
REMARK                            x       y       z     vdW  Elec       q    Type
REMARK                         _______ _______ _______ _____ _____    ______ ____
ROOT
ATOM      1  C   UNL     1     101.871 125.958  82.309  0.00  0.00    +0.000 C 
ATOM      2  C   UNL     1     102.810 125.508  83.157  0.00  0.00    +0.000 C 
ENDROOT
BRANCH   1   6
ATOM      3  C   UNL     1      99.037 128.979  83.384  0.00  0.00    +0.000 A 
ATOM      4  C   UNL     1      98.599 127.829  82.730  0.00  0.00    +0.000 A 
ATOM      5  C   UNL     1      99.515 126.839  82.365  0.00  0.00    +0.000 A 
ATOM      6  C   UNL     1     100.879 126.991  82.643  0.00  0.00    +0.000 A 
ATOM      7  C   UNL     1     101.305 128.144  83.317  0.00  0.00    +0.000 A 
ATOM      8  C   UNL     1     100.389 129.135  83.681  0.00  0.00    +0.000 A 
ENDBRANCH   1   6
BRANCH   2   9
ATOM      9  C   UNL     1     103.818 124.445  82.810  0.00  0.00    +0.000 C 
BRANCH   9  10
ATOM     10  C   UNL     1     104.629 124.751  81.582  0.00  0.00    +0.000 A 
ATOM     11  C   UNL     1     104.570 124.138  80.346  0.00  0.00    +0.000 A 
ATOM     12  C   UNL     1     105.496 124.696  79.418  0.00  0.00    +0.000 A 
ATOM     13  C   UNL     1     106.231 125.716  79.977  0.00  0.00    +0.000 A 
ATOM     14  S   UNL     1     105.807 125.996  81.608  0.00  0.00    +0.000 S 
ENDBRANCH   9  10
ENDBRANCH   2   9
TORSDOF 3
ENDMDL
