MODEL 1
REMARK VINA RESULT:      -4.7      0.000      0.000
REMARK  Name = *****
REMARK  5 active torsions:
REMARK  status: ('A' for Active; 'I' for Inactive)
REMARK    1  A    between atoms: C_1  and  O_2
REMARK    2  A    between atoms: O_2  and  C_3
REMARK    3  A    between atoms: C_4  and  C_5
REMARK    4  A    between atoms: C_10  and  C_11
REMARK    5  A    between atoms: C_12  and  C_13
REMARK                            x       y       z     vdW  Elec       q    Type
REMARK                         _______ _______ _______ _____ _____    ______ ____
ROOT
ATOM      1  C   UNL     1      99.701 129.213  83.554  0.00  0.00    +0.000 A 
ATOM      2  C   UNL     1      99.080 130.332  84.136  0.00  0.00    +0.000 A 
ATOM      3  C   UNL     1      99.827 131.291  84.823  0.00  0.00    +0.000 A 
ATOM      4  C   UNL     1     101.206 131.144  84.945  0.00  0.00    +0.000 A 
ATOM      5  C   UNL     1     101.838 130.033  84.385  0.00  0.00    +0.000 A 
ATOM      6  C   UNL     1     101.095 129.065  83.695  0.00  0.00    +0.000 A 
ENDROOT
BRANCH   1   8
ATOM      7  C   UNL     1      98.261 127.198  83.489  0.00  0.00    +0.000 C 
ATOM      8  C   UNL     1      98.883 128.203  82.863  0.00  0.00    +0.000 C 
BRANCH   7  10
ATOM      9  C   UNL     1      96.485 125.706  83.614  0.00  0.00    +0.000 C 
ATOM     10  O   UNL     1      97.496 126.293  82.800  0.00  0.00    +0.000 OA
ENDBRANCH   7  10
ENDBRANCH   1   8
BRANCH   6  11
ATOM     11  C   UNL     1     101.799 127.947  83.135  0.00  0.00    +0.000 C 
ATOM     12  C   UNL     1     102.393 127.016  82.662  0.00  0.00    +0.000 C 
BRANCH  12  13
ATOM     13  C   UNL     1     103.113 125.920  82.093  0.00  0.00    +0.000 A 
ATOM     14  C   UNL     1     103.413 125.911  80.729  0.00  0.00    +0.000 A 
ATOM     15  C   UNL     1     104.117 124.838  80.176  0.00  0.00    +0.000 A 
ATOM     16  C   UNL     1     104.520 123.776  80.986  0.00  0.00    +0.000 A 
ATOM     17  C   UNL     1     104.221 123.785  82.348  0.00  0.00    +0.000 A 
ATOM     18  C   UNL     1     103.517 124.855  82.903  0.00  0.00    +0.000 A 
ENDBRANCH  12  13
ENDBRANCH   6  11
TORSDOF 4
ENDMDL
