REMARK  Name = *****
REMARK  4 active torsions:
REMARK  status: ('A' for Active; 'I' for Inactive)
REMARK    1  A    between atoms: C_1  and  C_2
REMARK    2  A    between atoms: N_4  and  C_5
REMARK    3  A    between atoms: N_4  and  C_12
REMARK    4  A    between atoms: C_5  and  C_6
REMARK                            x       y       z     vdW  Elec       q    Type
REMARK                         _______ _______ _______ _____ _____    ______ ____
ROOT
ATOM      1  C   UNL     1       1.422   1.107  -1.206  0.00  0.00    +0.000 C 
ATOM      2  C   UNL     1       2.773   0.578  -0.789  0.00  0.00    +0.000 C 
ATOM      3  O   UNL     1       3.512   1.306  -0.121  0.00  0.00    +0.000 OA
ATOM      4  N   UNL     1       3.124  -0.729  -1.146  0.00  0.00    +0.000 N 
ENDROOT
BRANCH   4   5
ATOM      5  C   UNL     1       4.515  -1.139  -0.833  0.00  0.00    +0.000 C 
ATOM      6  C   UNL     1       5.462  -0.815  -2.003  0.00  0.00    +0.000 C 
ATOM      7  C   UNL     1       6.909  -1.179  -1.677  0.00  0.00    +0.000 C 
ATOM      8  C   UNL     1       7.041  -2.632  -1.233  0.00  0.00    +0.000 C 
ATOM      9  C   UNL     1       6.115  -2.947  -0.062  0.00  0.00    +0.000 C 
ATOM     10  C   UNL     1       4.661  -2.604  -0.386  0.00  0.00    +0.000 C 
ENDBRANCH   4   5
BRANCH   4  11
ATOM     11  C   UNL     1       2.367  -1.517  -2.133  0.00  0.00    +0.000 C 
BRANCH  11  12
ATOM     12  C   UNL     1       1.040  -2.117  -1.621  0.00  0.00    +0.000 C 
ATOM     13  C   UNL     1       1.238  -3.061  -0.426  0.00  0.00    +0.000 C 
ATOM     14  C   UNL     1      -0.077  -3.697   0.021  0.00  0.00    +0.000 C 
ATOM     15  C   UNL     1      -0.776  -4.415  -1.128  0.00  0.00    +0.000 C 
ATOM     16  C   UNL     1      -0.981  -3.489  -2.321  0.00  0.00    +0.000 C 
ATOM     17  C   UNL     1       0.331  -2.853  -2.772  0.00  0.00    +0.000 C 
ENDBRANCH  11  12
ENDBRANCH   4  11
TORSDOF 3
