MODEL 1
REMARK VINA RESULT:      -4.4      0.000      0.000
REMARK  Name = *****
REMARK  7 active torsions:
REMARK  status: ('A' for Active; 'I' for Inactive)
REMARK    1  A    between atoms: C_1  and  C_2
REMARK    2  A    between atoms: C_5  and  C_17
REMARK    3  A    between atoms: C_6  and  O_8
REMARK    4  A    between atoms: O_8  and  P_9
REMARK    5  A    between atoms: P_9  and  C_11
REMARK    6  A    between atoms: C_17  and  C_18
REMARK    7  A    between atoms: C_17  and  C_19
REMARK                            x       y       z     vdW  Elec       q    Type
REMARK                         _______ _______ _______ _____ _____    ______ ____
ROOT
ATOM      1  C   UNL     1      84.787  63.199  86.583  0.00  0.00    +0.000 C 
ATOM      2  C   UNL     1      85.521  62.605  87.789  0.00  0.00    +0.000 C 
ATOM      3  C   UNL     1      84.994  63.183  89.109  0.00  0.00    +0.000 C 
ATOM      4  C   UNL     1      85.538  64.579  89.410  0.00  0.00    +0.000 C 
ATOM      5  C   UNL     1      87.083  64.624  89.414  0.00  0.00    +0.000 C 
ATOM      6  C   UNL     1      87.602  64.135  88.034  0.00  0.00    +0.000 C 
ATOM      7  C   UNL     1      87.050  62.743  87.677  0.00  0.00    +0.000 C 
ENDROOT
BRANCH   5   8
ATOM      8  C   UNL     1      87.723  63.858  90.618  0.00  0.00    +0.000 C 
ATOM      9  C   UNL     1      89.258  63.860  90.549  0.00  0.00    +0.000 C 
ATOM     10  C   UNL     1      87.304  64.449  91.970  0.00  0.00    +0.000 C 
ENDBRANCH   5   8
BRANCH   6  11
ATOM     11  O   UNL     1      87.182  65.052  87.019  0.00  0.00    +0.000 OA
BRANCH  11  12
ATOM     12  P   UNL     1      88.319  65.710  86.068  0.00  0.00    +0.000 P 
ATOM     13  O   UNL     1      89.470  65.101  86.727  0.00  0.00    +0.000 OA
BRANCH  12  14
ATOM     14  C   UNL     1      88.387  67.376  86.844  0.00  0.00    +0.000 A 
ATOM     15  C   UNL     1      87.387  67.830  87.720  0.00  0.00    +0.000 A 
ATOM     16  C   UNL     1      87.447  69.110  88.276  0.00  0.00    +0.000 A 
ATOM     17  C   UNL     1      88.509  69.954  87.964  0.00  0.00    +0.000 A 
ATOM     18  C   UNL     1      89.512  69.521  87.098  0.00  0.00    +0.000 A 
ATOM     19  C   UNL     1      89.453  68.241  86.541  0.00  0.00    +0.000 A 
ENDBRANCH  12  14
ENDBRANCH  11  12
ENDBRANCH   6  11
TORSDOF 4
ENDMDL
