MODEL 1
REMARK VINA RESULT:      -4.5      0.000      0.000
REMARK  Name = *****
REMARK  4 active torsions:
REMARK  status: ('A' for Active; 'I' for Inactive)
REMARK    1  A    between atoms: C_2  and  O_3
REMARK    2  A    between atoms: O_3  and  C_4
REMARK    3  A    between atoms: C_9  and  C_10
REMARK    4  A    between atoms: C_11  and  C_12
REMARK                            x       y       z     vdW  Elec       q    Type
REMARK                         _______ _______ _______ _____ _____    ______ ____
ROOT
ATOM      1  C   UNL     1     104.388 123.483  82.271  0.00  0.00    +0.000 A 
ATOM      2  C   UNL     1     105.364 122.587  81.815  0.00  0.00    +0.000 A 
ATOM      3  C   UNL     1     105.912 122.742  80.541  0.00  0.00    +0.000 A 
ATOM      4  C   UNL     1     105.477 123.779  79.716  0.00  0.00    +0.000 A 
ATOM      5  C   UNL     1     104.487 124.658  80.159  0.00  0.00    +0.000 A 
ATOM      6  C   UNL     1     103.932 124.511  81.435  0.00  0.00    +0.000 A 
ENDROOT
BRANCH   6   7
ATOM      7  C   UNL     1     102.909 125.421  81.859  0.00  0.00    +0.000 C 
ATOM      8  C   UNL     1     102.052 126.184  82.212  0.00  0.00    +0.000 C 
BRANCH   8   9
ATOM      9  C   UNL     1     101.028 127.093  82.628  0.00  0.00    +0.000 A 
ATOM     10  C   UNL     1     101.367 128.270  83.300  0.00  0.00    +0.000 A 
ATOM     11  C   UNL     1     100.367 129.156  83.705  0.00  0.00    +0.000 A 
ATOM     12  C   UNL     1      99.028 128.867  83.438  0.00  0.00    +0.000 A 
ATOM     13  C   UNL     1      98.689 127.693  82.767  0.00  0.00    +0.000 A 
ATOM     14  C   UNL     1      99.688 126.805  82.361  0.00  0.00    +0.000 A 
ENDBRANCH   8   9
ENDBRANCH   6   7
BRANCH   1  15
ATOM     15  O   UNL     1     103.807 123.315  83.508  0.00  0.00    +0.000 OA
BRANCH  15  17
ATOM     16  C   UNL     1     105.438 123.763  85.395  0.00  0.00    +0.000 C 
ATOM     17  C   UNL     1     104.659 123.559  84.504  0.00  0.00    +0.000 C 
ENDBRANCH  15  17
ENDBRANCH   1  15
TORSDOF 4
ENDMDL
