MODEL 1
REMARK VINA RESULT:      -3.3      0.000      0.000
REMARK  Name = *****
REMARK  5 active torsions:
REMARK  status: ('A' for Active; 'I' for Inactive)
REMARK    1  A    between atoms: C_1  and  C_2
REMARK    2  A    between atoms: C_2  and  C_7
REMARK    3  A    between atoms: C_7  and  C_8
REMARK    4  A    between atoms: C_8  and  C_9
REMARK    5  A    between atoms: C_9  and  C_14
REMARK                            x       y       z     vdW  Elec       q    Type
REMARK                         _______ _______ _______ _____ _____    ______ ____
ROOT
ATOM      1  C   UNL     1     101.615 127.024  82.452  0.00  0.00    +0.000 C 
ENDROOT
BRANCH   1   3
ATOM      2  C   UNL     1     103.975 127.637  83.109  0.00  0.00    +0.000 C 
ATOM      3  C   UNL     1     103.114 126.673  82.282  0.00  0.00    +0.000 C 
ATOM      4  S   UNL     1     103.651 126.821  80.529  0.00  0.00    +0.000 S 
ATOM      5  C   UNL     1     103.952 125.059  80.235  0.00  0.00    +0.000 C 
ATOM      6  C   UNL     1     104.537 124.476  81.503  0.00  0.00    +0.000 C 
ATOM      7  S   UNL     1     103.461 124.967  82.872  0.00  0.00    +0.000 S 
ENDBRANCH   1   3
BRANCH   1   8
ATOM      8  C   UNL     1     101.294 128.285  83.286  0.00  0.00    +0.000 C 
BRANCH   8   9
ATOM      9  C   UNL     1      99.801 128.490  83.635  0.00  0.00    +0.000 C 
ATOM     10  S   UNL     1      98.723 127.425  82.587  0.00  0.00    +0.000 S 
ATOM     11  C   UNL     1      97.900 126.517  83.922  0.00  0.00    +0.000 C 
ATOM     12  C   UNL     1      98.884 126.357  85.061  0.00  0.00    +0.000 C 
ATOM     13  S   UNL     1      99.565 127.996  85.396  0.00  0.00    +0.000 S 
ATOM     14  C   UNL     1      99.346 129.944  83.494  0.00  0.00    +0.000 C 
ENDBRANCH   8   9
ENDBRANCH   1   8
TORSDOF 3
ENDMDL
