REMARK  Name = *****
REMARK  5 active torsions:
REMARK  status: ('A' for Active; 'I' for Inactive)
REMARK    1  A    between atoms: C_1  and  C_2
REMARK    2  A    between atoms: C_2  and  O_8
REMARK    3  A    between atoms: O_8  and  O_9
REMARK    4  A    between atoms: O_9  and  C_10
REMARK    5  A    between atoms: C_10  and  C_16
REMARK                            x       y       z     vdW  Elec       q    Type
REMARK                         _______ _______ _______ _____ _____    ______ ____
ROOT
ATOM      1  O   UNL     1       0.864  -0.044   1.734  0.00  0.00    +0.000 OA
ENDROOT
BRANCH   1   3
ATOM      2  C   UNL     1       2.537   0.026  -0.034  0.00  0.00    +0.000 C 
ATOM      3  C   UNL     1       1.044  -0.072   0.306  0.00  0.00    +0.000 C 
ATOM      4  C   UNL     1       0.244   1.058  -0.372  0.00  0.00    +0.000 C 
ATOM      5  C   UNL     1      -1.261   0.923  -0.134  0.00  0.00    +0.000 C 
ATOM      6  C   UNL     1      -1.778  -0.439  -0.585  0.00  0.00    +0.000 C 
ATOM      7  C   UNL     1      -1.000  -1.581   0.061  0.00  0.00    +0.000 C 
ATOM      8  C   UNL     1       0.507  -1.438  -0.166  0.00  0.00    +0.000 C 
ENDBRANCH   1   3
BRANCH   1   9
ATOM      9  O   UNL     1       1.369   1.238   2.218  0.00  0.00    +0.000 OA
BRANCH   9  10
ATOM     10  C   UNL     1       1.745   1.065   3.596  0.00  0.00    +0.000 C 
ATOM     11  C   UNL     1       0.527   0.663   4.453  0.00  0.00    +0.000 C 
ATOM     12  C   UNL     1      -0.564   1.735   4.444  0.00  0.00    +0.000 C 
ATOM     13  C   UNL     1      -0.021   3.087   4.893  0.00  0.00    +0.000 C 
ATOM     14  C   UNL     1       1.191   3.511   4.071  0.00  0.00    +0.000 C 
ATOM     15  C   UNL     1       2.278   2.433   4.069  0.00  0.00    +0.000 C 
ATOM     16  C   UNL     1       2.866   0.024   3.705  0.00  0.00    +0.000 C 
ENDBRANCH   9  10
ENDBRANCH   1   9
TORSDOF 3
