REMARK  Name = *****
REMARK  5 active torsions:
REMARK  status: ('A' for Active; 'I' for Inactive)
REMARK    1  A    between atoms: C_1  and  O_2
REMARK    2  A    between atoms: O_2  and  C_3
REMARK    3  A    between atoms: C_3  and  C_5
REMARK    4  A    between atoms: C_5  and  C_12
REMARK    5  A    between atoms: C_6  and  C_7
REMARK                            x       y       z     vdW  Elec       q    Type
REMARK                         _______ _______ _______ _____ _____    ______ ____
ROOT
ATOM      1  C   UNL     1       4.758  -1.214   0.689  0.00  0.00    +0.000 C 
ATOM      2  C   UNL     1       5.271   0.013   0.464  0.00  0.00    +0.000 C 
ENDROOT
BRANCH   1   3
ATOM      3  C   UNL     1       5.628  -2.286   1.213  0.00  0.00    +0.000 A 
ATOM      4  C   UNL     1       6.309  -2.129   2.430  0.00  0.00    +0.000 A 
ATOM      5  C   UNL     1       7.123  -3.150   2.925  0.00  0.00    +0.000 A 
ATOM      6  C   UNL     1       7.262  -4.339   2.211  0.00  0.00    +0.000 A 
ATOM      7  C   UNL     1       6.586  -4.509   1.005  0.00  0.00    +0.000 A 
ATOM      8  C   UNL     1       5.772  -3.489   0.508  0.00  0.00    +0.000 A 
ENDBRANCH   1   3
BRANCH   2   9
ATOM      9  C   UNL     1       4.547   1.115  -0.077  0.00  0.00    +0.000 A 
ATOM     10  C   UNL     1       3.639   1.179  -1.123  0.00  0.00    +0.000 A 
ATOM     11  C   UNL     1       3.143   2.495  -1.355  0.00  0.00    +0.000 A 
ATOM     12  C   UNL     1       3.696   3.411  -0.493  0.00  0.00    +0.000 A 
ATOM     13  S   UNL     1       4.812   2.689   0.577  0.00  0.00    +0.000 S 
ENDBRANCH   2   9
BRANCH   1  14
ATOM     14  C   UNL     1       3.333  -1.523   0.413  0.00  0.00    +0.000 C 
ATOM     15  O   UNL     1       2.946  -2.197  -0.530  0.00  0.00    +0.000 OA
BRANCH  14  17
ATOM     16  C   UNL     1       1.168  -1.211   1.221  0.00  0.00    +0.000 C 
ATOM     17  O   UNL     1       2.564  -0.970   1.385  0.00  0.00    +0.000 OA
ENDBRANCH  14  17
ENDBRANCH   1  14
TORSDOF 4
