MODEL 1
REMARK VINA RESULT:      -4.8      0.000      0.000
REMARK  Name = *****
REMARK  1 active torsions:
REMARK  status: ('A' for Active; 'I' for Inactive)
REMARK    1  A    between atoms: C_6  and  C_7
REMARK                            x       y       z     vdW  Elec       q    Type
REMARK                         _______ _______ _______ _____ _____    ______ ____
ROOT
ATOM      1  C   UNL     1      89.383  70.448  87.076  0.00  0.00    +0.000 C 
ATOM      2  C   UNL     1      89.667  69.715  85.764  0.00  0.00    +0.000 C 
ATOM      3  C   UNL     1      89.237  68.243  85.810  0.00  0.00    +0.000 C 
ATOM      4  C   UNL     1      87.787  68.078  86.283  0.00  0.00    +0.000 C 
ATOM      5  C   UNL     1      87.512  68.820  87.593  0.00  0.00    +0.000 C 
ATOM      6  C   UNL     1      87.913  70.301  87.500  0.00  0.00    +0.000 C 
ATOM      7  C   UNL     1      89.483  67.549  84.512  0.00  0.00    +0.000 C 
ATOM      8  C   UNL     1      90.379  66.604  84.781  0.00  0.00    +0.000 C 
ATOM      9  N   UNL     1      90.757  66.587  86.094  0.00  0.00    +0.000 NA
ATOM     10  N   UNL     1      90.146  67.491  86.730  0.00  0.00    +0.000 NA
ENDROOT
BRANCH   6  11
ATOM     11  C   UNL     1      87.623  71.048  88.789  0.00  0.00    +0.000 A 
ATOM     12  C   UNL     1      86.334  71.512  89.097  0.00  0.00    +0.000 A 
ATOM     13  C   UNL     1      86.088  72.196  90.289  0.00  0.00    +0.000 A 
ATOM     14  C   UNL     1      87.126  72.425  91.190  0.00  0.00    +0.000 A 
ATOM     15  C   UNL     1      88.410  71.972  90.899  0.00  0.00    +0.000 A 
ATOM     16  C   UNL     1      88.657  71.288  89.707  0.00  0.00    +0.000 A 
ENDBRANCH   6  11
TORSDOF 1
ENDMDL
