MODEL 1
REMARK VINA RESULT:      -4.4      0.000      0.000
REMARK  Name = *****
REMARK  2 active torsions:
REMARK  status: ('A' for Active; 'I' for Inactive)
REMARK    1  A    between atoms: C_4  and  C_7
REMARK    2  A    between atoms: C_8  and  C_9
REMARK                            x       y       z     vdW  Elec       q    Type
REMARK                         _______ _______ _______ _____ _____    ______ ____
ROOT
ATOM      1  C   UNL     1     101.819 125.939  82.390  0.00  0.00    +0.000 C 
ATOM      2  C   UNL     1     102.829 126.083  81.517  0.00  0.00    +0.000 C 
ENDROOT
BRANCH   1   6
ATOM      3  C   UNL     1      99.065 129.061  83.376  0.00  0.00    +0.000 A 
ATOM      4  C   UNL     1      98.598 127.907  82.749  0.00  0.00    +0.000 A 
ATOM      5  C   UNL     1      99.488 126.883  82.415  0.00  0.00    +0.000 A 
ATOM      6  C   UNL     1     100.855 127.008  82.696  0.00  0.00    +0.000 A 
ATOM      7  C   UNL     1     101.310 128.165  83.341  0.00  0.00    +0.000 A 
ATOM      8  C   UNL     1     100.420 129.189  83.675  0.00  0.00    +0.000 A 
ENDBRANCH   1   6
BRANCH   2   9
ATOM      9  C   UNL     1     103.757 125.036  81.236  0.00  0.00    +0.000 A 
ATOM     10  C   UNL     1     104.436 124.699  80.071  0.00  0.00    +0.000 A 
ATOM     11  C   UNL     1     105.285 123.560  80.221  0.00  0.00    +0.000 A 
ATOM     12  C   UNL     1     105.225 123.070  81.495  0.00  0.00    +0.000 A 
ATOM     13  S   UNL     1     104.184 123.935  82.502  0.00  0.00    +0.000 S 
ATOM     14 CL   UNL     1     106.083 121.716  82.113  0.00  0.00    +0.000 Cl
ENDBRANCH   2   9
TORSDOF 2
ENDMDL
