MODEL 1
REMARK VINA RESULT:      -4.1      0.000      0.000
REMARK  Name = *****
REMARK  4 active torsions:
REMARK  status: ('A' for Active; 'I' for Inactive)
REMARK    1  A    between atoms: C_1  and  C_2
REMARK    2  A    between atoms: C_7  and  C_8
REMARK    3  A    between atoms: C_8  and  C_9
REMARK    4  A    between atoms: C_9  and  C_10
REMARK                            x       y       z     vdW  Elec       q    Type
REMARK                         _______ _______ _______ _____ _____    ______ ____
ROOT
ATOM      1  C   UNL     1      89.306  70.090  86.910  0.00  0.00    +0.000 C 
ATOM      2 CL   UNL     1      90.074  70.748  85.425  0.00  0.00    +0.000 Cl
ENDROOT
BRANCH   1   9
ATOM      3  C   UNL     1      88.167  70.677  89.651  0.00  0.00    +0.000 C 
ATOM      4  C   UNL     1      87.405  70.987  88.391  0.00  0.00    +0.000 A 
ATOM      5  C   UNL     1      86.128  71.562  88.509  0.00  0.00    +0.000 A 
ATOM      6  C   UNL     1      85.372  71.873  87.380  0.00  0.00    +0.000 A 
ATOM      7  C   UNL     1      85.880  71.612  86.115  0.00  0.00    +0.000 A 
ATOM      8  C   UNL     1      87.146  71.043  85.978  0.00  0.00    +0.000 A 
ATOM      9  C   UNL     1      87.934  70.726  87.105  0.00  0.00    +0.000 A 
ENDBRANCH   1   9
BRANCH   1  10
ATOM     10  C   UNL     1      89.211  68.553  86.857  0.00  0.00    +0.000 C 
BRANCH  10  11
ATOM     11  C   UNL     1      89.651  67.937  85.520  0.00  0.00    +0.000 C 
ATOM     12  S   UNL     1      90.600  66.384  85.672  0.00  0.00    +0.000 S 
ATOM     13  C   UNL     1      89.321  65.267  86.311  0.00  0.00    +0.000 C 
ATOM     14  C   UNL     1      88.127  65.128  85.378  0.00  0.00    +0.000 C 
ATOM     15  C   UNL     1      87.320  66.405  85.212  0.00  0.00    +0.000 C 
ATOM     16  S   UNL     1      88.243  67.723  84.373  0.00  0.00    +0.000 S 
ENDBRANCH  10  11
ENDBRANCH   1  10
TORSDOF 3
ENDMDL
