REMARK  Name = *****
REMARK  5 active torsions:
REMARK  status: ('A' for Active; 'I' for Inactive)
REMARK    1  A    between atoms: C_1  and  C_2
REMARK    2  A    between atoms: C_5  and  S_8
REMARK    3  A    between atoms: S_8  and  C_9
REMARK    4  A    between atoms: C_9  and  C_10
REMARK    5  A    between atoms: C_15  and  C_16
REMARK                            x       y       z     vdW  Elec       q    Type
REMARK                         _______ _______ _______ _____ _____    ______ ____
ROOT
ATOM      1  S   UNL     1      -3.419  -0.030   0.091  0.00  0.00    +0.000 S 
ENDROOT
BRANCH   1   6
ATOM      2  C   UNL     1      -0.840   0.870   5.536  0.00  0.00    +0.000 C 
ATOM      3  C   UNL     1      -1.480   0.674   4.194  0.00  0.00    +0.000 A 
ATOM      4  C   UNL     1      -2.829   0.312   4.099  0.00  0.00    +0.000 A 
ATOM      5  C   UNL     1      -3.419   0.099   2.850  0.00  0.00    +0.000 A 
ATOM      6  C   UNL     1      -2.667   0.242   1.682  0.00  0.00    +0.000 A 
ATOM      7  C   UNL     1      -1.314   0.575   1.774  0.00  0.00    +0.000 A 
ATOM      8  C   UNL     1      -0.723   0.790   3.022  0.00  0.00    +0.000 A 
ENDBRANCH   1   6
BRANCH   1   9
ATOM      9  C   UNL     1      -4.005   1.663  -0.269  0.00  0.00    +0.000 C 
BRANCH   9  10
ATOM     10  C   UNL     1      -2.892   2.638  -0.593  0.00  0.00    +0.000 A 
ATOM     11  C   UNL     1      -2.144   2.439  -1.770  0.00  0.00    +0.000 A 
ATOM     12  C   UNL     1      -1.103   3.298  -2.120  0.00  0.00    +0.000 A 
ATOM     13  C   UNL     1      -0.795   4.378  -1.301  0.00  0.00    +0.000 A 
ATOM     14  C   UNL     1      -1.529   4.599  -0.137  0.00  0.00    +0.000 A 
ATOM     15  C   UNL     1      -2.581   3.742   0.231  0.00  0.00    +0.000 A 
ATOM     16  C   UNL     1      -3.345   4.044   1.492  0.00  0.00    +0.000 C 
ENDBRANCH   9  10
ENDBRANCH   1   9
TORSDOF 3
