MODEL 1
REMARK VINA RESULT:      -5.1      0.000      0.000
REMARK  Name = *****
REMARK  3 active torsions:
REMARK  status: ('A' for Active; 'I' for Inactive)
REMARK    1  A    between atoms: C_4  and  C_7
REMARK    2  A    between atoms: C_8  and  C_9
REMARK    3  A    between atoms: C_14  and  C_15
REMARK                            x       y       z     vdW  Elec       q    Type
REMARK                         _______ _______ _______ _____ _____    ______ ____
ROOT
ATOM      1  C   UNL     1     104.054 124.684  81.333  0.00  0.00    +0.000 A 
ATOM      2  C   UNL     1     104.526 124.849  80.025  0.00  0.00    +0.000 A 
ATOM      3  C   UNL     1     105.567 124.052  79.557  0.00  0.00    +0.000 A 
ATOM      4  C   UNL     1     106.143 123.090  80.379  0.00  0.00    +0.000 A 
ATOM      5  C   UNL     1     105.688 122.913  81.679  0.00  0.00    +0.000 A 
ATOM      6  C   UNL     1     104.640 123.711  82.162  0.00  0.00    +0.000 A 
ATOM      7  F   UNL     1     107.144 122.327  79.922  0.00  0.00    +0.000 F 
ATOM      8  F   UNL     1     106.009 124.220  78.304  0.00  0.00    +0.000 F 
ENDROOT
BRANCH   1  10
ATOM      9  C   UNL     1     102.080 126.227  82.145  0.00  0.00    +0.000 C 
ATOM     10  C   UNL     1     102.981 125.525  81.773  0.00  0.00    +0.000 C 
BRANCH   9  14
ATOM     11  C   UNL     1      98.924 128.709  83.456  0.00  0.00    +0.000 A 
ATOM     12  C   UNL     1      98.644 127.536  82.754  0.00  0.00    +0.000 A 
ATOM     13  C   UNL     1      99.687 126.716  82.321  0.00  0.00    +0.000 A 
ATOM     14  C   UNL     1     101.012 127.069  82.588  0.00  0.00    +0.000 A 
ATOM     15  C   UNL     1     101.290 128.244  83.291  0.00  0.00    +0.000 A 
ATOM     16  C   UNL     1     100.246 129.062  83.724  0.00  0.00    +0.000 A 
ENDBRANCH   9  14
ENDBRANCH   1  10
BRANCH   6  17
ATOM     17  C   UNL     1     104.179 123.496  83.552  0.00  0.00    +0.000 C 
ATOM     18  O   UNL     1     103.906 122.378  83.971  0.00  0.00    +0.000 OA
ENDBRANCH   6  17
TORSDOF 3
ENDMDL
