MODEL 1
REMARK VINA RESULT:      -4.7      0.000      0.000
REMARK  Name = *****
REMARK  5 active torsions:
REMARK  status: ('A' for Active; 'I' for Inactive)
REMARK    1  A    between atoms: C_1  and  C_2
REMARK    2  A    between atoms: C_2  and  C_3
REMARK    3  A    between atoms: C_2  and  O_9
REMARK    4  A    between atoms: O_9  and  C_10
REMARK    5  A    between atoms: C_10  and  C_12
REMARK                            x       y       z     vdW  Elec       q    Type
REMARK                         _______ _______ _______ _____ _____    ______ ____
ROOT
ATOM      1  O   UNL     1     102.359 125.785  81.582  0.00  0.00    +0.000 OA
ENDROOT
BRANCH   1   3
ATOM      2  C   UNL     1     103.466 127.468  80.262  0.00  0.00    +0.000 C 
ATOM      3  C   UNL     1     103.652 126.332  81.266  0.00  0.00    +0.000 C 
BRANCH   3   4
ATOM      4  C   UNL     1     104.526 125.226  80.708  0.00  0.00    +0.000 A 
ATOM      5  C   UNL     1     104.346 123.886  81.078  0.00  0.00    +0.000 A 
ATOM      6  C   UNL     1     105.131 122.879  80.510  0.00  0.00    +0.000 A 
ATOM      7  C   UNL     1     106.112 123.202  79.575  0.00  0.00    +0.000 A 
ATOM      8  C   UNL     1     106.318 124.531  79.215  0.00  0.00    +0.000 A 
ATOM      9  C   UNL     1     105.533 125.538  79.780  0.00  0.00    +0.000 A 
ENDBRANCH   3   4
ENDBRANCH   1   3
BRANCH   1  10
ATOM     10  C   UNL     1     101.951 125.918  82.866  0.00  0.00    +0.000 C 
ATOM     11  O   UNL     1     102.330 125.255  83.819  0.00  0.00    +0.000 OA
BRANCH  10  12
ATOM     12  C   UNL     1     100.948 127.010  82.995  0.00  0.00    +0.000 A 
ATOM     13  C   UNL     1     101.244 128.240  83.594  0.00  0.00    +0.000 A 
ATOM     14  C   UNL     1     100.254 129.219  83.684  0.00  0.00    +0.000 A 
ATOM     15  C   UNL     1      98.973 128.987  83.185  0.00  0.00    +0.000 A 
ATOM     16  C   UNL     1      98.672 127.763  82.591  0.00  0.00    +0.000 A 
ATOM     17  C   UNL     1      99.656 126.777  82.498  0.00  0.00    +0.000 A 
ATOM     18 CL   UNL     1     100.616 130.732  84.422  0.00  0.00    +0.000 Cl
ENDBRANCH  10  12
ENDBRANCH   1  10
TORSDOF 4
ENDMDL
