REMARK  Name = *****
REMARK  5 active torsions:
REMARK  status: ('A' for Active; 'I' for Inactive)
REMARK    1  A    between atoms: C_1  and  C_2
REMARK    2  A    between atoms: C_5  and  C_8
REMARK    3  A    between atoms: N_9  and  C_10
REMARK    4  A    between atoms: C_11  and  C_17
REMARK    5  A    between atoms: C_15  and  C_16
REMARK                            x       y       z     vdW  Elec       q    Type
REMARK                         _______ _______ _______ _____ _____    ______ ____
ROOT
ATOM      1  C   UNL     1      -3.267   0.294  -0.483  0.00  0.00    +0.000 C 
ATOM      2  N   UNL     1      -4.022   0.936   0.352  0.00  0.00    +0.000 NA
ENDROOT
BRANCH   2   3
ATOM      3  C   UNL     1      -5.404   0.900   0.078  0.00  0.00    +0.000 A 
ATOM      4  C   UNL     1      -6.204  -0.136   0.603  0.00  0.00    +0.000 A 
ATOM      5  C   UNL     1      -7.574  -0.169   0.305  0.00  0.00    +0.000 A 
ATOM      6  C   UNL     1      -8.152   0.826  -0.480  0.00  0.00    +0.000 A 
ATOM      7  C   UNL     1      -7.369   1.867  -0.973  0.00  0.00    +0.000 A 
ATOM      8  C   UNL     1      -5.997   1.921  -0.691  0.00  0.00    +0.000 A 
ATOM      9  C   UNL     1      -5.170   3.056  -1.229  0.00  0.00    +0.000 C 
ATOM     10  C   UNL     1      -5.602  -1.218   1.455  0.00  0.00    +0.000 C 
ENDBRANCH   2   3
BRANCH   1  15
ATOM     11  C   UNL     1       2.475   0.029   0.074  0.00  0.00    +0.000 C 
ATOM     12  C   UNL     1       0.986   0.123  -0.084  0.00  0.00    +0.000 A 
ATOM     13  C   UNL     1       0.223   0.845   0.843  0.00  0.00    +0.000 A 
ATOM     14  C   UNL     1      -1.166   0.909   0.719  0.00  0.00    +0.000 A 
ATOM     15  C   UNL     1      -1.801   0.241  -0.330  0.00  0.00    +0.000 A 
ATOM     16  C   UNL     1      -1.053  -0.493  -1.252  0.00  0.00    +0.000 A 
ATOM     17  C   UNL     1       0.337  -0.556  -1.124  0.00  0.00    +0.000 A 
ENDBRANCH   1  15
TORSDOF 2
