MODEL 1
REMARK VINA RESULT:      -4.4      0.000      0.000
REMARK  Name = *****
REMARK  4 active torsions:
REMARK  status: ('A' for Active; 'I' for Inactive)
REMARK    1  A    between atoms: C_1  and  C_2
REMARK    2  A    between atoms: C_2  and  O_8
REMARK    3  A    between atoms: O_8  and  C_9
REMARK    4  A    between atoms: C_9  and  C_11
REMARK                            x       y       z     vdW  Elec       q    Type
REMARK                         _______ _______ _______ _____ _____    ______ ____
ROOT
ATOM      1  O   UNL     1     102.272 125.724  82.106  0.00  0.00    +0.000 OA
ENDROOT
BRANCH   1   3
ATOM      2  C   UNL     1     104.159 124.154  82.186  0.00  0.00    +0.000 C 
ATOM      3  C   UNL     1     103.699 125.582  81.868  0.00  0.00    +0.000 C 
ATOM      4  C   UNL     1     104.516 126.631  82.649  0.00  0.00    +0.000 C 
ATOM      5  C   UNL     1     104.148 128.063  82.256  0.00  0.00    +0.000 C 
ATOM      6  C   UNL     1     104.306 128.288  80.756  0.00  0.00    +0.000 C 
ATOM      7  C   UNL     1     103.524 127.261  79.945  0.00  0.00    +0.000 C 
ATOM      8  C   UNL     1     103.882 125.830  80.351  0.00  0.00    +0.000 C 
ENDBRANCH   1   3
BRANCH   1   9
ATOM      9  C   UNL     1     101.788 125.944  83.351  0.00  0.00    +0.000 C 
ATOM     10  O   UNL     1     102.074 125.327  84.363  0.00  0.00    +0.000 OA
BRANCH   9  11
ATOM     11  C   UNL     1     100.825 127.079  83.333  0.00  0.00    +0.000 A 
ATOM     12  C   UNL     1     101.084 128.298  83.976  0.00  0.00    +0.000 A 
ATOM     13  C   UNL     1     100.144 129.330  83.930  0.00  0.00    +0.000 A 
ATOM     14  C   UNL     1      98.942 129.151  83.245  0.00  0.00    +0.000 A 
ATOM     15  C   UNL     1      98.676 127.942  82.604  0.00  0.00    +0.000 A 
ATOM     16  C   UNL     1      99.614 126.908  82.648  0.00  0.00    +0.000 A 
ENDBRANCH   9  11
ENDBRANCH   1   9
TORSDOF 3
ENDMDL
