REMARK  Name = *****
REMARK  2 active torsions:
REMARK  status: ('A' for Active; 'I' for Inactive)
REMARK    1  A    between atoms: C_4  and  C_6
REMARK    2  A    between atoms: N_7  and  C_8
REMARK                            x       y       z     vdW  Elec       q    Type
REMARK                         _______ _______ _______ _____ _____    ______ ____
ROOT
ATOM      1  C   UNL     1       0.066  -2.777   0.244  0.00  0.00    +0.000 C 
ATOM      2  N   UNL     1       0.815  -3.609  -0.410  0.00  0.00    +0.000 NA
ENDROOT
BRANCH   2   3
ATOM      3  C   UNL     1       0.484  -4.962  -0.277  0.00  0.00    +0.000 A 
ATOM      4  C   UNL     1      -0.450  -5.550  -1.137  0.00  0.00    +0.000 A 
ATOM      5  C   UNL     1      -0.768  -6.904  -1.014  0.00  0.00    +0.000 A 
ATOM      6  C   UNL     1      -0.139  -7.666  -0.036  0.00  0.00    +0.000 A 
ATOM      7  C   UNL     1       0.804  -7.103   0.816  0.00  0.00    +0.000 A 
ATOM      8  C   UNL     1       1.119  -5.748   0.690  0.00  0.00    +0.000 A 
ATOM      9  F   UNL     1      -0.442  -8.965   0.083  0.00  0.00    +0.000 F 
ENDBRANCH   2   3
BRANCH   1  13
ATOM     10  C   UNL     1       1.216   0.731  -0.322  0.00  0.00    +0.000 A 
ATOM     11  C   UNL     1       0.170   1.079   0.504  0.00  0.00    +0.000 A 
ATOM     12  S   UNL     1      -0.701  -0.290   1.047  0.00  0.00    +0.000 S 
ATOM     13  C   UNL     1       0.314  -1.358   0.180  0.00  0.00    +0.000 A 
ATOM     14  C   UNL     1       1.299  -0.679  -0.509  0.00  0.00    +0.000 A 
ENDBRANCH   1  13
TORSDOF 2
