MODEL 1
REMARK VINA RESULT:      -4.9      0.000      0.000
REMARK  Name = *****
REMARK  4 active torsions:
REMARK  status: ('A' for Active; 'I' for Inactive)
REMARK    1  A    between atoms: C_1  and  C_2
REMARK    2  A    between atoms: C_5  and  C_10
REMARK    3  A    between atoms: C_10  and  C_11
REMARK    4  A    between atoms: C_11  and  C_13
REMARK                            x       y       z     vdW  Elec       q    Type
REMARK                         _______ _______ _______ _____ _____    ______ ____
ROOT
ATOM      1  C   UNL     1      88.620  64.338  87.140  0.00  0.00    +0.000 C 
ATOM      2  C   UNL     1      88.528  65.829  87.193  0.00  0.00    +0.000 A 
ATOM      3  C   UNL     1      87.504  66.479  87.883  0.00  0.00    +0.000 A 
ATOM      4  C   UNL     1      87.434  67.873  87.924  0.00  0.00    +0.000 A 
ATOM      5  C   UNL     1      88.383  68.661  87.271  0.00  0.00    +0.000 A 
ATOM      6  C   UNL     1      89.413  68.012  86.588  0.00  0.00    +0.000 A 
ATOM      7  C   UNL     1      89.482  66.619  86.547  0.00  0.00    +0.000 A 
ATOM      8  F   UNL     1      90.478  66.029  85.870  0.00  0.00    +0.000 F 
ATOM      9  F   UNL     1      90.346  68.737  85.952  0.00  0.00    +0.000 F 
ATOM     10  F   UNL     1      86.434  68.463  88.594  0.00  0.00    +0.000 F 
ATOM     11  F   UNL     1      86.564  65.759  88.514  0.00  0.00    +0.000 F 
ENDROOT
BRANCH   5  12
ATOM     12  C   UNL     1      88.337  70.163  87.362  0.00  0.00    +0.000 C 
BRANCH  12  13
ATOM     13  C   UNL     1      87.526  70.795  86.241  0.00  0.00    +0.000 C 
ATOM     14  O   UNL     1      87.904  70.788  85.070  0.00  0.00    +0.000 OA
BRANCH  13  15
ATOM     15  C   UNL     1      86.223  71.445  86.581  0.00  0.00    +0.000 A 
ATOM     16  C   UNL     1      85.334  71.907  85.602  0.00  0.00    +0.000 A 
ATOM     17  C   UNL     1      84.127  72.506  85.975  0.00  0.00    +0.000 A 
ATOM     18  C   UNL     1      83.801  72.648  87.322  0.00  0.00    +0.000 A 
ATOM     19  C   UNL     1      84.680  72.193  88.303  0.00  0.00    +0.000 A 
ATOM     20  C   UNL     1      85.886  71.595  87.934  0.00  0.00    +0.000 A 
ENDBRANCH  13  15
ENDBRANCH  12  13
ENDBRANCH   5  12
TORSDOF 3
ENDMDL
