MODEL 1
REMARK VINA RESULT:      -4.5      0.000      0.000
REMARK  Name = *****
REMARK  4 active torsions:
REMARK  status: ('A' for Active; 'I' for Inactive)
REMARK    1  A    between atoms: C_1  and  O_2
REMARK    2  A    between atoms: O_2  and  C_3
REMARK    3  A    between atoms: C_6  and  C_9
REMARK    4  A    between atoms: C_10  and  C_11
REMARK                            x       y       z     vdW  Elec       q    Type
REMARK                         _______ _______ _______ _____ _____    ______ ____
ROOT
ATOM      1  C   UNL     1     105.787 123.104  80.668  0.00  0.00    +0.000 A 
ATOM      2  N   UNL     1     105.415 123.951  79.688  0.00  0.00    +0.000 NA
ATOM      3  C   UNL     1     104.450 124.850  80.001  0.00  0.00    +0.000 A 
ATOM      4  C   UNL     1     103.837 124.956  81.249  0.00  0.00    +0.000 A 
ATOM      5  C   UNL     1     104.243 124.047  82.229  0.00  0.00    +0.000 A 
ATOM      6  C   UNL     1     105.235 123.112  81.939  0.00  0.00    +0.000 A 
ENDROOT
BRANCH   1   8
ATOM      7  C   UNL     1     107.449 121.759  81.615  0.00  0.00    +0.000 C 
ATOM      8  O   UNL     1     106.763 122.156  80.433  0.00  0.00    +0.000 OA
ENDBRANCH   1   8
BRANCH   4   9
ATOM      9  C   UNL     1     102.772 125.945  81.461  0.00  0.00    +0.000 C 
ATOM     10  C   UNL     1     101.971 125.971  82.540  0.00  0.00    +0.000 C 
BRANCH  10  11
ATOM     11  C   UNL     1     100.918 126.976  82.749  0.00  0.00    +0.000 A 
ATOM     12  C   UNL     1      99.585 126.749  82.379  0.00  0.00    +0.000 A 
ATOM     13  C   UNL     1      98.606 127.717  82.624  0.00  0.00    +0.000 A 
ATOM     14  C   UNL     1      98.948 128.914  83.250  0.00  0.00    +0.000 A 
ATOM     15  C   UNL     1     100.266 129.143  83.638  0.00  0.00    +0.000 A 
ATOM     16  C   UNL     1     101.245 128.176  83.394  0.00  0.00    +0.000 A 
ENDBRANCH  10  11
ENDBRANCH   4   9
TORSDOF 3
ENDMDL
