REMARK  Name = *****
REMARK  5 active torsions:
REMARK  status: ('A' for Active; 'I' for Inactive)
REMARK    1  A    between atoms: C_1  and  C_2
REMARK    2  A    between atoms: C_4  and  C_8
REMARK    3  A    between atoms: C_4  and  C_9
REMARK    4  A    between atoms: C_9  and  C_10
REMARK    5  A    between atoms: C_11  and  C_12
REMARK                            x       y       z     vdW  Elec       q    Type
REMARK                         _______ _______ _______ _____ _____    ______ ____
ROOT
ATOM      1  C   UNL     1       0.770  -0.307  -0.178  0.00  0.00    +0.000 C 
ATOM      2  C   UNL     1       2.250  -0.162  -0.151  0.00  0.00    +0.000 C 
ATOM      3  C   UNL     1       3.211  -1.081   0.030  0.00  0.00    +0.000 C 
ATOM      4  C   UNL     1       4.663  -0.636   0.015  0.00  0.00    +0.000 C 
ATOM      5  S   UNL     1       4.562   1.173  -0.314  0.00  0.00    +0.000 S 
ATOM      6  C   UNL     1       2.818   1.187  -0.350  0.00  0.00    +0.000 C 
ATOM      7  O   UNL     1       2.151   2.194  -0.520  0.00  0.00    +0.000 OA
ATOM      8  C   UNL     1       5.417  -1.299  -1.146  0.00  0.00    +0.000 C 
ATOM      9  O   UNL     1       2.984  -2.425   0.232  0.00  0.00    +0.000 OA
ENDROOT
BRANCH   4  10
ATOM     10  C   UNL     1       5.331  -0.911   1.388  0.00  0.00    +0.000 C 
BRANCH  10  11
ATOM     11  C   UNL     1       6.783  -0.509   1.507  0.00  0.00    +0.000 C 
ATOM     12  C   UNL     1       7.780  -1.384   1.719  0.00  0.00    +0.000 C 
BRANCH  12  13
ATOM     13  C   UNL     1       9.199  -1.016   1.831  0.00  0.00    +0.000 A 
ATOM     14  C   UNL     1       9.621   0.175   2.437  0.00  0.00    +0.000 A 
ATOM     15  C   UNL     1      10.982   0.472   2.550  0.00  0.00    +0.000 A 
ATOM     16  C   UNL     1      11.935  -0.422   2.069  0.00  0.00    +0.000 A 
ATOM     17  C   UNL     1      11.529  -1.617   1.479  0.00  0.00    +0.000 A 
ATOM     18  C   UNL     1      10.168  -1.914   1.366  0.00  0.00    +0.000 A 
ENDBRANCH  12  13
ENDBRANCH  10  11
ENDBRANCH   4  10
TORSDOF 3
