REMARK  Name = *****
REMARK  3 active torsions:
REMARK  status: ('A' for Active; 'I' for Inactive)
REMARK    1  A    between atoms: C_5  and  C_7
REMARK    2  A    between atoms: C_7  and  O_9
REMARK    3  A    between atoms: O_9  and  C_10
REMARK                            x       y       z     vdW  Elec       q    Type
REMARK                         _______ _______ _______ _____ _____    ______ ____
ROOT
ATOM      1  C   UNL     1      -0.735  -2.001  -0.747  0.00  0.00    +0.000 C 
ATOM      2  O   UNL     1      -0.298  -3.096  -1.067  0.00  0.00    +0.000 OA
ENDROOT
BRANCH   1   7
ATOM      3  C   UNL     1       2.244   0.257  -0.470  0.00  0.00    +0.000 A 
ATOM      4  C   UNL     1       1.899   1.089   0.591  0.00  0.00    +0.000 A 
ATOM      5  C   UNL     1       0.681   0.911   1.251  0.00  0.00    +0.000 A 
ATOM      6  C   UNL     1      -0.206  -0.095   0.848  0.00  0.00    +0.000 A 
ATOM      7  C   UNL     1       0.130  -0.919  -0.232  0.00  0.00    +0.000 A 
ATOM      8  C   UNL     1       1.366  -0.748  -0.878  0.00  0.00    +0.000 A 
ATOM      9 CL   UNL     1      -1.653  -0.279   1.769  0.00  0.00    +0.000 Cl
ENDBRANCH   1   7
BRANCH   1  10
ATOM     10  O   UNL     1      -2.005  -1.503  -0.956  0.00  0.00    +0.000 OA
BRANCH  10  11
ATOM     11  C   UNL     1      -2.844  -2.439  -1.569  0.00  0.00    +0.000 A 
ATOM     12  C   UNL     1      -2.990  -2.364  -2.956  0.00  0.00    +0.000 A 
ATOM     13  C   UNL     1      -3.845  -3.255  -3.605  0.00  0.00    +0.000 A 
ATOM     14  C   UNL     1      -4.557  -4.204  -2.868  0.00  0.00    +0.000 A 
ATOM     15  C   UNL     1      -4.420  -4.261  -1.478  0.00  0.00    +0.000 A 
ATOM     16  C   UNL     1      -3.566  -3.373  -0.822  0.00  0.00    +0.000 A 
ATOM     17 CL   UNL     1      -3.445  -3.455   0.895  0.00  0.00    +0.000 Cl
ENDBRANCH  10  11
ENDBRANCH   1  10
TORSDOF 3
