MODEL 1
REMARK VINA RESULT:      -4.6      0.000      0.000
REMARK  Name = *****
REMARK  4 active torsions:
REMARK  status: ('A' for Active; 'I' for Inactive)
REMARK    1  A    between atoms: C_1  and  C_2
REMARK    2  A    between atoms: C_5  and  C_8
REMARK    3  A    between atoms: C_8  and  O_9
REMARK    4  A    between atoms: O_9  and  C_10
REMARK                            x       y       z     vdW  Elec       q    Type
REMARK                         _______ _______ _______ _____ _____    ______ ____
ROOT
ATOM      1  C   UNL     1     103.415 127.699  82.011  0.00  0.00    +0.000 C 
ENDROOT
BRANCH   1   6
ATOM      2  C   UNL     1     105.033 122.313  80.489  0.00  0.00    +0.000 C 
ATOM      3  C   UNL     1     104.585 123.691  80.875  0.00  0.00    +0.000 A 
ATOM      4  C   UNL     1     104.255 123.985  82.202  0.00  0.00    +0.000 A 
ATOM      5  C   UNL     1     103.873 125.278  82.567  0.00  0.00    +0.000 A 
ATOM      6  C   UNL     1     103.815 126.300  81.611  0.00  0.00    +0.000 A 
ATOM      7  C   UNL     1     104.174 126.011  80.289  0.00  0.00    +0.000 A 
ATOM      8  C   UNL     1     104.557 124.718  79.924  0.00  0.00    +0.000 A 
ENDBRANCH   1   6
BRANCH   1   9
ATOM      9  O   UNL     1     102.654 127.616  83.214  0.00  0.00    +0.000 OA
BRANCH   9  10
ATOM     10  C   UNL     1     101.295 127.718  83.102  0.00  0.00    +0.000 A 
ATOM     11  C   UNL     1     100.438 126.747  82.590  0.00  0.00    +0.000 A 
ATOM     12  C   UNL     1      99.069 126.999  82.540  0.00  0.00    +0.000 A 
ATOM     13  C   UNL     1      98.536 128.202  82.990  0.00  0.00    +0.000 A 
ATOM     14  C   UNL     1      99.389 129.175  83.502  0.00  0.00    +0.000 A 
ATOM     15  C   UNL     1     100.763 128.930  83.555  0.00  0.00    +0.000 A 
ATOM     16  F   UNL     1      98.248 126.062  82.047  0.00  0.00    +0.000 F 
ENDBRANCH   9  10
ENDBRANCH   1   9
TORSDOF 3
ENDMDL
