MODEL 1
REMARK VINA RESULT:      -5.1      0.000      0.000
REMARK  Name = *****
REMARK  4 active torsions:
REMARK  status: ('A' for Active; 'I' for Inactive)
REMARK    1  A    between atoms: C_4  and  C_10
REMARK    2  A    between atoms: C_5  and  C_7
REMARK    3  A    between atoms: C_7  and  C_8
REMARK    4  A    between atoms: C_11  and  C_12
REMARK                            x       y       z     vdW  Elec       q    Type
REMARK                         _______ _______ _______ _____ _____    ______ ____
ROOT
ATOM      1  C   UNL     1     101.728 127.368  83.277  0.00  0.00    +0.000 C 
ATOM      2  C   UNL     1     102.476 127.261  82.169  0.00  0.00    +0.000 C 
ENDROOT
BRANCH   2   3
ATOM      3  C   UNL     1     103.164 126.028  81.765  0.00  0.00    +0.000 A 
ATOM      4  C   UNL     1     103.412 124.983  82.664  0.00  0.00    +0.000 A 
ATOM      5  C   UNL     1     104.096 123.833  82.252  0.00  0.00    +0.000 A 
ATOM      6  C   UNL     1     104.546 123.723  80.933  0.00  0.00    +0.000 A 
ATOM      7  C   UNL     1     104.316 124.769  80.034  0.00  0.00    +0.000 A 
ATOM      8  C   UNL     1     103.636 125.916  80.451  0.00  0.00    +0.000 A 
ATOM      9 CL   UNL     1     105.395 122.336  80.352  0.00  0.00    +0.000 Cl
ATOM     10 CL   UNL     1     104.354 122.588  83.423  0.00  0.00    +0.000 Cl
ENDBRANCH   2   3
BRANCH   1  14
ATOM     11  C   UNL     1      99.817 131.042  84.326  0.00  0.00    +0.000 A 
ATOM     12  C   UNL     1     101.160 130.832  84.624  0.00  0.00    +0.000 A 
ATOM     13  C   UNL     1     101.768 129.627  84.276  0.00  0.00    +0.000 A 
ATOM     14  C   UNL     1     101.040 128.618  83.627  0.00  0.00    +0.000 A 
ATOM     15  C   UNL     1      99.677 128.822  83.334  0.00  0.00    +0.000 A 
ATOM     16  C   UNL     1      99.082 130.047  83.683  0.00  0.00    +0.000 A 
BRANCH  15  17
ATOM     17  C   UNL     1      98.840 127.796  82.606  0.00  0.00    +0.000 C 
BRANCH  17  18
ATOM     18  C   UNL     1      97.778 127.207  83.497  0.00  0.00    +0.000 C 
ATOM     19  O   UNL     1      96.629 126.986  83.123  0.00  0.00    +0.000 OA
ENDBRANCH  17  18
ENDBRANCH  15  17
ENDBRANCH   1  14
TORSDOF 4
ENDMDL
