MODEL 1
REMARK VINA RESULT:      -5.0      0.000      0.000
REMARK  Name = *****
REMARK  5 active torsions:
REMARK  status: ('A' for Active; 'I' for Inactive)
REMARK    1  A    between atoms: C_1  and  C_2
REMARK    2  A    between atoms: C_5  and  C_8
REMARK    3  A    between atoms: C_10  and  C_11
REMARK    4  A    between atoms: C_14  and  O_17
REMARK    5  A    between atoms: O_17  and  C_18
REMARK                            x       y       z     vdW  Elec       q    Type
REMARK                         _______ _______ _______ _____ _____    ______ ____
ROOT
ATOM      1  C   UNL     1     103.404 126.790  81.595  0.00  0.00    +0.000 C 
ATOM      2  C   UNL     1     103.625 127.147  80.148  0.00  0.00    +0.000 C 
ATOM      3  C   UNL     1     103.329 125.716  80.517  0.00  0.00    +0.000 C 
ENDROOT
BRANCH   1   8
ATOM      4  C   UNL     1      98.553 128.408  84.434  0.00  0.00    +0.000 C 
ATOM      5  C   UNL     1      99.786 127.998  83.685  0.00  0.00    +0.000 A 
ATOM      6  C   UNL     1      99.804 126.839  82.907  0.00  0.00    +0.000 A 
ATOM      7  C   UNL     1     100.967 126.459  82.230  0.00  0.00    +0.000 A 
ATOM      8  C   UNL     1     102.144 127.220  82.308  0.00  0.00    +0.000 A 
ATOM      9  C   UNL     1     102.113 128.372  83.108  0.00  0.00    +0.000 A 
ATOM     10  C   UNL     1     100.953 128.759  83.787  0.00  0.00    +0.000 A 
ENDBRANCH   1   8
BRANCH   3  11
ATOM     11  C   UNL     1     104.409 124.663  80.443  0.00  0.00    +0.000 A 
ATOM     12  C   UNL     1     105.478 124.779  79.539  0.00  0.00    +0.000 A 
ATOM     13  C   UNL     1     106.496 123.820  79.473  0.00  0.00    +0.000 A 
ATOM     14  C   UNL     1     106.471 122.717  80.322  0.00  0.00    +0.000 A 
ATOM     15  C   UNL     1     105.422 122.587  81.232  0.00  0.00    +0.000 A 
ATOM     16  C   UNL     1     104.409 123.549  81.294  0.00  0.00    +0.000 A 
BRANCH  14  17
ATOM     17  O   UNL     1     107.396 121.710  80.365  0.00  0.00    +0.000 OA
ATOM     18  C   UNL     1     107.154 120.656  81.288  0.00  0.00    +0.000 C 
ENDBRANCH  14  17
ENDBRANCH   3  11
TORSDOF 3
ENDMDL
