REMARK  Name = *****
REMARK  7 active torsions:
REMARK  status: ('A' for Active; 'I' for Inactive)
REMARK    1  A    between atoms: C_1  and  C_2
REMARK    2  A    between atoms: C_4  and  C_18
REMARK    3  A    between atoms: C_5  and  C_8
REMARK    4  A    between atoms: C_8  and  N_9
REMARK    5  A    between atoms: N_9  and  C_10
REMARK    6  A    between atoms: N_9  and  O_16
REMARK    7  A    between atoms: O_16  and  C_17
REMARK                            x       y       z     vdW  Elec       q    Type
REMARK                         _______ _______ _______ _____ _____    ______ ____
ROOT
ATOM      1  C   UNL     1      -2.317  -1.843   0.149  0.00  0.00    +0.000 C 
ENDROOT
BRANCH   1   6
ATOM      2  C   UNL     1       1.837   2.000  -1.313  0.00  0.00    +0.000 C 
ATOM      3  C   UNL     1       0.782   0.997  -0.952  0.00  0.00    +0.000 A 
ATOM      4  C   UNL     1       0.021   0.377  -1.951  0.00  0.00    +0.000 A 
ATOM      5  C   UNL     1      -0.997  -0.540  -1.634  0.00  0.00    +0.000 A 
ATOM      6  C   UNL     1      -1.250  -0.852  -0.282  0.00  0.00    +0.000 A 
ATOM      7  C   UNL     1      -0.492  -0.209   0.715  0.00  0.00    +0.000 A 
ATOM      8  C   UNL     1       0.507   0.708   0.384  0.00  0.00    +0.000 A 
ATOM      9  C   UNL     1      -1.745  -1.202  -2.759  0.00  0.00    +0.000 C 
ENDBRANCH   1   6
BRANCH   1  10
ATOM     10  N   UNL     1      -2.047  -3.240  -0.269  0.00  0.00    +0.000 N 
BRANCH  10  11
ATOM     11  C   UNL     1      -1.081  -3.859   0.578  0.00  0.00    +0.000 A 
ATOM     12  C   UNL     1      -1.462  -4.745   1.597  0.00  0.00    +0.000 A 
ATOM     13  C   UNL     1      -0.505  -5.354   2.413  0.00  0.00    +0.000 A 
ATOM     14  C   UNL     1       0.849  -5.094   2.214  0.00  0.00    +0.000 A 
ATOM     15  C   UNL     1       1.246  -4.231   1.195  0.00  0.00    +0.000 A 
ATOM     16  C   UNL     1       0.287  -3.624   0.380  0.00  0.00    +0.000 A 
ENDBRANCH  10  11
BRANCH  10  17
ATOM     17  O   UNL     1      -3.284  -3.914  -0.398  0.00  0.00    +0.000 OA
ATOM     18  C   UNL     1      -3.233  -4.639  -1.625  0.00  0.00    +0.000 C 
ENDBRANCH  10  17
ENDBRANCH   1  10
TORSDOF 4
