MODEL 1
REMARK VINA RESULT:      -4.7      0.000      0.000
REMARK  Name = *****
REMARK  3 active torsions:
REMARK  status: ('A' for Active; 'I' for Inactive)
REMARK    1  A    between atoms: C_4  and  C_7
REMARK    2  A    between atoms: C_7  and  O_8
REMARK    3  A    between atoms: O_8  and  C_9
REMARK                            x       y       z     vdW  Elec       q    Type
REMARK                         _______ _______ _______ _____ _____    ______ ____
ROOT
ATOM      1  C   UNL     1     103.211 125.586  81.039  0.00  0.00    +0.000 C 
ATOM      2  C   UNL     1     103.768 126.466  80.180  0.00  0.00    +0.000 C 
ATOM      3  C   UNL     1     105.083 125.719  80.043  0.00  0.00    +0.000 C 
ATOM      4  C   UNL     1     104.448 124.665  81.007  0.00  0.00    +0.000 C 
ATOM      5  F   UNL     1     104.272 123.420  80.487  0.00  0.00    +0.000 F 
ATOM      6  F   UNL     1     105.100 124.471  82.184  0.00  0.00    +0.000 F 
ATOM      7  F   UNL     1     106.204 126.329  80.510  0.00  0.00    +0.000 F 
ATOM      8  F   UNL     1     105.416 125.252  78.811  0.00  0.00    +0.000 F 
ATOM      9  F   UNL     1     103.331 127.588  79.660  0.00  0.00    +0.000 F 
ENDROOT
BRANCH   1  10
ATOM     10  O   UNL     1     102.078 125.535  81.640  0.00  0.00    +0.000 OA
BRANCH  10  11
ATOM     11  C   UNL     1     102.081 126.111  82.948  0.00  0.00    +0.000 C 
BRANCH  11  15
ATOM     12  C   UNL     1      98.932 129.059  83.198  0.00  0.00    +0.000 A 
ATOM     13  C   UNL     1     100.196 129.353  83.703  0.00  0.00    +0.000 A 
ATOM     14  C   UNL     1     101.216 128.402  83.631  0.00  0.00    +0.000 A 
ATOM     15  C   UNL     1     100.980 127.140  83.067  0.00  0.00    +0.000 A 
ATOM     16  C   UNL     1      99.706 126.863  82.548  0.00  0.00    +0.000 A 
ATOM     17  C   UNL     1      98.687 127.816  82.618  0.00  0.00    +0.000 A 
ENDBRANCH  11  15
ENDBRANCH  10  11
ENDBRANCH   1  10
TORSDOF 3
ENDMDL
