MODEL 1
REMARK VINA RESULT:      -4.4      0.000      0.000
REMARK  Name = *****
REMARK  4 active torsions:
REMARK  status: ('A' for Active; 'I' for Inactive)
REMARK    1  A    between atoms: C_1  and  O_2
REMARK    2  A    between atoms: O_2  and  C_3
REMARK    3  A    between atoms: C_3  and  C_10
REMARK    4  A    between atoms: C_11  and  C_12
REMARK                            x       y       z     vdW  Elec       q    Type
REMARK                         _______ _______ _______ _____ _____    ______ ____
ROOT
ATOM      1  C   UNL     1      90.106  66.087  85.990  0.00  0.00    +0.000 C 
ATOM      2  C   UNL     1      90.135  66.178  84.472  0.00  0.00    +0.000 C 
ATOM      3  C   UNL     1      91.326  65.601  85.193  0.00  0.00    +0.000 C 
ATOM      4  C   UNL     1      91.691  64.157  85.010  0.00  0.00    +0.000 C 
ATOM      5  C   UNL     1      91.149  63.584  83.704  0.00  0.00    +0.000 C 
ATOM      6  C   UNL     1      89.651  63.834  83.583  0.00  0.00    +0.000 C 
ATOM      7  C   UNL     1      89.340  65.328  83.525  0.00  0.00    +0.000 C 
ENDROOT
BRANCH   1   9
ATOM      8  C   UNL     1      89.615  68.440  86.211  0.00  0.00    +0.000 C 
ATOM      9  O   UNL     1      90.397  67.344  86.667  0.00  0.00    +0.000 OA
ENDBRANCH   1   9
BRANCH   1  10
ATOM     10  C   UNL     1      89.264  65.084  86.671  0.00  0.00    +0.000 C 
ATOM     11  C   UNL     1      88.577  65.265  87.812  0.00  0.00    +0.000 C 
BRANCH  11  12
ATOM     12  C   UNL     1      87.767  64.228  88.463  0.00  0.00    +0.000 A 
ATOM     13  C   UNL     1      87.322  63.091  87.778  0.00  0.00    +0.000 A 
ATOM     14  C   UNL     1      86.580  62.108  88.440  0.00  0.00    +0.000 A 
ATOM     15  C   UNL     1      86.285  62.249  89.794  0.00  0.00    +0.000 A 
ATOM     16  C   UNL     1      86.736  63.369  90.489  0.00  0.00    +0.000 A 
ATOM     17  C   UNL     1      87.479  64.351  89.829  0.00  0.00    +0.000 A 
ENDBRANCH  11  12
ENDBRANCH   1  10
TORSDOF 3
ENDMDL
