MODEL 1
REMARK VINA RESULT:      -5.3      0.000      0.000
REMARK  Name = *****
REMARK  4 active torsions:
REMARK  status: ('A' for Active; 'I' for Inactive)
REMARK    1  A    between atoms: C_3  and  C_18
REMARK    2  A    between atoms: C_6  and  C_7
REMARK    3  A    between atoms: C_7  and  O_9
REMARK    4  A    between atoms: O_9  and  C_10
REMARK                            x       y       z     vdW  Elec       q    Type
REMARK                         _______ _______ _______ _____ _____    ______ ____
ROOT
ATOM      1  C   UNL     1     103.346 127.264  82.093  0.00  0.00    +0.000 C 
ATOM      2  O   UNL     1     103.544 128.175  81.304  0.00  0.00    +0.000 OA
ENDROOT
BRANCH   1   8
ATOM      3  C   UNL     1     104.054 125.369  80.557  0.00  0.00    +0.000 A 
ATOM      4  C   UNL     1     104.451 124.039  80.382  0.00  0.00    +0.000 A 
ATOM      5  C   UNL     1     104.570 123.176  81.483  0.00  0.00    +0.000 A 
ATOM      6  C   UNL     1     104.298 123.674  82.765  0.00  0.00    +0.000 A 
ATOM      7  C   UNL     1     103.899 125.002  82.942  0.00  0.00    +0.000 A 
ATOM      8  C   UNL     1     103.774 125.859  81.840  0.00  0.00    +0.000 A 
BRANCH   5   9
ATOM      9  C   UNL     1     105.023 121.747  81.290  0.00  0.00    +0.000 C 
ATOM     10  F   UNL     1     105.308 121.118  82.464  0.00  0.00    +0.000 F 
ATOM     11  F   UNL     1     104.078 120.984  80.676  0.00  0.00    +0.000 F 
ATOM     12  F   UNL     1     106.146 121.640  80.528  0.00  0.00    +0.000 F 
ENDBRANCH   5   9
ENDBRANCH   1   8
BRANCH   1  13
ATOM     13  O   UNL     1     102.713 127.348  83.319  0.00  0.00    +0.000 OA
BRANCH  13  14
ATOM     14  C   UNL     1     101.353 127.649  83.221  0.00  0.00    +0.000 A 
ATOM     15  C   UNL     1     100.889 128.912  83.585  0.00  0.00    +0.000 A 
ATOM     16  C   UNL     1      99.537 129.195  83.430  0.00  0.00    +0.000 A 
ATOM     17  C   UNL     1      98.658 128.251  82.911  0.00  0.00    +0.000 A 
ATOM     18  C   UNL     1      99.151 127.006  82.538  0.00  0.00    +0.000 A 
ATOM     19  C   UNL     1     100.499 126.692  82.680  0.00  0.00    +0.000 A 
ATOM     20  F   UNL     1      98.315 126.094  82.024  0.00  0.00    +0.000 F 
ATOM     21  F   UNL     1      99.072 130.401  83.780  0.00  0.00    +0.000 F 
ENDBRANCH  13  14
ENDBRANCH   1  13
TORSDOF 4
ENDMDL
