MODEL 1
REMARK VINA RESULT:      -4.5      0.000      0.000
REMARK  Name = *****
REMARK  3 active torsions:
REMARK  status: ('A' for Active; 'I' for Inactive)
REMARK    1  A    between atoms: C_4  and  C_7
REMARK    2  A    between atoms: C_7  and  O_9
REMARK    3  A    between atoms: O_9  and  C_10
REMARK                            x       y       z     vdW  Elec       q    Type
REMARK                         _______ _______ _______ _____ _____    ______ ____
ROOT
ATOM      1  O   UNL     1     102.457 126.784  83.130  0.00  0.00    +0.000 OA
ENDROOT
BRANCH   1   2
ATOM      2  C   UNL     1     101.186 127.368  83.092  0.00  0.00    +0.000 A 
ATOM      3  C   UNL     1     100.990 128.682  83.540  0.00  0.00    +0.000 A 
ATOM      4  C   UNL     1      99.706 129.233  83.453  0.00  0.00    +0.000 A 
ATOM      5  C   UNL     1      98.651 128.481  82.916  0.00  0.00    +0.000 A 
ATOM      6  C   UNL     1      98.871 127.180  82.459  0.00  0.00    +0.000 A 
ATOM      7  C   UNL     1     100.143 126.621  82.538  0.00  0.00    +0.000 A 
ATOM      8 CL   UNL     1      99.349 130.841  83.979  0.00  0.00    +0.000 Cl
ATOM      9 CL   UNL     1     102.329 129.584  84.165  0.00  0.00    +0.000 Cl
ENDBRANCH   1   2
BRANCH   1  10
ATOM     10  C   UNL     1     102.964 126.533  81.857  0.00  0.00    +0.000 C 
ATOM     11  O   UNL     1     103.098 127.356  80.962  0.00  0.00    +0.000 OA
BRANCH  10  15
ATOM     12  C   UNL     1     105.354 122.900  81.779  0.00  0.00    +0.000 C 
ATOM     13  C   UNL     1     104.417 123.116  82.963  0.00  0.00    +0.000 C 
ATOM     14  C   UNL     1     103.974 124.573  83.066  0.00  0.00    +0.000 C 
ATOM     15  C   UNL     1     103.337 125.063  81.760  0.00  0.00    +0.000 C 
ATOM     16  C   UNL     1     104.277 124.841  80.572  0.00  0.00    +0.000 C 
ATOM     17  C   UNL     1     104.732 123.387  80.474  0.00  0.00    +0.000 C 
ENDBRANCH  10  15
ENDBRANCH   1  10
TORSDOF 3
ENDMDL
