MODEL 1
REMARK VINA RESULT:      -4.3      0.000      0.000
REMARK  Name = *****
REMARK  4 active torsions:
REMARK  status: ('A' for Active; 'I' for Inactive)
REMARK    1  A    between atoms: C_1  and  C_2
REMARK    2  A    between atoms: C_3  and  C_9
REMARK    3  A    between atoms: N_11  and  C_12
REMARK    4  A    between atoms: N_11  and  C_13
REMARK                            x       y       z     vdW  Elec       q    Type
REMARK                         _______ _______ _______ _____ _____    ______ ____
ROOT
ATOM      1  C   UNL     1      89.142  69.014  86.388  0.00  0.00    +0.000 C 
ATOM      2  O   UNL     1      89.918  69.581  87.155  0.00  0.00    +0.000 OA
ATOM      3  N   UNL     1      88.818  69.396  85.070  0.00  0.00    +0.000 N 
ATOM      4  C   UNL     1      88.059  68.511  84.181  0.00  0.00    +0.000 C 
ENDROOT
BRANCH   1   7
ATOM      5  C   UNL     1      90.530  66.475  85.969  0.00  0.00    +0.000 C 
ATOM      6  C   UNL     1      89.230  66.544  86.721  0.00  0.00    +0.000 A 
ATOM      7  C   UNL     1      88.557  67.766  86.922  0.00  0.00    +0.000 A 
ATOM      8  C   UNL     1      87.370  67.818  87.665  0.00  0.00    +0.000 A 
ATOM      9  C   UNL     1      86.831  66.641  88.190  0.00  0.00    +0.000 A 
ATOM     10  C   UNL     1      87.481  65.423  87.987  0.00  0.00    +0.000 A 
ATOM     11  C   UNL     1      88.673  65.374  87.261  0.00  0.00    +0.000 A 
ATOM     12 CL   UNL     1      86.514  69.291  87.945  0.00  0.00    +0.000 Cl
ENDBRANCH   1   7
BRANCH   3  13
ATOM     13  C   UNL     1      89.295  70.640  84.505  0.00  0.00    +0.000 A 
ATOM     14  C   UNL     1      88.471  71.771  84.396  0.00  0.00    +0.000 A 
ATOM     15  C   UNL     1      88.937  72.966  83.833  0.00  0.00    +0.000 A 
ATOM     16  C   UNL     1      90.241  73.056  83.359  0.00  0.00    +0.000 A 
ATOM     17  C   UNL     1      91.076  71.949  83.445  0.00  0.00    +0.000 A 
ATOM     18  C   UNL     1      90.606  70.755  84.008  0.00  0.00    +0.000 A 
ENDBRANCH   3  13
TORSDOF 2
ENDMDL
