REMARK  Name = *****
REMARK  4 active torsions:
REMARK  status: ('A' for Active; 'I' for Inactive)
REMARK    1  A    between atoms: C_1  and  C_2
REMARK    2  A    between atoms: C_5  and  C_7
REMARK    3  A    between atoms: C_7  and  C_8
REMARK    4  A    between atoms: C_8  and  C_9
REMARK                            x       y       z     vdW  Elec       q    Type
REMARK                         _______ _______ _______ _____ _____    ______ ____
ROOT
ATOM      1  C   UNL     1       5.224   1.049  -1.800  0.00  0.00    +0.000 C 
ENDROOT
BRANCH   1   6
ATOM      2  C   UNL     1       5.094   4.238   1.775  0.00  0.00    +0.000 C 
ATOM      3  C   UNL     1       4.787   2.942   1.105  0.00  0.00    +0.000 C 
ATOM      4  C   UNL     1       3.575   2.514   0.731  0.00  0.00    +0.000 C 
ATOM      5  C   UNL     1       3.534   1.156   0.103  0.00  0.00    +0.000 C 
ATOM      6  C   UNL     1       4.966   0.771  -0.311  0.00  0.00    +0.000 C 
ATOM      7  S   UNL     1       6.049   1.799   0.762  0.00  0.00    +0.000 S 
ENDBRANCH   1   6
BRANCH   1   8
ATOM      8  C   UNL     1       6.605   0.580  -2.273  0.00  0.00    +0.000 C 
BRANCH   8   9
ATOM      9  C   UNL     1       6.773   0.778  -3.760  0.00  0.00    +0.000 A 
ATOM     10  C   UNL     1       7.213   2.009  -4.265  0.00  0.00    +0.000 A 
ATOM     11  C   UNL     1       7.350   2.200  -5.640  0.00  0.00    +0.000 A 
ATOM     12  C   UNL     1       7.045   1.166  -6.523  0.00  0.00    +0.000 A 
ATOM     13  C   UNL     1       6.601  -0.060  -6.032  0.00  0.00    +0.000 A 
ATOM     14  C   UNL     1       6.463  -0.254  -4.656  0.00  0.00    +0.000 A 
ENDBRANCH   8   9
ENDBRANCH   1   8
TORSDOF 3
