MODEL 1
REMARK VINA RESULT:      -4.4      0.000      0.000
REMARK  Name = *****
REMARK  6 active torsions:
REMARK  status: ('A' for Active; 'I' for Inactive)
REMARK    1  A    between atoms: C_1  and  O_2
REMARK    2  A    between atoms: O_2  and  C_3
REMARK    3  A    between atoms: C_3  and  C_5
REMARK    4  A    between atoms: C_5  and  C_6
REMARK    5  A    between atoms: C_5  and  C_13
REMARK    6  A    between atoms: C_6  and  C_7
REMARK                            x       y       z     vdW  Elec       q    Type
REMARK                         _______ _______ _______ _____ _____    ______ ____
ROOT
ATOM      1  C   UNL     1      88.862  69.676  86.424  0.00  0.00    +0.000 C 
ENDROOT
BRANCH   1   2
ATOM      2  C   UNL     1      88.128  70.394  87.544  0.00  0.00    +0.000 A 
ATOM      3  C   UNL     1      86.834  70.890  87.326  0.00  0.00    +0.000 A 
ATOM      4  C   UNL     1      86.142  71.546  88.345  0.00  0.00    +0.000 A 
ATOM      5  C   UNL     1      86.735  71.716  89.594  0.00  0.00    +0.000 A 
ATOM      6  C   UNL     1      88.022  71.233  89.824  0.00  0.00    +0.000 A 
ATOM      7  C   UNL     1      88.715  70.578  88.805  0.00  0.00    +0.000 A 
ENDBRANCH   1   2
BRANCH   1   8
ATOM      8  C   UNL     1      89.047  68.197  86.755  0.00  0.00    +0.000 C 
ATOM      9  O   UNL     1      88.166  67.452  87.167  0.00  0.00    +0.000 OA
BRANCH   8  11
ATOM     10  C   UNL     1      90.475  66.537  85.923  0.00  0.00    +0.000 C 
ATOM     11  O   UNL     1      90.342  67.820  86.534  0.00  0.00    +0.000 OA
ENDBRANCH   8  11
ENDBRANCH   1   8
BRANCH   1  12
ATOM     12  C   UNL     1      88.175  69.810  85.045  0.00  0.00    +0.000 C 
BRANCH  12  13
ATOM     13  C   UNL     1      88.846  70.791  84.059  0.00  0.00    +0.000 C 
ATOM     14  C   UNL     1      90.358  70.855  84.350  0.00  0.00    +0.000 C 
ATOM     15  C   UNL     1      91.078  71.833  83.427  0.00  0.00    +0.000 C 
ATOM     16  C   UNL     1      90.457  73.223  83.490  0.00  0.00    +0.000 C 
ATOM     17  C   UNL     1      88.962  73.179  83.198  0.00  0.00    +0.000 C 
ATOM     18  C   UNL     1      88.233  72.200  84.118  0.00  0.00    +0.000 C 
ENDBRANCH  12  13
ENDBRANCH   1  12
TORSDOF 5
ENDMDL
