REMARK  Name = *****
REMARK  6 active torsions:
REMARK  status: ('A' for Active; 'I' for Inactive)
REMARK    1  A    between atoms: C_1  and  C_2
REMARK    2  A    between atoms: C_6  and  C_18
REMARK    3  A    between atoms: C_7  and  C_8
REMARK    4  A    between atoms: C_8  and  O_10
REMARK    5  A    between atoms: O_10  and  C_11
REMARK    6  A    between atoms: C_11  and  C_12
REMARK                            x       y       z     vdW  Elec       q    Type
REMARK                         _______ _______ _______ _____ _____    ______ ____
ROOT
ATOM      1  C   UNL     1       3.578   2.243   0.529  0.00  0.00    +0.000 C 
ATOM      2  O   UNL     1       3.593   3.466   0.617  0.00  0.00    +0.000 OA
ENDROOT
BRANCH   1   9
ATOM      3  C   UNL     1       0.779   0.091  -1.024  0.00  0.00    +0.000 C 
ATOM      4  C   UNL     1       1.888   0.416  -0.011  0.00  0.00    +0.000 C 
ATOM      5  C   UNL     1       2.628  -0.875   0.399  0.00  0.00    +0.000 C 
ATOM      6  C   UNL     1       3.776  -1.243  -0.493  0.00  0.00    +0.000 C 
ATOM      7  C   UNL     1       4.288  -0.430  -1.427  0.00  0.00    +0.000 C 
ATOM      8  C   UNL     1       3.777   0.965  -1.688  0.00  0.00    +0.000 C 
ATOM      9  C   UNL     1       2.841   1.499  -0.577  0.00  0.00    +0.000 C 
ATOM     10  C   UNL     1       4.933   1.917  -2.009  0.00  0.00    +0.000 C 
ENDBRANCH   1   9
BRANCH   1  11
ATOM     11  O   UNL     1       4.236   1.408   1.366  0.00  0.00    +0.000 OA
BRANCH  11  12
ATOM     12  C   UNL     1       4.967   2.061   2.408  0.00  0.00    +0.000 C 
BRANCH  12  13
ATOM     13  C   UNL     1       5.515   1.013   3.345  0.00  0.00    +0.000 A 
ATOM     14  C   UNL     1       6.208  -0.101   2.847  0.00  0.00    +0.000 A 
ATOM     15  C   UNL     1       6.730  -1.060   3.716  0.00  0.00    +0.000 A 
ATOM     16  C   UNL     1       6.572  -0.913   5.093  0.00  0.00    +0.000 A 
ATOM     17  C   UNL     1       5.894   0.194   5.601  0.00  0.00    +0.000 A 
ATOM     18  C   UNL     1       5.371   1.154   4.733  0.00  0.00    +0.000 A 
ENDBRANCH  12  13
ENDBRANCH  11  12
ENDBRANCH   1  11
TORSDOF 4
