REMARK  Name = *****
REMARK  2 active torsions:
REMARK  status: ('A' for Active; 'I' for Inactive)
REMARK    1  A    between atoms: C_4  and  C_7
REMARK    2  A    between atoms: C_8  and  C_9
REMARK                            x       y       z     vdW  Elec       q    Type
REMARK                         _______ _______ _______ _____ _____    ______ ____
ROOT
ATOM      1  C   UNL     1      -2.789   0.529  -0.183  0.00  0.00    +0.000 C 
ATOM      2  C   UNL     1      -3.379   1.736  -0.264  0.00  0.00    +0.000 C 
ATOM      3  F   UNL     1      -2.608   2.851  -0.284  0.00  0.00    +0.000 F 
ATOM      4  F   UNL     1      -3.556  -0.588  -0.161  0.00  0.00    +0.000 F 
ENDROOT
BRANCH   1   8
ATOM      5  C   UNL     1       1.414  -0.280   0.112  0.00  0.00    +0.000 A 
ATOM      6  C   UNL     1       0.481  -1.115   0.721  0.00  0.00    +0.000 A 
ATOM      7  C   UNL     1      -0.884  -0.832   0.616  0.00  0.00    +0.000 A 
ATOM      8  C   UNL     1      -1.336   0.295  -0.089  0.00  0.00    +0.000 A 
ATOM      9  C   UNL     1      -0.383   1.115  -0.710  0.00  0.00    +0.000 A 
ATOM     10  C   UNL     1       0.982   0.833  -0.606  0.00  0.00    +0.000 A 
ENDBRANCH   1   8
BRANCH   2  11
ATOM     11  C   UNL     1      -4.832   1.977  -0.355  0.00  0.00    +0.000 A 
ATOM     12  C   UNL     1      -5.791   1.139   0.233  0.00  0.00    +0.000 A 
ATOM     13  C   UNL     1      -7.155   1.430   0.134  0.00  0.00    +0.000 A 
ATOM     14  C   UNL     1      -7.580   2.569  -0.546  0.00  0.00    +0.000 A 
ATOM     15  C   UNL     1      -6.642   3.421  -1.122  0.00  0.00    +0.000 A 
ATOM     16  C   UNL     1      -5.279   3.129  -1.023  0.00  0.00    +0.000 A 
ENDBRANCH   2  11
TORSDOF 2
