MODEL 1
REMARK VINA RESULT:      -4.6      0.000      0.000
REMARK  Name = *****
REMARK  3 active torsions:
REMARK  status: ('A' for Active; 'I' for Inactive)
REMARK    1  A    between atoms: C_2  and  C_3
REMARK    2  A    between atoms: C_6  and  C_8
REMARK    3  A    between atoms: C_9  and  C_10
REMARK                            x       y       z     vdW  Elec       q    Type
REMARK                         _______ _______ _______ _____ _____    ______ ____
ROOT
ATOM      1  C   UNL     1      89.744  68.997  85.997  0.00  0.00    +0.000 C 
ATOM      2  C   UNL     1      89.604  67.907  86.769  0.00  0.00    +0.000 C 
ENDROOT
BRANCH   2   3
ATOM      3  C   UNL     1      89.907  66.538  86.326  0.00  0.00    +0.000 A 
ATOM      4  C   UNL     1      91.034  66.233  85.552  0.00  0.00    +0.000 A 
ATOM      5  C   UNL     1      91.306  64.914  85.177  0.00  0.00    +0.000 A 
ATOM      6  C   UNL     1      90.459  63.885  85.583  0.00  0.00    +0.000 A 
ATOM      7  C   UNL     1      89.344  64.173  86.367  0.00  0.00    +0.000 A 
ATOM      8  C   UNL     1      89.073  65.492  86.742  0.00  0.00    +0.000 A 
ENDBRANCH   2   3
BRANCH   1  12
ATOM      9  C   UNL     1      87.032  70.672  86.506  0.00  0.00    +0.000 C 
ATOM     10  C   UNL     1      87.527  70.917  87.930  0.00  0.00    +0.000 C 
ATOM     11  C   UNL     1      88.970  70.409  87.933  0.00  0.00    +0.000 C 
ATOM     12  C   UNL     1      89.434  70.399  86.465  0.00  0.00    +0.000 C 
ATOM     13  C   UNL     1      88.270  71.007  85.672  0.00  0.00    +0.000 C 
BRANCH   9  15
ATOM     14  C   UNL     1      85.055  72.117  87.043  0.00  0.00    +0.000 C 
ATOM     15  C   UNL     1      85.838  71.507  86.145  0.00  0.00    +0.000 C 
ENDBRANCH   9  15
ENDBRANCH   1  12
TORSDOF 3
ENDMDL
