MODEL 1
REMARK VINA RESULT:      -5.3      0.000      0.000
REMARK  Name = *****
REMARK  5 active torsions:
REMARK  status: ('A' for Active; 'I' for Inactive)
REMARK    1  A    between atoms: C_1  and  C_2
REMARK    2  A    between atoms: C_4  and  O_8
REMARK    3  A    between atoms: O_8  and  C_9
REMARK    4  A    between atoms: C_9  and  C_11
REMARK    5  A    between atoms: C_14  and  C_17
REMARK                            x       y       z     vdW  Elec       q    Type
REMARK                         _______ _______ _______ _____ _____    ______ ____
ROOT
ATOM      1  C   UNL     1     103.198 126.815  81.730  0.00  0.00    +0.000 C 
ATOM      2  O   UNL     1     103.250 127.602  80.798  0.00  0.00    +0.000 OA
ENDROOT
BRANCH   1   3
ATOM      3  C   UNL     1     103.724 125.423  81.645  0.00  0.00    +0.000 A 
ATOM      4  C   UNL     1     103.782 124.668  82.825  0.00  0.00    +0.000 A 
ATOM      5  C   UNL     1     104.266 123.356  82.805  0.00  0.00    +0.000 A 
ATOM      6  C   UNL     1     104.706 122.777  81.606  0.00  0.00    +0.000 A 
ATOM      7  C   UNL     1     104.638 123.532  80.424  0.00  0.00    +0.000 A 
ATOM      8  C   UNL     1     104.156 124.845  80.443  0.00  0.00    +0.000 A 
BRANCH   6   9
ATOM      9  C   UNL     1     105.204 121.351  81.581  0.00  0.00    +0.000 C 
ATOM     10  F   UNL     1     106.294 121.181  80.782  0.00  0.00    +0.000 F 
ATOM     11  F   UNL     1     105.569 120.910  82.815  0.00  0.00    +0.000 F 
ATOM     12  F   UNL     1     104.271 120.468  81.127  0.00  0.00    +0.000 F 
ENDBRANCH   6   9
ENDBRANCH   1   3
BRANCH   1  13
ATOM     13  O   UNL     1     102.672 127.037  82.989  0.00  0.00    +0.000 OA
BRANCH  13  17
ATOM     14  C   UNL     1      99.343 130.566  83.998  0.00  0.00    +0.000 C 
ATOM     15  C   UNL     1      99.699 129.197  83.497  0.00  0.00    +0.000 A 
ATOM     16  C   UNL     1     101.029 128.761  83.516  0.00  0.00    +0.000 A 
ATOM     17  C   UNL     1     101.347 127.490  83.037  0.00  0.00    +0.000 A 
ATOM     18  C   UNL     1     100.370 126.662  82.489  0.00  0.00    +0.000 A 
ATOM     19  C   UNL     1      99.048 127.100  82.452  0.00  0.00    +0.000 A 
ATOM     20  C   UNL     1      98.715 128.361  82.951  0.00  0.00    +0.000 A 
ENDBRANCH  13  17
ENDBRANCH   1  13
TORSDOF 4
ENDMDL
