REMARK  Name = *****
REMARK  4 active torsions:
REMARK  status: ('A' for Active; 'I' for Inactive)
REMARK    1  A    between atoms: C_1  and  C_2
REMARK    2  A    between atoms: C_5  and  C_8
REMARK    3  A    between atoms: C_8  and  O_10
REMARK    4  A    between atoms: O_10  and  C_11
REMARK                            x       y       z     vdW  Elec       q    Type
REMARK                         _______ _______ _______ _____ _____    ______ ____
ROOT
ATOM      1  C   UNL     1      -2.288   0.216  -1.448  0.00  0.00    +0.000 C 
ATOM      2  O   UNL     1      -1.953  -0.552  -2.340  0.00  0.00    +0.000 OA
ENDROOT
BRANCH   1   7
ATOM      3  C   UNL     1       2.573  -0.068  -0.461  0.00  0.00    +0.000 C 
ATOM      4  C   UNL     1       1.178  -0.002   0.157  0.00  0.00    +0.000 C 
ATOM      5  C   UNL     1       0.465   1.292  -0.251  0.00  0.00    +0.000 C 
ATOM      6  C   UNL     1      -0.938   1.370   0.347  0.00  0.00    +0.000 C 
ATOM      7  C   UNL     1      -1.800   0.153  -0.003  0.00  0.00    +0.000 C 
ATOM      8  C   UNL     1      -1.075  -1.164   0.308  0.00  0.00    +0.000 C 
ATOM      9  C   UNL     1       0.349  -1.226  -0.246  0.00  0.00    +0.000 C 
ENDBRANCH   1   7
BRANCH   1  10
ATOM     10  O   UNL     1      -3.188   1.274  -1.564  0.00  0.00    +0.000 OA
BRANCH  10  11
ATOM     11  C   UNL     1      -3.689   1.435  -2.856  0.00  0.00    +0.000 A 
ATOM     12  C   UNL     1      -4.896   0.830  -3.197  0.00  0.00    +0.000 A 
ATOM     13  C   UNL     1      -5.423   1.036  -4.471  0.00  0.00    +0.000 A 
ATOM     14  C   UNL     1      -4.748   1.852  -5.382  0.00  0.00    +0.000 A 
ATOM     15  C   UNL     1      -3.547   2.468  -5.021  0.00  0.00    +0.000 A 
ATOM     16  C   UNL     1      -3.015   2.266  -3.749  0.00  0.00    +0.000 A 
ENDBRANCH  10  11
ENDBRANCH   1  10
TORSDOF 3
