MODEL 1
REMARK VINA RESULT:      -4.2      0.000      0.000
REMARK  Name = *****
REMARK  4 active torsions:
REMARK  status: ('A' for Active; 'I' for Inactive)
REMARK    1  A    between atoms: C_1  and  N_2
REMARK    2  A    between atoms: C_3  and  C_4
REMARK    3  A    between atoms: C_3  and  S_10
REMARK    4  A    between atoms: S_10  and  C_11
REMARK                            x       y       z     vdW  Elec       q    Type
REMARK                         _______ _______ _______ _____ _____    ______ ____
ROOT
ATOM      1  C   UNL     1     102.476 125.661  84.948  0.00  0.00    +0.000 C 
ATOM      2  N   UNL     1     101.156 126.050  84.473  0.00  0.00    +0.000 NA
ATOM      3  C   UNL     1     101.053 126.534  83.283  0.00  0.00    +0.000 C 
ENDROOT
BRANCH   3   4
ATOM      4  C   UNL     1     102.144 126.751  82.316  0.00  0.00    +0.000 A 
ATOM      5  C   UNL     1     102.820 127.974  82.303  0.00  0.00    +0.000 A 
ATOM      6  C   UNL     1     103.848 128.179  81.384  0.00  0.00    +0.000 A 
ATOM      7  C   UNL     1     104.194 127.165  80.487  0.00  0.00    +0.000 A 
ATOM      8  C   UNL     1     103.514 125.945  80.504  0.00  0.00    +0.000 A 
ATOM      9  C   UNL     1     102.484 125.734  81.419  0.00  0.00    +0.000 A 
ENDBRANCH   3   4
BRANCH   3  10
ATOM     10  S   UNL     1      99.457 126.984  82.695  0.00  0.00    +0.000 S 
BRANCH  10  11
ATOM     11  C   UNL     1      99.116 128.374  83.758  0.00  0.00    +0.000 A 
ATOM     12  C   UNL     1      99.621 129.636  83.429  0.00  0.00    +0.000 A 
ATOM     13  C   UNL     1      99.366 130.734  84.255  0.00  0.00    +0.000 A 
ATOM     14  C   UNL     1      98.600 130.575  85.409  0.00  0.00    +0.000 A 
ATOM     15  C   UNL     1      98.086 129.321  85.738  0.00  0.00    +0.000 A 
ATOM     16  C   UNL     1      98.341 128.225  84.912  0.00  0.00    +0.000 A 
ENDBRANCH  10  11
ENDBRANCH   3  10
TORSDOF 3
ENDMDL
