MODEL 1
REMARK VINA RESULT:      -4.5      0.000      0.000
REMARK  Name = *****
REMARK  6 active torsions:
REMARK  status: ('A' for Active; 'I' for Inactive)
REMARK    1  A    between atoms: C_1  and  C_2
REMARK    2  A    between atoms: C_5  and  S_8
REMARK    3  A    between atoms: S_8  and  C_9
REMARK    4  A    between atoms: C_9  and  C_10
REMARK    5  A    between atoms: C_12  and  O_16
REMARK    6  A    between atoms: O_16  and  C_17
REMARK                            x       y       z     vdW  Elec       q    Type
REMARK                         _______ _______ _______ _____ _____    ______ ____
ROOT
ATOM      1  C   UNL     1      88.072  69.196  87.417  0.00  0.00    +0.000 C 
ENDROOT
BRANCH   1   2
ATOM      2  C   UNL     1      89.550  69.312  86.990  0.00  0.00    +0.000 C 
ATOM      3  C   UNL     1      90.016  68.170  86.061  0.00  0.00    +0.000 C 
ATOM      4  C   UNL     1      89.542  68.367  84.615  0.00  0.00    +0.000 C 
ATOM      5  C   UNL     1      90.081  69.696  84.059  0.00  0.00    +0.000 C 
ATOM      6  C   UNL     1      90.019  70.832  85.037  0.00  0.00    +0.000 C 
ATOM      7  C   UNL     1      89.771  70.664  86.344  0.00  0.00    +0.000 C 
BRANCH   4   8
ATOM      8  O   UNL     1      90.026  67.318  83.766  0.00  0.00    +0.000 OA
ATOM      9  C   UNL     1      90.076  66.051  84.407  0.00  0.00    +0.000 C 
ENDBRANCH   4   8
ENDBRANCH   1   2
BRANCH   1  10
ATOM     10  S   UNL     1      87.594  70.489  88.622  0.00  0.00    +0.000 S 
BRANCH  10  15
ATOM     11  C   UNL     1      82.959  73.343  85.860  0.00  0.00    +0.000 C 
ATOM     12  C   UNL     1      84.087  72.610  86.522  0.00  0.00    +0.000 A 
ATOM     13  C   UNL     1      85.120  72.058  85.756  0.00  0.00    +0.000 A 
ATOM     14  C   UNL     1      86.193  71.405  86.373  0.00  0.00    +0.000 A 
ATOM     15  C   UNL     1      86.249  71.292  87.765  0.00  0.00    +0.000 A 
ATOM     16  C   UNL     1      85.231  71.870  88.530  0.00  0.00    +0.000 A 
ATOM     17  C   UNL     1      84.159  72.524  87.916  0.00  0.00    +0.000 A 
ENDBRANCH  10  15
ENDBRANCH   1  10
TORSDOF 4
ENDMDL
