MODEL 1
REMARK VINA RESULT:      -3.8      0.000      0.000
REMARK  Name = *****
REMARK  4 active torsions:
REMARK  status: ('A' for Active; 'I' for Inactive)
REMARK    1  A    between atoms: C_1  and  S_2
REMARK    2  A    between atoms: P_5  and  C_8
REMARK    3  A    between atoms: C_8  and  C_9
REMARK    4  A    between atoms: C_9  and  C_10
REMARK                            x       y       z     vdW  Elec       q    Type
REMARK                         _______ _______ _______ _____ _____    ______ ____
ROOT
ATOM      1  C   UNL     1      86.810  63.758  86.395  0.00  0.00    +0.000 C 
ATOM      2  S   UNL     1      87.875  64.820  87.327  0.00  0.00    +0.000 S 
ATOM      3  C   UNL     1      87.100  66.404  87.496  0.00  0.00    +0.000 C 
ATOM      4  C   UNL     1      86.932  67.142  86.179  0.00  0.00    +0.000 C 
ATOM      5  P   UNL     1      88.468  67.477  85.223  0.00  0.00    +0.000 P 
ATOM      6  C   UNL     1      89.202  65.796  85.118  0.00  0.00    +0.000 C 
ATOM      7  C   UNL     1      89.385  65.050  86.429  0.00  0.00    +0.000 C 
ATOM      8  I   UNL     1      88.305  63.899  89.413  0.00  0.00    +0.000 I 
ENDROOT
BRANCH   5   9
ATOM      9  C   UNL     1      89.530  68.349  86.447  0.00  0.00    +0.000 C 
BRANCH   9  10
ATOM     10  C   UNL     1      89.498  69.870  86.269  0.00  0.00    +0.000 C 
BRANCH  10  11
ATOM     11  C   UNL     1      88.281  70.477  86.926  0.00  0.00    +0.000 A 
ATOM     12  C   UNL     1      88.158  70.485  88.322  0.00  0.00    +0.000 A 
ATOM     13  C   UNL     1      87.022  71.026  88.927  0.00  0.00    +0.000 A 
ATOM     14  C   UNL     1      86.000  71.558  88.143  0.00  0.00    +0.000 A 
ATOM     15  C   UNL     1      86.110  71.548  86.754  0.00  0.00    +0.000 A 
ATOM     16  C   UNL     1      87.245  71.007  86.147  0.00  0.00    +0.000 A 
ENDBRANCH  10  11
ENDBRANCH   9  10
ENDBRANCH   5   9
TORSDOF 3
ENDMDL
