REMARK  Name = *****
REMARK  2 active torsions:
REMARK  status: ('A' for Active; 'I' for Inactive)
REMARK    1  A    between atoms: C_4  and  C_7
REMARK    2  A    between atoms: C_7  and  C_9
REMARK                            x       y       z     vdW  Elec       q    Type
REMARK                         _______ _______ _______ _____ _____    ______ ____
ROOT
ATOM      1  C   UNL     1       0.736   2.271   1.391  0.00  0.00    +0.000 C 
ATOM      2  O   UNL     1       1.443   2.887   2.182  0.00  0.00    +0.000 OA
ENDROOT
BRANCH   1   3
ATOM      3  C   UNL     1      -0.747   2.186   1.595  0.00  0.00    +0.000 C 
ATOM      4  C   UNL     1      -1.486   3.388   2.155  0.00  0.00    +0.000 C 
ATOM      5  C   UNL     1      -1.303   2.166   3.008  0.00  0.00    +0.000 C 
ATOM      6  C   UNL     1      -2.728   1.763   3.378  0.00  0.00    +0.000 C 
ATOM      7  C   UNL     1      -3.248   2.810   4.391  0.00  0.00    +0.000 C 
ATOM      8  C   UNL     1      -3.436   4.072   3.512  0.00  0.00    +0.000 C 
ATOM      9  C   UNL     1      -2.999   3.580   2.112  0.00  0.00    +0.000 C 
ATOM     10  C   UNL     1      -3.555   2.148   2.141  0.00  0.00    +0.000 C 
ENDBRANCH   1   3
BRANCH   1  14
ATOM     11  C   UNL     1       4.084   0.594  -0.501  0.00  0.00    +0.000 C 
ATOM     12  C   UNL     1       3.386   0.219   0.806  0.00  0.00    +0.000 C 
ATOM     13  C   UNL     1       1.869   0.168   0.651  0.00  0.00    +0.000 C 
ATOM     14  C   UNL     1       1.288   1.515   0.189  0.00  0.00    +0.000 C 
ATOM     15  C   UNL     1       2.299   2.384  -0.575  0.00  0.00    +0.000 C 
ATOM     16  C   UNL     1       3.261   1.528  -1.389  0.00  0.00    +0.000 C 
ENDBRANCH   1  14
TORSDOF 2
