MODEL 1
REMARK VINA RESULT:      -4.6      0.000      0.000
REMARK  Name = *****
REMARK  3 active torsions:
REMARK  status: ('A' for Active; 'I' for Inactive)
REMARK    1  A    between atoms: C_4  and  C_7
REMARK    2  A    between atoms: C_7  and  O_9
REMARK    3  A    between atoms: O_9  and  C_10
REMARK                            x       y       z     vdW  Elec       q    Type
REMARK                         _______ _______ _______ _____ _____    ______ ____
ROOT
ATOM      1  O   UNL     1      88.298  69.605  85.996  0.00  0.00    +0.000 OA
ENDROOT
BRANCH   1   2
ATOM      2  C   UNL     1      88.633  68.290  86.330  0.00  0.00    +0.000 A 
ATOM      3  C   UNL     1      89.770  67.703  85.778  0.00  0.00    +0.000 A 
ATOM      4  C   UNL     1      90.058  66.376  86.091  0.00  0.00    +0.000 A 
ATOM      5  C   UNL     1      89.217  65.643  86.928  0.00  0.00    +0.000 A 
ATOM      6  C   UNL     1      88.075  66.246  87.452  0.00  0.00    +0.000 A 
ATOM      7  C   UNL     1      87.769  67.572  87.153  0.00  0.00    +0.000 A 
ATOM      8 CL   UNL     1      87.025  65.341  88.472  0.00  0.00    +0.000 Cl
ATOM      9 CL   UNL     1      91.462  65.632  85.429  0.00  0.00    +0.000 Cl
ENDBRANCH   1   2
BRANCH   1  10
ATOM     10  C   UNL     1      88.251  70.449  87.091  0.00  0.00    +0.000 C 
ATOM     11  O   UNL     1      89.141  70.642  87.906  0.00  0.00    +0.000 OA
BRANCH  10  15
ATOM     12  C   UNL     1      84.431  72.401  87.153  0.00  0.00    +0.000 A 
ATOM     13  C   UNL     1      85.030  72.042  88.360  0.00  0.00    +0.000 A 
ATOM     14  C   UNL     1      86.274  71.406  88.364  0.00  0.00    +0.000 A 
ATOM     15  C   UNL     1      86.925  71.124  87.154  0.00  0.00    +0.000 A 
ATOM     16  C   UNL     1      86.315  71.489  85.945  0.00  0.00    +0.000 A 
ATOM     17  C   UNL     1      85.072  72.125  85.945  0.00  0.00    +0.000 A 
ENDBRANCH  10  15
ENDBRANCH   1  10
TORSDOF 3
ENDMDL
