MODEL 1
REMARK VINA RESULT:      -5.0      0.000      0.000
REMARK  Name = *****
REMARK  3 active torsions:
REMARK  status: ('A' for Active; 'I' for Inactive)
REMARK    1  A    between atoms: C_4  and  C_7
REMARK    2  A    between atoms: C_8  and  C_9
REMARK    3  A    between atoms: C_11  and  C_15
REMARK                            x       y       z     vdW  Elec       q    Type
REMARK                         _______ _______ _______ _____ _____    ______ ____
ROOT
ATOM      1  C   UNL     1     104.017 124.979  80.783  0.00  0.00    +0.000 A 
ATOM      2  C   UNL     1     104.313 123.686  81.227  0.00  0.00    +0.000 A 
ATOM      3  C   UNL     1     105.352 122.958  80.631  0.00  0.00    +0.000 A 
ATOM      4  C   UNL     1     106.086 123.544  79.587  0.00  0.00    +0.000 A 
ATOM      5  C   UNL     1     105.787 124.834  79.145  0.00  0.00    +0.000 A 
ATOM      6  C   UNL     1     104.752 125.551  79.744  0.00  0.00    +0.000 A 
ENDROOT
BRANCH   3   7
ATOM      7  C   UNL     1     105.707 121.569  81.074  0.00  0.00    +0.000 C 
ATOM      8  O   UNL     1     106.880 121.220  80.950  0.00  0.00    +0.000 OA
ATOM      9 CL   UNL     1     104.470 120.520  81.736  0.00  0.00    +0.000 Cl
ENDBRANCH   3   7
BRANCH   1  11
ATOM     10  C   UNL     1     102.068 126.341  81.912  0.00  0.00    +0.000 C 
ATOM     11  C   UNL     1     102.956 125.716  81.397  0.00  0.00    +0.000 C 
BRANCH  10  15
ATOM     12  C   UNL     1      98.958 128.552  83.723  0.00  0.00    +0.000 A 
ATOM     13  C   UNL     1      98.657 127.438  82.939  0.00  0.00    +0.000 A 
ATOM     14  C   UNL     1      99.684 126.707  82.340  0.00  0.00    +0.000 A 
ATOM     15  C   UNL     1     101.015 127.089  82.525  0.00  0.00    +0.000 A 
ATOM     16  C   UNL     1     101.315 128.205  83.311  0.00  0.00    +0.000 A 
ATOM     17  C   UNL     1     100.286 128.936  83.908  0.00  0.00    +0.000 A 
ENDBRANCH  10  15
ENDBRANCH   1  11
TORSDOF 3
ENDMDL
