MODEL 1
REMARK VINA RESULT:      -4.7      0.000      0.000
REMARK  Name = *****
REMARK  2 active torsions:
REMARK  status: ('A' for Active; 'I' for Inactive)
REMARK    1  A    between atoms: C_6  and  C_7
REMARK    2  A    between atoms: C_8  and  C_9
REMARK                            x       y       z     vdW  Elec       q    Type
REMARK                         _______ _______ _______ _____ _____    ______ ____
ROOT
ATOM      1  C   UNL     1     102.472 125.691  82.651  0.00  0.00    +0.000 C 
ATOM      2  C   UNL     1     103.260 125.591  81.567  0.00  0.00    +0.000 C 
ATOM      3  F   UNL     1     103.289 126.605  80.670  0.00  0.00    +0.000 F 
ENDROOT
BRANCH   1   9
ATOM      4  C   UNL     1     100.243 126.864  82.598  0.00  0.00    +0.000 A 
ATOM      5  C   UNL     1      99.457 127.985  82.876  0.00  0.00    +0.000 A 
ATOM      6  C   UNL     1     100.023 129.091  83.504  0.00  0.00    +0.000 A 
ATOM      7  C   UNL     1     101.371 129.085  83.854  0.00  0.00    +0.000 A 
ATOM      8  C   UNL     1     102.156 127.962  83.575  0.00  0.00    +0.000 A 
ATOM      9  C   UNL     1     101.598 126.833  82.958  0.00  0.00    +0.000 A 
ATOM     10 CL   UNL     1      99.056 130.472  83.845  0.00  0.00    +0.000 Cl
ENDBRANCH   1   9
BRANCH   2  11
ATOM     11  C   UNL     1     104.142 124.446  81.273  0.00  0.00    +0.000 A 
ATOM     12  C   UNL     1     104.844 124.312  80.064  0.00  0.00    +0.000 A 
ATOM     13  C   UNL     1     105.680 123.212  79.843  0.00  0.00    +0.000 A 
ATOM     14  C   UNL     1     105.823 122.249  80.832  0.00  0.00    +0.000 A 
ATOM     15  C   UNL     1     105.151 122.363  82.041  0.00  0.00    +0.000 A 
ATOM     16  C   UNL     1     104.317 123.462  82.262  0.00  0.00    +0.000 A 
ATOM     17  F   UNL     1     106.625 121.198  80.618  0.00  0.00    +0.000 F 
ENDBRANCH   2  11
TORSDOF 2
ENDMDL
