REMARK  Name = *****
REMARK  2 active torsions:
REMARK  status: ('A' for Active; 'I' for Inactive)
REMARK    1  A    between atoms: C_5  and  C_7
REMARK    2  A    between atoms: C_8  and  C_9
REMARK                            x       y       z     vdW  Elec       q    Type
REMARK                         _______ _______ _______ _____ _____    ______ ____
ROOT
ATOM      1  C   UNL     1      -0.583  -2.344   0.125  0.00  0.00    +0.000 C 
ATOM      2  C   UNL     1      -1.875  -2.584  -0.150  0.00  0.00    +0.000 C 
ATOM      3  F   UNL     1      -2.673  -1.546  -0.499  0.00  0.00    +0.000 F 
ENDROOT
BRANCH   1   8
ATOM      4  C   UNL     1       0.001   1.333   0.792  0.00  0.00    +0.000 A 
ATOM      5  C   UNL     1       1.217   1.554   0.150  0.00  0.00    +0.000 A 
ATOM      6  C   UNL     1       1.852   0.504  -0.511  0.00  0.00    +0.000 A 
ATOM      7  C   UNL     1       1.270  -0.769  -0.535  0.00  0.00    +0.000 A 
ATOM      8  C   UNL     1       0.036  -1.006   0.098  0.00  0.00    +0.000 A 
ATOM      9  C   UNL     1      -0.582   0.063   0.771  0.00  0.00    +0.000 A 
ATOM     10 CL   UNL     1       2.122  -2.017  -1.381  0.00  0.00    +0.000 Cl
ENDBRANCH   1   8
BRANCH   2  11
ATOM     11  C   UNL     1      -2.509  -3.916  -0.153  0.00  0.00    +0.000 A 
ATOM     12  C   UNL     1      -1.994  -5.015   0.556  0.00  0.00    +0.000 A 
ATOM     13  C   UNL     1      -2.645  -6.252   0.530  0.00  0.00    +0.000 A 
ATOM     14  C   UNL     1      -3.819  -6.396  -0.199  0.00  0.00    +0.000 A 
ATOM     15  C   UNL     1      -4.356  -5.325  -0.899  0.00  0.00    +0.000 A 
ATOM     16  C   UNL     1      -3.705  -4.089  -0.873  0.00  0.00    +0.000 A 
ATOM     17  F   UNL     1      -4.442  -7.581  -0.221  0.00  0.00    +0.000 F 
ENDBRANCH   2  11
TORSDOF 2
