REMARK  Name = *****
REMARK  3 active torsions:
REMARK  status: ('A' for Active; 'I' for Inactive)
REMARK    1  A    between atoms: C_7  and  O_18
REMARK    2  A    between atoms: N_8  and  C_11
REMARK    3  A    between atoms: O_18  and  O_19
REMARK                            x       y       z     vdW  Elec       q    Type
REMARK                         _______ _______ _______ _____ _____    ______ ____
ROOT
ATOM      1  C   UNL     1      -2.203  -0.697   0.582  0.00  0.00    +0.000 C 
ATOM      2  C   UNL     1      -2.383   0.613  -0.187  0.00  0.00    +0.000 C 
ATOM      3  C   UNL     1      -1.156   1.524  -0.049  0.00  0.00    +0.000 C 
ATOM      4  C   UNL     1       0.120   0.762  -0.185  0.00  0.00    +0.000 C 
ATOM      5  C   UNL     1       0.207  -0.571  -0.125  0.00  0.00    +0.000 C 
ATOM      6  C   UNL     1      -0.963  -1.470   0.113  0.00  0.00    +0.000 C 
ATOM      7  C   UNL     1       1.589  -1.120  -0.281  0.00  0.00    +0.000 C 
ATOM      8  N   UNL     1       2.486   0.036  -0.373  0.00  0.00    +0.000 N 
ATOM      9  S   UNL     1       1.690   1.512  -0.524  0.00  0.00    +0.000 S 
ATOM     10  O   UNL     1       1.997   2.414   0.631  0.00  0.00    +0.000 OA
ENDROOT
BRANCH   8  11
ATOM     11  C   UNL     1       3.882  -0.099  -0.225  0.00  0.00    +0.000 A 
ATOM     12  C   UNL     1       4.745   1.015  -0.295  0.00  0.00    +0.000 A 
ATOM     13  C   UNL     1       6.137   0.899  -0.166  0.00  0.00    +0.000 A 
ATOM     14  C   UNL     1       6.722  -0.343   0.035  0.00  0.00    +0.000 A 
ATOM     15  C   UNL     1       5.910  -1.466   0.110  0.00  0.00    +0.000 A 
ATOM     16  C   UNL     1       4.523  -1.340  -0.018  0.00  0.00    +0.000 A 
ATOM     17  F   UNL     1       3.817  -2.477   0.066  0.00  0.00    +0.000 F 
ENDBRANCH   8  11
BRANCH   7  18
ATOM     18  O   UNL     1       1.652  -1.980  -1.435  0.00  0.00    +0.000 OA
BRANCH  18  19
ATOM     19  O   UNL     1       1.526  -1.151  -2.639  0.00  0.00    +0.000 OA
ATOM     20  H   UNL     1       1.567  -1.715  -3.427  0.00  0.00    +0.000 HD
ENDBRANCH  18  19
ENDBRANCH   7  18
TORSDOF 3
