MODEL 1
REMARK VINA RESULT:      -4.7      0.000      0.000
REMARK  Name = *****
REMARK  1 active torsions:
REMARK  status: ('A' for Active; 'I' for Inactive)
REMARK    1  A    between atoms: C_8  and  C_10
REMARK                            x       y       z     vdW  Elec       q    Type
REMARK                         _______ _______ _______ _____ _____    ______ ____
ROOT
ATOM      1  C   UNL     1      98.917 130.450  85.420  0.00  0.00    +0.000 C 
ATOM      2  C   UNL     1      99.390 130.766  84.002  0.00  0.00    +0.000 C 
ATOM      3  C   UNL     1      99.234 129.559  83.078  0.00  0.00    +0.000 C 
ATOM      4  C   UNL     1      99.967 128.339  83.657  0.00  0.00    +0.000 C 
ATOM      5  C   UNL     1      99.481 128.012  85.075  0.00  0.00    +0.000 C 
ATOM      6  C   UNL     1      99.634 129.227  85.989  0.00  0.00    +0.000 C 
ATOM      7  C   UNL     1      99.976 127.110  82.702  0.00  0.00    +0.000 C 
ATOM      8  C   UNL     1     101.482 127.282  82.635  0.00  0.00    +0.000 C 
ATOM      9  C   UNL     1     101.481 128.340  83.469  0.00  0.00    +0.000 C 
ENDROOT
BRANCH   8  10
ATOM     10  C   UNL     1     102.545 126.543  81.910  0.00  0.00    +0.000 A 
ATOM     11  C   UNL     1     102.921 125.275  82.358  0.00  0.00    +0.000 A 
ATOM     12  C   UNL     1     103.918 124.570  81.682  0.00  0.00    +0.000 A 
ATOM     13  C   UNL     1     104.537 125.131  80.565  0.00  0.00    +0.000 A 
ATOM     14  C   UNL     1     104.158 126.398  80.120  0.00  0.00    +0.000 A 
ATOM     15  C   UNL     1     103.161 127.107  80.793  0.00  0.00    +0.000 A 
ENDBRANCH   8  10
TORSDOF 1
ENDMDL
