REMARK  Name = *****
REMARK  5 active torsions:
REMARK  status: ('A' for Active; 'I' for Inactive)
REMARK    1  A    between atoms: C_4  and  C_7
REMARK    2  A    between atoms: C_7  and  C_8
REMARK    3  A    between atoms: C_8  and  C_9
REMARK    4  A    between atoms: C_9  and  S_10
REMARK    5  A    between atoms: S_10  and  C_11
REMARK                            x       y       z     vdW  Elec       q    Type
REMARK                         _______ _______ _______ _____ _____    ______ ____
ROOT
ATOM      1  C   UNL     1      -3.589  -0.738  -0.480  0.00  0.00    +0.000 C 
ENDROOT
BRANCH   1   2
ATOM      2  C   UNL     1      -2.767   0.552  -0.403  0.00  0.00    +0.000 C 
BRANCH   2   6
ATOM      3  C   UNL     1       1.319  -0.293   0.688  0.00  0.00    +0.000 A 
ATOM      4  C   UNL     1       0.934  -0.323  -0.651  0.00  0.00    +0.000 A 
ATOM      5  C   UNL     1      -0.388  -0.045  -1.004  0.00  0.00    +0.000 A 
ATOM      6  C   UNL     1      -1.334   0.271  -0.020  0.00  0.00    +0.000 A 
ATOM      7  C   UNL     1      -0.938   0.293   1.324  0.00  0.00    +0.000 A 
ATOM      8  C   UNL     1       0.384   0.014   1.675  0.00  0.00    +0.000 A 
ENDBRANCH   2   6
ENDBRANCH   1   2
BRANCH   1   9
ATOM      9  C   UNL     1      -5.072  -0.496  -0.761  0.00  0.00    +0.000 C 
BRANCH   9  10
ATOM     10  S   UNL     1      -5.354   0.129  -2.454  0.00  0.00    +0.000 S 
BRANCH  10  11
ATOM     11  C   UNL     1      -7.088   0.535  -2.352  0.00  0.00    +0.000 A 
ATOM     12  C   UNL     1      -7.501   1.832  -2.672  0.00  0.00    +0.000 A 
ATOM     13  C   UNL     1      -8.852   2.179  -2.610  0.00  0.00    +0.000 A 
ATOM     14  C   UNL     1      -9.800   1.228  -2.237  0.00  0.00    +0.000 A 
ATOM     15  C   UNL     1      -9.399  -0.071  -1.932  0.00  0.00    +0.000 A 
ATOM     16  C   UNL     1      -8.047  -0.418  -1.993  0.00  0.00    +0.000 A 
ENDBRANCH  10  11
ENDBRANCH   9  10
ENDBRANCH   1   9
TORSDOF 5
