REMARK  Name = *****
REMARK  2 active torsions:
REMARK  status: ('A' for Active; 'I' for Inactive)
REMARK    1  A    between atoms: C_10  and  O_11
REMARK    2  A    between atoms: O_11  and  C_12
REMARK                            x       y       z     vdW  Elec       q    Type
REMARK                         _______ _______ _______ _____ _____    ______ ____
ROOT
ATOM      1  C   UNL     1      -2.473   0.825   0.171  0.00  0.00    +0.000 A 
ATOM      2  C   UNL     1      -2.487  -0.565   0.151  0.00  0.00    +0.000 A 
ATOM      3  C   UNL     1      -1.285  -1.271   0.086  0.00  0.00    +0.000 A 
ATOM      4  C   UNL     1      -0.045  -0.594   0.043  0.00  0.00    +0.000 A 
ATOM      5  C   UNL     1      -0.039   0.816   0.072  0.00  0.00    +0.000 A 
ATOM      6  C   UNL     1      -1.258   1.513   0.133  0.00  0.00    +0.000 A 
ATOM      7  C   UNL     1       1.185   1.495   0.040  0.00  0.00    +0.000 A 
ATOM      8  C   UNL     1       2.357   0.760  -0.017  0.00  0.00    +0.000 A 
ATOM      9  N   UNL     1       2.400  -0.585  -0.056  0.00  0.00    +0.000 NA
ATOM     10  C   UNL     1       1.207  -1.232  -0.038  0.00  0.00    +0.000 A 
ENDROOT
BRANCH  10  11
ATOM     11  O   UNL     1       1.210  -2.623  -0.055  0.00  0.00    +0.000 OA
BRANCH  11  12
ATOM     12  C   UNL     1       2.220  -3.258  -0.738  0.00  0.00    +0.000 A 
ATOM     13  C   UNL     1       2.751  -4.414  -0.160  0.00  0.00    +0.000 A 
ATOM     14  C   UNL     1       3.729  -5.156  -0.811  0.00  0.00    +0.000 A 
ATOM     15  C   UNL     1       4.168  -4.738  -2.060  0.00  0.00    +0.000 A 
ATOM     16  C   UNL     1       3.639  -3.602  -2.666  0.00  0.00    +0.000 A 
ATOM     17  C   UNL     1       2.653  -2.863  -2.009  0.00  0.00    +0.000 A 
ATOM     18  F   UNL     1       5.107  -5.447  -2.700  0.00  0.00    +0.000 F 
ATOM     19  F   UNL     1       2.311  -4.832   1.036  0.00  0.00    +0.000 F 
ENDBRANCH  11  12
ENDBRANCH  10  11
TORSDOF 2
