MODEL 1
REMARK VINA RESULT:      -4.2      0.000      0.000
REMARK  Name = *****
REMARK  6 active torsions:
REMARK  status: ('A' for Active; 'I' for Inactive)
REMARK    1  A    between atoms: C_1  and  O_2
REMARK    2  A    between atoms: O_2  and  C_3
REMARK    3  A    between atoms: C_3  and  C_5
REMARK    4  A    between atoms: C_10  and  S_11
REMARK    5  A    between atoms: S_11  and  C_12
REMARK    6  A    between atoms: C_12  and  C_13
REMARK                            x       y       z     vdW  Elec       q    Type
REMARK                         _______ _______ _______ _____ _____    ______ ____
ROOT
ATOM      1  C   UNL     1      99.317 128.268  83.559  0.00  0.00    +0.000 A 
ATOM      2  C   UNL     1      99.020 129.591  83.192  0.00  0.00    +0.000 A 
ATOM      3  C   UNL     1      99.529 130.657  83.932  0.00  0.00    +0.000 A 
ATOM      4  C   UNL     1     100.345 130.409  85.032  0.00  0.00    +0.000 A 
ATOM      5  C   UNL     1     100.660 129.096  85.389  0.00  0.00    +0.000 A 
ATOM      6  C   UNL     1     100.149 128.008  84.661  0.00  0.00    +0.000 A 
ENDROOT
BRANCH   1   7
ATOM      7  C   UNL     1      98.728 127.210  82.713  0.00  0.00    +0.000 C 
ATOM      8  O   UNL     1      99.373 126.557  81.909  0.00  0.00    +0.000 OA
BRANCH   7  10
ATOM      9  C   UNL     1      96.917 126.110  83.679  0.00  0.00    +0.000 C 
ATOM     10  O   UNL     1      97.382 127.194  82.875  0.00  0.00    +0.000 OA
ENDBRANCH   7  10
ENDBRANCH   1   7
BRANCH   6  11
ATOM     11  S   UNL     1     100.674 126.369  85.153  0.00  0.00    +0.000 S 
BRANCH  11  12
ATOM     12  C   UNL     1     102.474 126.593  84.980  0.00  0.00    +0.000 C 
BRANCH  12  13
ATOM     13  C   UNL     1     102.860 126.849  83.546  0.00  0.00    +0.000 A 
ATOM     14  C   UNL     1     102.729 125.838  82.584  0.00  0.00    +0.000 A 
ATOM     15  C   UNL     1     103.078 126.088  81.260  0.00  0.00    +0.000 A 
ATOM     16  C   UNL     1     103.553 127.332  80.867  0.00  0.00    +0.000 A 
ATOM     17  C   UNL     1     103.678 128.349  81.811  0.00  0.00    +0.000 A 
ATOM     18  C   UNL     1     103.331 128.110  83.144  0.00  0.00    +0.000 A 
ATOM     19  F   UNL     1     102.954 125.111  80.352  0.00  0.00    +0.000 F 
ENDBRANCH  12  13
ENDBRANCH  11  12
ENDBRANCH   6  11
TORSDOF 5
ENDMDL
