MODEL 1
REMARK VINA RESULT:      -4.1      0.000      0.000
REMARK  Name = *****
REMARK  3 active torsions:
REMARK  status: ('A' for Active; 'I' for Inactive)
REMARK    1  A    between atoms: C_3  and  O_6
REMARK    2  A    between atoms: O_6  and  C_7
REMARK    3  A    between atoms: C_7  and  C_9
REMARK                            x       y       z     vdW  Elec       q    Type
REMARK                         _______ _______ _______ _____ _____    ______ ____
ROOT
ATOM      1  C   UNL     1     102.200 125.766  83.920  0.00  0.00    +0.000 C 
ATOM      2  O   UNL     1     101.961 125.150  84.946  0.00  0.00    +0.000 OA
ENDROOT
BRANCH   1   3
ATOM      3  C   UNL     1     103.032 125.226  82.812  0.00  0.00    +0.000 A 
ATOM      4  C   UNL     1     102.910 125.685  81.493  0.00  0.00    +0.000 A 
ATOM      5  C   UNL     1     103.711 125.142  80.483  0.00  0.00    +0.000 A 
ATOM      6  C   UNL     1     104.634 124.143  80.792  0.00  0.00    +0.000 A 
ATOM      7  C   UNL     1     104.762 123.678  82.100  0.00  0.00    +0.000 A 
ATOM      8  C   UNL     1     103.959 124.216  83.109  0.00  0.00    +0.000 A 
ATOM      9 CL   UNL     1     105.621 123.481  79.549  0.00  0.00    +0.000 Cl
ENDBRANCH   1   3
BRANCH   1  10
ATOM     10  O   UNL     1     101.790 127.023  83.627  0.00  0.00    +0.000 OA
BRANCH  10  13
ATOM     11  C   UNL     1      98.493 127.996  82.580  0.00  0.00    +0.000 C 
ATOM     12  C   UNL     1      99.516 126.872  82.744  0.00  0.00    +0.000 C 
ATOM     13  C   UNL     1     100.417 127.284  83.914  0.00  0.00    +0.000 C 
ATOM     14  C   UNL     1     100.216 128.766  83.965  0.00  0.00    +0.000 C 
ATOM     15  C   UNL     1      99.161 129.155  83.242  0.00  0.00    +0.000 C 
ENDBRANCH  10  13
ENDBRANCH   1  10
TORSDOF 3
ENDMDL
