MODEL 1
REMARK VINA RESULT:      -4.3      0.000      0.000
REMARK  Name = *****
REMARK  7 active torsions:
REMARK  status: ('A' for Active; 'I' for Inactive)
REMARK    1  A    between atoms: C_1  and  C_2
REMARK    2  A    between atoms: C_5  and  S_8
REMARK    3  A    between atoms: S_8  and  C_9
REMARK    4  A    between atoms: C_9  and  C_10
REMARK    5  A    between atoms: C_10  and  C_18
REMARK    6  A    between atoms: C_12  and  O_16
REMARK    7  A    between atoms: O_16  and  C_17
REMARK                            x       y       z     vdW  Elec       q    Type
REMARK                         _______ _______ _______ _____ _____    ______ ____
ROOT
ATOM      1  C   UNL     1      86.810  64.485  87.972  0.00  0.00    +0.000 C 
ENDROOT
BRANCH   1   2
ATOM      2  C   UNL     1      87.023  63.395  89.064  0.00  0.00    +0.000 C 
ATOM      3  C   UNL     1      86.096  63.560  90.304  0.00  0.00    +0.000 C 
ATOM      4  C   UNL     1      86.532  64.662  91.277  0.00  0.00    +0.000 C 
ATOM      5  C   UNL     1      87.980  64.432  91.749  0.00  0.00    +0.000 C 
ATOM      6  C   UNL     1      88.901  63.911  90.683  0.00  0.00    +0.000 C 
ATOM      7  C   UNL     1      88.485  63.462  89.491  0.00  0.00    +0.000 C 
ATOM      8  C   UNL     1      86.777  61.991  88.468  0.00  0.00    +0.000 C 
BRANCH   4   9
ATOM      9  O   UNL     1      86.382  65.935  90.639  0.00  0.00    +0.000 OA
ATOM     10  C   UNL     1      85.052  66.434  90.677  0.00  0.00    +0.000 C 
ENDBRANCH   4   9
ENDBRANCH   1   2
BRANCH   1  11
ATOM     11  S   UNL     1      88.132  64.602  86.702  0.00  0.00    +0.000 S 
BRANCH  11  16
ATOM     12  C   UNL     1      89.397  70.546  87.189  0.00  0.00    +0.000 C 
ATOM     13  C   UNL     1      89.077  69.088  87.039  0.00  0.00    +0.000 A 
ATOM     14  C   UNL     1      89.950  68.238  86.349  0.00  0.00    +0.000 A 
ATOM     15  C   UNL     1      89.669  66.873  86.238  0.00  0.00    +0.000 A 
ATOM     16  C   UNL     1      88.514  66.339  86.815  0.00  0.00    +0.000 A 
ATOM     17  C   UNL     1      87.658  67.181  87.529  0.00  0.00    +0.000 A 
ATOM     18  C   UNL     1      87.937  68.546  87.641  0.00  0.00    +0.000 A 
ENDBRANCH  11  16
ENDBRANCH   1  11
TORSDOF 4
ENDMDL
