MODEL 1
REMARK VINA RESULT:      -4.9      0.000      0.000
REMARK  Name = *****
REMARK  3 active torsions:
REMARK  status: ('A' for Active; 'I' for Inactive)
REMARK    1  A    between atoms: C_1  and  C_2
REMARK    2  A    between atoms: C_7  and  C_18
REMARK    3  A    between atoms: C_10  and  C_12
REMARK                            x       y       z     vdW  Elec       q    Type
REMARK                         _______ _______ _______ _____ _____    ______ ____
ROOT
ATOM      1  C   UNL     1      87.745  70.232  88.556  0.00  0.00    +0.000 C 
ATOM      2  C   UNL     1      87.358  69.500  87.274  0.00  0.00    +0.000 C 
ATOM      3  C   UNL     1      87.877  68.092  87.258  0.00  0.00    +0.000 A 
ATOM      4  C   UNL     1      87.274  67.078  88.015  0.00  0.00    +0.000 A 
ATOM      5  C   UNL     1      87.800  65.789  87.999  0.00  0.00    +0.000 A 
ATOM      6  C   UNL     1      88.930  65.510  87.233  0.00  0.00    +0.000 A 
ATOM      7  C   UNL     1      89.542  66.518  86.474  0.00  0.00    +0.000 A 
ATOM      8  C   UNL     1      89.006  67.818  86.487  0.00  0.00    +0.000 A 
ATOM      9  N   UNL     1      89.604  68.823  85.721  0.00  0.00    +0.000 NA
ATOM     10  C   UNL     1      88.989  69.951  85.578  0.00  0.00    +0.000 C 
ATOM     11  O   UNL     1      87.815  70.287  86.159  0.00  0.00    +0.000 OA
ATOM     12  C   UNL     1      90.756  66.202  85.646  0.00  0.00    +0.000 C 
ENDROOT
BRANCH  10  13
ATOM     13  C   UNL     1      89.505  71.053  84.725  0.00  0.00    +0.000 A 
ATOM     14  C   UNL     1      90.805  71.037  84.198  0.00  0.00    +0.000 A 
ATOM     15  C   UNL     1      91.252  72.092  83.398  0.00  0.00    +0.000 A 
ATOM     16  C   UNL     1      90.408  73.166  83.120  0.00  0.00    +0.000 A 
ATOM     17  C   UNL     1      89.115  73.190  83.640  0.00  0.00    +0.000 A 
ATOM     18  C   UNL     1      88.665  72.138  84.441  0.00  0.00    +0.000 A 
ENDBRANCH  10  13
TORSDOF 1
ENDMDL
