MODEL 1
REMARK VINA RESULT:      -5.0      0.000      0.000
REMARK  Name = *****
REMARK  2 active torsions:
REMARK  status: ('A' for Active; 'I' for Inactive)
REMARK    1  A    between atoms: C_1  and  C_2
REMARK    2  A    between atoms: C_10  and  C_11
REMARK                            x       y       z     vdW  Elec       q    Type
REMARK                         _______ _______ _______ _____ _____    ______ ____
ROOT
ATOM      1  C   UNL     1      99.399 129.947  83.445  0.00  0.00    +0.000 C 
ATOM      2  C   UNL     1      99.376 128.455  83.777  0.00  0.00    +0.000 C 
ATOM      3  C   UNL     1      99.369 128.220  85.295  0.00  0.00    +0.000 C 
ATOM      4  C   UNL     1      99.134 126.753  85.650  0.00  0.00    +0.000 C 
ATOM      5  C   UNL     1      97.873 126.154  85.022  0.00  0.00    +0.000 C 
ATOM      6  C   UNL     1      97.237 126.998  83.918  0.00  0.00    +0.000 C 
ATOM      7  C   UNL     1      98.275 127.661  83.015  0.00  0.00    +0.000 C 
ATOM      8  C   UNL     1      99.311 126.765  82.298  0.00  0.00    +0.000 C 
ATOM      9  C   UNL     1     100.366 127.619  82.964  0.00  0.00    +0.000 C 
ATOM     10  C   UNL     1     101.709 127.632  82.925  0.00  0.00    +0.000 C 
ENDROOT
BRANCH  10  11
ATOM     11  C   UNL     1     102.593 126.769  82.132  0.00  0.00    +0.000 A 
ATOM     12  C   UNL     1     102.849 125.439  82.482  0.00  0.00    +0.000 A 
ATOM     13  C   UNL     1     103.681 124.642  81.689  0.00  0.00    +0.000 A 
ATOM     14  C   UNL     1     104.256 125.166  80.534  0.00  0.00    +0.000 A 
ATOM     15  C   UNL     1     103.998 126.486  80.168  0.00  0.00    +0.000 A 
ATOM     16  C   UNL     1     103.166 127.281  80.961  0.00  0.00    +0.000 A 
ENDBRANCH  10  11
TORSDOF 1
ENDMDL
