MODEL 1
REMARK VINA RESULT:      -5.0      0.000      0.000
REMARK  Name = *****
REMARK  4 active torsions:
REMARK  status: ('A' for Active; 'I' for Inactive)
REMARK    1  A    between atoms: C_4  and  C_7
REMARK    2  A    between atoms: C_8  and  C_9
REMARK    3  A    between atoms: C_9  and  C_10
REMARK    4  A    between atoms: C_15  and  O_16
REMARK                            x       y       z     vdW  Elec       q    Type
REMARK                         _______ _______ _______ _____ _____    ______ ____
ROOT
ATOM      1  C   UNL     1     101.841 125.938  82.170  0.00  0.00    +0.000 C 
ENDROOT
BRANCH   1   2
ATOM      2  C   UNL     1     100.891 127.029  82.618  0.00  0.00    +0.000 A 
ATOM      3  C   UNL     1     101.389 128.156  83.292  0.00  0.00    +0.000 A 
ATOM      4  C   UNL     1     100.528 129.163  83.730  0.00  0.00    +0.000 A 
ATOM      5  C   UNL     1      99.157 129.055  83.505  0.00  0.00    +0.000 A 
ATOM      6  C   UNL     1      98.644 127.939  82.846  0.00  0.00    +0.000 A 
ATOM      7  C   UNL     1      99.509 126.934  82.410  0.00  0.00    +0.000 A 
BRANCH   7   8
ATOM      8  O   UNL     1      99.009 125.833  81.771  0.00  0.00    +0.000 OA
ATOM      9  H   UNL     1      98.087 125.754  81.629  0.00  0.00    +0.000 HD
ENDBRANCH   7   8
ENDBRANCH   1   2
BRANCH   1  11
ATOM     10  C   UNL     1     104.180 125.790  81.197  0.00  0.00    +0.000 C 
ATOM     11  C   UNL     1     103.060 126.481  81.469  0.00  0.00    +0.000 C 
BRANCH  10  15
ATOM     12  C   UNL     1     104.748 121.688  82.197  0.00  0.00    +0.000 A 
ATOM     13  C   UNL     1     104.809 122.097  80.865  0.00  0.00    +0.000 A 
ATOM     14  C   UNL     1     104.623 123.441  80.537  0.00  0.00    +0.000 A 
ATOM     15  C   UNL     1     104.377 124.382  81.541  0.00  0.00    +0.000 A 
ATOM     16  C   UNL     1     104.314 123.966  82.875  0.00  0.00    +0.000 A 
ATOM     17  C   UNL     1     104.500 122.622  83.202  0.00  0.00    +0.000 A 
ENDBRANCH  10  15
ENDBRANCH   1  11
TORSDOF 4
ENDMDL
