REMARK  Name = *****
REMARK  5 active torsions:
REMARK  status: ('A' for Active; 'I' for Inactive)
REMARK    1  A    between atoms: C_4  and  C_7
REMARK    2  A    between atoms: C_7  and  C_8
REMARK    3  A    between atoms: C_8  and  C_9
REMARK    4  A    between atoms: C_8  and  C_12
REMARK    5  A    between atoms: C_9  and  C_10
REMARK                            x       y       z     vdW  Elec       q    Type
REMARK                         _______ _______ _______ _____ _____    ______ ____
ROOT
ATOM      1  C   UNL     1      -3.667  -0.809   0.045  0.00  0.00    +0.000 C 
ENDROOT
BRANCH   1   2
ATOM      2  C   UNL     1      -5.138  -0.602  -0.311  0.00  0.00    +0.000 A 
ATOM      3  C   UNL     1      -5.828  -1.615  -0.999  0.00  0.00    +0.000 A 
ATOM      4  C   UNL     1      -7.179  -1.467  -1.327  0.00  0.00    +0.000 A 
ATOM      5  C   UNL     1      -7.855  -0.306  -0.964  0.00  0.00    +0.000 A 
ATOM      6  C   UNL     1      -7.192   0.706  -0.277  0.00  0.00    +0.000 A 
ATOM      7  C   UNL     1      -5.841   0.557   0.049  0.00  0.00    +0.000 A 
ATOM      8 CL   UNL     1      -9.518  -0.124  -1.364  0.00  0.00    +0.000 Cl
ENDBRANCH   1   2
BRANCH   1   9
ATOM      9  C   UNL     1      -2.784   0.427  -0.249  0.00  0.00    +0.000 C 
BRANCH   9  13
ATOM     10  C   UNL     1       1.427  -0.318   0.325  0.00  0.00    +0.000 A 
ATOM     11  C   UNL     1       0.774  -0.841  -0.789  0.00  0.00    +0.000 A 
ATOM     12  C   UNL     1      -0.587  -0.596  -0.981  0.00  0.00    +0.000 A 
ATOM     13  C   UNL     1      -1.306   0.174  -0.058  0.00  0.00    +0.000 A 
ATOM     14  C   UNL     1      -0.639   0.698   1.058  0.00  0.00    +0.000 A 
ATOM     15  C   UNL     1       0.722   0.452   1.248  0.00  0.00    +0.000 A 
ENDBRANCH   9  13
ENDBRANCH   1   9
BRANCH   1  16
ATOM     16  C   UNL     1      -3.513  -1.413   1.452  0.00  0.00    +0.000 C 
BRANCH  16  17
ATOM     17  C   UNL     1      -3.812  -0.512   2.628  0.00  0.00    +0.000 C 
ATOM     18  O   UNL     1      -3.875   0.712   2.594  0.00  0.00    +0.000 OA
ENDBRANCH  16  17
ENDBRANCH   1  16
TORSDOF 5
