MODEL 1
REMARK VINA RESULT:      -3.4      0.000      0.000
REMARK  Name = *****
REMARK  4 active torsions:
REMARK  status: ('A' for Active; 'I' for Inactive)
REMARK    1  A    between atoms: C_3  and  C_6
REMARK    2  A    between atoms: C_6  and  C_7
REMARK    3  A    between atoms: C_7  and  C_8
REMARK    4  A    between atoms: C_8  and  C_9
REMARK                            x       y       z     vdW  Elec       q    Type
REMARK                         _______ _______ _______ _____ _____    ______ ____
ROOT
ATOM      1  C   UNL     1      87.480  70.210  88.559  0.00  0.00    +0.000 C 
ENDROOT
BRANCH   1   2
ATOM      2  C   UNL     1      86.577  71.376  88.146  0.00  0.00    +0.000 C 
BRANCH   2   5
ATOM      3  C   UNL     1      85.718  69.479  85.024  0.00  0.00    +0.000 C 
ATOM      4  C   UNL     1      85.723  69.556  86.551  0.00  0.00    +0.000 C 
ATOM      5  C   UNL     1      85.742  71.053  86.902  0.00  0.00    +0.000 C 
ATOM      6  C   UNL     1      86.306  71.660  85.652  0.00  0.00    +0.000 C 
ATOM      7  C   UNL     1      86.288  70.800  84.628  0.00  0.00    +0.000 C 
ENDBRANCH   2   5
ENDBRANCH   1   2
BRANCH   1   8
ATOM      8  C   UNL     1      88.948  70.510  88.246  0.00  0.00    +0.000 C 
BRANCH   8   9
ATOM      9  C   UNL     1      89.344  69.990  86.886  0.00  0.00    +0.000 A 
ATOM     10  C   UNL     1      89.767  70.873  85.884  0.00  0.00    +0.000 A 
ATOM     11  C   UNL     1      90.116  70.395  84.621  0.00  0.00    +0.000 A 
ATOM     12  C   UNL     1      90.040  69.029  84.346  0.00  0.00    +0.000 A 
ATOM     13  C   UNL     1      89.614  68.144  85.333  0.00  0.00    +0.000 A 
ATOM     14  C   UNL     1      89.264  68.621  86.598  0.00  0.00    +0.000 A 
ENDBRANCH   8   9
ENDBRANCH   1   8
TORSDOF 4
ENDMDL
