MODEL 1
REMARK VINA RESULT:      -4.3      0.000      0.000
REMARK  Name = *****
REMARK  4 active torsions:
REMARK  status: ('A' for Active; 'I' for Inactive)
REMARK    1  A    between atoms: C_4  and  C_8
REMARK    2  A    between atoms: C_8  and  O_10
REMARK    3  A    between atoms: O_10  and  C_11
REMARK    4  A    between atoms: C_11  and  C_12
REMARK                            x       y       z     vdW  Elec       q    Type
REMARK                         _______ _______ _______ _____ _____    ______ ____
ROOT
ATOM      1  C   UNL     1      89.469  68.634  84.668  0.00  0.00    +0.000 C 
ATOM      2  O   UNL     1      90.382  68.536  83.857  0.00  0.00    +0.000 OA
ENDROOT
BRANCH   1   6
ATOM      3  C   UNL     1      87.983  66.020  85.396  0.00  0.00    +0.000 C 
ATOM      4  C   UNL     1      89.158  65.466  86.207  0.00  0.00    +0.000 C 
ATOM      5  C   UNL     1      90.229  66.564  86.001  0.00  0.00    +0.000 C 
ATOM      6  C   UNL     1      89.379  67.867  85.984  0.00  0.00    +0.000 C 
ATOM      7  C   UNL     1      87.935  67.335  86.188  0.00  0.00    +0.000 C 
ATOM      8  C   UNL     1      87.834  66.747  87.582  0.00  0.00    +0.000 C 
ATOM      9  C   UNL     1      88.579  65.631  87.593  0.00  0.00    +0.000 C 
ATOM     10  F   UNL     1      89.741  68.652  87.043  0.00  0.00    +0.000 F 
ENDBRANCH   1   6
BRANCH   1  11
ATOM     11  O   UNL     1      88.355  69.401  84.496  0.00  0.00    +0.000 OA
BRANCH  11  12
ATOM     12  C   UNL     1      88.488  70.784  84.840  0.00  0.00    +0.000 C 
BRANCH  12  13
ATOM     13  C   UNL     1      87.353  71.181  85.746  0.00  0.00    +0.000 A 
ATOM     14  C   UNL     1      87.437  70.960  87.128  0.00  0.00    +0.000 A 
ATOM     15  C   UNL     1      86.376  71.307  87.966  0.00  0.00    +0.000 A 
ATOM     16  C   UNL     1      85.219  71.871  87.430  0.00  0.00    +0.000 A 
ATOM     17  C   UNL     1      85.120  72.083  86.057  0.00  0.00    +0.000 A 
ATOM     18  C   UNL     1      86.179  71.737  85.217  0.00  0.00    +0.000 A 
ENDBRANCH  12  13
ENDBRANCH  11  12
ENDBRANCH   1  11
TORSDOF 4
ENDMDL
