MODEL 1
REMARK VINA RESULT:      -4.3      0.000      0.000
REMARK  Name = *****
REMARK  3 active torsions:
REMARK  status: ('A' for Active; 'I' for Inactive)
REMARK    1  A    between atoms: C_2  and  C_3
REMARK    2  A    between atoms: C_4  and  C_8
REMARK    3  A    between atoms: C_9  and  C_10
REMARK                            x       y       z     vdW  Elec       q    Type
REMARK                         _______ _______ _______ _____ _____    ______ ____
ROOT
ATOM      1  C   UNL     1      86.428  62.042  88.748  0.00  0.00    +0.000 C 
ATOM      2  C   UNL     1      85.821  61.284  89.454  0.00  0.00    +0.000 C 
ENDROOT
BRANCH   2   3
ATOM      3  C   UNL     1      85.089  60.382  90.290  0.00  0.00    +0.000 A 
ATOM      4  C   UNL     1      83.731  60.603  90.532  0.00  0.00    +0.000 A 
ATOM      5  C   UNL     1      83.017  59.724  91.349  0.00  0.00    +0.000 A 
ATOM      6  C   UNL     1      83.659  58.627  91.924  0.00  0.00    +0.000 A 
ATOM      7  C   UNL     1      85.014  58.406  91.682  0.00  0.00    +0.000 A 
ATOM      8  C   UNL     1      85.731  59.283  90.865  0.00  0.00    +0.000 A 
ENDBRANCH   2   3
BRANCH   1  10
ATOM      9  C   UNL     1      88.189  63.749  88.332  0.00  0.00    +0.000 A 
ATOM     10  C   UNL     1      87.146  62.950  87.905  0.00  0.00    +0.000 A 
ATOM     11  C   UNL     1      86.863  63.133  86.517  0.00  0.00    +0.000 A 
ATOM     12  C   UNL     1      87.696  64.061  85.936  0.00  0.00    +0.000 A 
ATOM     13  S   UNL     1      88.814  64.709  87.057  0.00  0.00    +0.000 S 
BRANCH   9  15
ATOM     14  C   UNL     1      89.165  63.856  90.773  0.00  0.00    +0.000 C 
ATOM     15  C   UNL     1      88.719  63.807  89.658  0.00  0.00    +0.000 C 
ENDBRANCH   9  15
ENDBRANCH   1  10
TORSDOF 3
ENDMDL
