MODEL 1
REMARK VINA RESULT:      -4.4      0.000      0.000
REMARK  Name = *****
REMARK  3 active torsions:
REMARK  status: ('A' for Active; 'I' for Inactive)
REMARK    1  A    between atoms: C_6  and  O_7
REMARK    2  A    between atoms: O_7  and  C_8
REMARK    3  A    between atoms: C_8  and  C_10
REMARK                            x       y       z     vdW  Elec       q    Type
REMARK                         _______ _______ _______ _____ _____    ______ ____
ROOT
ATOM      1  C   UNL     1      89.701  69.145  85.909  0.00  0.00    +0.000 C 
ATOM      2  O   UNL     1      89.963  69.389  84.742  0.00  0.00    +0.000 OA
ENDROOT
BRANCH   1   3
ATOM      3  C   UNL     1      88.674  69.897  86.683  0.00  0.00    +0.000 A 
ATOM      4  C   UNL     1      87.687  70.585  85.962  0.00  0.00    +0.000 A 
ATOM      5  C   UNL     1      86.707  71.300  86.642  0.00  0.00    +0.000 A 
ATOM      6  C   UNL     1      86.698  71.339  88.031  0.00  0.00    +0.000 A 
ATOM      7  C   UNL     1      87.669  70.661  88.761  0.00  0.00    +0.000 A 
ATOM      8  C   UNL     1      88.660  69.939  88.088  0.00  0.00    +0.000 A 
ATOM      9  F   UNL     1      85.751  72.030  88.682  0.00  0.00    +0.000 F 
ATOM     10  F   UNL     1      85.769  71.955  85.945  0.00  0.00    +0.000 F 
ENDBRANCH   1   3
BRANCH   1  11
ATOM     11  O   UNL     1      90.271  68.174  86.711  0.00  0.00    +0.000 OA
BRANCH  11  17
ATOM     12  C   UNL     1      88.756  66.274  86.609  0.00  0.00    +0.000 A 
ATOM     13  C   UNL     1      88.496  64.978  86.161  0.00  0.00    +0.000 A 
ATOM     14  C   UNL     1      89.465  64.291  85.427  0.00  0.00    +0.000 A 
ATOM     15  C   UNL     1      90.692  64.888  85.132  0.00  0.00    +0.000 A 
ATOM     16  C   UNL     1      90.957  66.183  85.579  0.00  0.00    +0.000 A 
ATOM     17  C   UNL     1      89.994  66.856  86.329  0.00  0.00    +0.000 A 
ATOM     18 CL   UNL     1      89.139  62.695  84.872  0.00  0.00    +0.000 Cl
ENDBRANCH  11  17
ENDBRANCH   1  11
TORSDOF 3
ENDMDL
