MODEL 1
REMARK VINA RESULT:      -4.3      0.000      0.000
REMARK  Name = *****
REMARK  2 active torsions:
REMARK  status: ('A' for Active; 'I' for Inactive)
REMARK    1  A    between atoms: C_3  and  C_8
REMARK    2  A    between atoms: C_9  and  C_10
REMARK                            x       y       z     vdW  Elec       q    Type
REMARK                         _______ _______ _______ _____ _____    ______ ____
ROOT
ATOM      1  C   UNL     1      98.767 127.514  82.832  0.00  0.00    +0.000 A 
ATOM      2  C   UNL     1      99.772 126.690  82.322  0.00  0.00    +0.000 A 
ATOM      3  C   UNL     1     101.116 127.023  82.512  0.00  0.00    +0.000 A 
ATOM      4  C   UNL     1     101.456 128.183  83.211  0.00  0.00    +0.000 A 
ATOM      5  C   UNL     1     100.446 129.002  83.717  0.00  0.00    +0.000 A 
ATOM      6  C   UNL     1      99.104 128.673  83.531  0.00  0.00    +0.000 A 
ATOM      7 BR   UNL     1     100.902 130.573  84.664  0.00  0.00    +0.000 Br
ENDROOT
BRANCH   3   8
ATOM      8  C   UNL     1     102.143 126.176  81.987  0.00  0.00    +0.000 C 
ATOM      9  C   UNL     1     103.008 125.471  81.544  0.00  0.00    +0.000 C 
BRANCH   9  10
ATOM     10  C   UNL     1     104.038 124.636  81.019  0.00  0.00    +0.000 A 
ATOM     11  C   UNL     1     104.347 123.377  81.483  0.00  0.00    +0.000 A 
ATOM     12  C   UNL     1     105.425 122.784  80.760  0.00  0.00    +0.000 A 
ATOM     13  C   UNL     1     105.897 123.616  79.770  0.00  0.00    +0.000 A 
ATOM     14  S   UNL     1     105.043 125.098  79.716  0.00  0.00    +0.000 S 
ENDBRANCH   9  10
ENDBRANCH   3   8
TORSDOF 2
ENDMDL
