MODEL 1
REMARK VINA RESULT:      -4.4      0.000      0.000
REMARK  Name = *****
REMARK  3 active torsions:
REMARK  status: ('A' for Active; 'I' for Inactive)
REMARK    1  A    between atoms: C_3  and  O_8
REMARK    2  A    between atoms: O_8  and  C_9
REMARK    3  A    between atoms: C_9  and  C_11
REMARK                            x       y       z     vdW  Elec       q    Type
REMARK                         _______ _______ _______ _____ _____    ______ ____
ROOT
ATOM      1  C   UNL     1      88.795  64.689  86.866  0.00  0.00    +0.000 C 
ATOM      2  O   UNL     1      89.671  64.024  86.342  0.00  0.00    +0.000 OA
ENDROOT
BRANCH   1   3
ATOM      3  C   UNL     1      88.821  66.177  86.912  0.00  0.00    +0.000 A 
ATOM      4  C   UNL     1      87.749  66.838  87.533  0.00  0.00    +0.000 A 
ATOM      5  C   UNL     1      87.724  68.233  87.597  0.00  0.00    +0.000 A 
ATOM      6  C   UNL     1      88.767  68.963  87.039  0.00  0.00    +0.000 A 
ATOM      7  C   UNL     1      89.836  68.326  86.419  0.00  0.00    +0.000 A 
ATOM      8  C   UNL     1      89.867  66.931  86.353  0.00  0.00    +0.000 A 
ATOM      9  F   UNL     1      88.741  70.301  87.100  0.00  0.00    +0.000 F 
ENDBRANCH   1   3
BRANCH   1  10
ATOM     10  O   UNL     1      87.686  64.220  87.477  0.00  0.00    +0.000 OA
BRANCH  10  13
ATOM     11  C   UNL     1      87.845  64.328  90.784  0.00  0.00    +0.000 C 
ATOM     12  C   UNL     1      88.627  63.622  89.679  0.00  0.00    +0.000 C 
ATOM     13  C   UNL     1      87.769  63.178  88.488  0.00  0.00    +0.000 C 
ATOM     14  C   UNL     1      86.433  62.503  88.874  0.00  0.00    +0.000 C 
ATOM     15  C   UNL     1      85.932  62.820  90.254  0.00  0.00    +0.000 C 
ATOM     16  C   UNL     1      86.553  63.644  91.109  0.00  0.00    +0.000 C 
ATOM     17  F   UNL     1      86.621  61.149  88.796  0.00  0.00    +0.000 F 
ENDBRANCH  10  13
ENDBRANCH   1  10
TORSDOF 3
ENDMDL
