MODEL 1
REMARK VINA RESULT:      -5.0      0.000      0.000
REMARK  Name = *****
REMARK  6 active torsions:
REMARK  status: ('A' for Active; 'I' for Inactive)
REMARK    1  A    between atoms: C_1  and  C_2
REMARK    2  A    between atoms: C_6  and  C_8
REMARK    3  A    between atoms: C_9  and  C_10
REMARK    4  A    between atoms: C_11  and  C_18
REMARK    5  A    between atoms: C_13  and  C_17
REMARK    6  A    between atoms: C_15  and  C_16
REMARK                            x       y       z     vdW  Elec       q    Type
REMARK                         _______ _______ _______ _____ _____    ______ ____
ROOT
ATOM      1  C   UNL     1     102.712 126.584  81.391  0.00  0.00    +0.000 C 
ATOM      2  C   UNL     1     102.083 126.523  82.576  0.00  0.00    +0.000 C 
ENDROOT
BRANCH   2   3
ATOM      3  C   UNL     1     101.351 127.672  83.127  0.00  0.00    +0.000 A 
ATOM      4  C   UNL     1      99.945 127.726  83.000  0.00  0.00    +0.000 A 
ATOM      5  C   UNL     1      99.248 128.839  83.498  0.00  0.00    +0.000 A 
ATOM      6  C   UNL     1      99.922 129.889  84.126  0.00  0.00    +0.000 A 
ATOM      7  C   UNL     1     101.312 129.825  84.256  0.00  0.00    +0.000 A 
ATOM      8  C   UNL     1     102.038 128.724  83.770  0.00  0.00    +0.000 A 
ATOM      9  C   UNL     1     103.535 128.712  83.933  0.00  0.00    +0.000 C 
ATOM     10  C   UNL     1      99.175 131.081  84.648  0.00  0.00    +0.000 C 
ATOM     11  C   UNL     1      99.172 126.627  82.318  0.00  0.00    +0.000 C 
ENDBRANCH   2   3
BRANCH   1  17
ATOM     12  C   UNL     1     104.712 122.314  82.196  0.00  0.00    +0.000 C 
ATOM     13  C   UNL     1     104.439 123.324  81.090  0.00  0.00    +0.000 C 
ATOM     14  C   UNL     1     105.733 123.727  80.379  0.00  0.00    +0.000 C 
ATOM     15  C   UNL     1     105.461 124.823  79.352  0.00  0.00    +0.000 C 
ATOM     16  C   UNL     1     104.689 125.975  79.987  0.00  0.00    +0.000 C 
ATOM     17  C   UNL     1     103.449 125.454  80.721  0.00  0.00    +0.000 C 
ATOM     18  O   UNL     1     103.831 124.471  81.688  0.00  0.00    +0.000 OA
ENDBRANCH   1  17
TORSDOF 2
ENDMDL
