MODEL 1
REMARK VINA RESULT:      -3.9      0.000      0.000
REMARK  Name = *****
REMARK  4 active torsions:
REMARK  status: ('A' for Active; 'I' for Inactive)
REMARK    1  A    between atoms: C_8  and  C_9
REMARK    2  A    between atoms: C_9  and  O_11
REMARK    3  A    between atoms: O_11  and  C_12
REMARK    4  A    between atoms: C_12  and  C_13
REMARK                            x       y       z     vdW  Elec       q    Type
REMARK                         _______ _______ _______ _____ _____    ______ ____
ROOT
ATOM      1  C   UNL     1      89.830  68.095  84.185  0.00  0.00    +0.000 C 
ATOM      2  O   UNL     1      89.702  68.334  82.993  0.00  0.00    +0.000 OA
ENDROOT
BRANCH   1  10
ATOM      3  C   UNL     1      87.547  67.221  86.919  0.00  0.00    +0.000 C 
ATOM      4  C   UNL     1      87.173  67.228  85.419  0.00  0.00    +0.000 C 
ATOM      5  C   UNL     1      88.126  66.295  84.632  0.00  0.00    +0.000 C 
ATOM      6  C   UNL     1      88.004  64.924  85.276  0.00  0.00    +0.000 C 
ATOM      7  C   UNL     1      88.312  64.900  86.584  0.00  0.00    +0.000 C 
ATOM      8  C   UNL     1      88.715  66.242  87.164  0.00  0.00    +0.000 C 
ATOM      9  C   UNL     1      89.934  66.749  86.358  0.00  0.00    +0.000 C 
ATOM     10  C   UNL     1      89.593  66.749  84.841  0.00  0.00    +0.000 C 
ENDBRANCH   1  10
BRANCH   1  11
ATOM     11  O   UNL     1      90.236  68.996  85.120  0.00  0.00    +0.000 OA
BRANCH  11  12
ATOM     12  C   UNL     1      89.658  70.296  84.978  0.00  0.00    +0.000 C 
BRANCH  12  13
ATOM     13  C   UNL     1      88.803  70.551  86.192  0.00  0.00    +0.000 A 
ATOM     14  C   UNL     1      89.327  70.374  87.482  0.00  0.00    +0.000 A 
ATOM     15  C   UNL     1      88.526  70.586  88.605  0.00  0.00    +0.000 A 
ATOM     16  C   UNL     1      87.195  70.970  88.452  0.00  0.00    +0.000 A 
ATOM     17  C   UNL     1      86.662  71.141  87.176  0.00  0.00    +0.000 A 
ATOM     18  C   UNL     1      87.461  70.929  86.050  0.00  0.00    +0.000 A 
ENDBRANCH  12  13
ENDBRANCH  11  12
ENDBRANCH   1  11
TORSDOF 4
ENDMDL
