REMARK  Name = *****
REMARK  3 active torsions:
REMARK  status: ('A' for Active; 'I' for Inactive)
REMARK    1  A    between atoms: C_1  and  C_2
REMARK    2  A    between atoms: C_4  and  C_9
REMARK    3  A    between atoms: N_10  and  C_11
REMARK                            x       y       z     vdW  Elec       q    Type
REMARK                         _______ _______ _______ _____ _____    ______ ____
ROOT
ATOM      1  C   UNL     1      -1.229  -2.582   0.170  0.00  0.00    +0.000 C 
ATOM      2  N   UNL     1      -0.591  -3.671  -0.157  0.00  0.00    +0.000 NA
ENDROOT
BRANCH   1   6
ATOM      3  C   UNL     1       2.925   0.110  -0.481  0.00  0.00    +0.000 C 
ATOM      4  C   UNL     1       1.476   0.040  -0.118  0.00  0.00    +0.000 C 
ATOM      5  C   UNL     1       0.796  -1.178  -0.123  0.00  0.00    +0.000 C 
ATOM      6  C   UNL     1      -0.579  -1.242   0.188  0.00  0.00    +0.000 C 
ATOM      7  C   UNL     1      -1.350  -0.091   0.506  0.00  0.00    +0.000 C 
ATOM      8  C   UNL     1      -0.616   1.114   0.480  0.00  0.00    +0.000 C 
ATOM      9  C   UNL     1       0.752   1.192   0.175  0.00  0.00    +0.000 C 
ATOM     10  O   UNL     1      -2.597  -0.092   0.791  0.00  0.00    +0.000 OA
ENDBRANCH   1   6
BRANCH   2  11
ATOM     11  C   UNL     1      -1.345  -4.850  -0.135  0.00  0.00    +0.000 A 
ATOM     12  C   UNL     1      -2.291  -5.122  -1.129  0.00  0.00    +0.000 A 
ATOM     13  C   UNL     1      -3.015  -6.317  -1.111  0.00  0.00    +0.000 A 
ATOM     14  C   UNL     1      -2.782  -7.247  -0.100  0.00  0.00    +0.000 A 
ATOM     15  C   UNL     1      -1.834  -6.994   0.890  0.00  0.00    +0.000 A 
ATOM     16  C   UNL     1      -1.115  -5.797   0.866  0.00  0.00    +0.000 A 
ATOM     17 CL   UNL     1      -3.667  -8.724  -0.077  0.00  0.00    +0.000 Cl
ENDBRANCH   2  11
TORSDOF 2
