MODEL 1
REMARK VINA RESULT:      -4.6      0.000      0.000
REMARK  Name = *****
REMARK  3 active torsions:
REMARK  status: ('A' for Active; 'I' for Inactive)
REMARK    1  A    between atoms: C_4  and  C_7
REMARK    2  A    between atoms: C_8  and  C_9
REMARK    3  A    between atoms: C_12  and  C_14
REMARK                            x       y       z     vdW  Elec       q    Type
REMARK                         _______ _______ _______ _____ _____    ______ ____
ROOT
ATOM      1  C   UNL     1     101.958 125.976  82.221  0.00  0.00    +0.000 C 
ATOM      2  C   UNL     1     102.876 126.167  81.257  0.00  0.00    +0.000 C 
ENDROOT
BRANCH   1   6
ATOM      3  C   UNL     1      99.140 128.959  83.418  0.00  0.00    +0.000 A 
ATOM      4  C   UNL     1     100.493 129.145  83.694  0.00  0.00    +0.000 A 
ATOM      5  C   UNL     1     101.424 128.175  83.314  0.00  0.00    +0.000 A 
ATOM      6  C   UNL     1     101.008 127.006  82.664  0.00  0.00    +0.000 A 
ATOM      7  C   UNL     1      99.648 126.839  82.376  0.00  0.00    +0.000 A 
ATOM      8  C   UNL     1      98.717 127.809  82.757  0.00  0.00    +0.000 A 
ENDBRANCH   1   6
BRANCH   2   9
ATOM      9  C   UNL     1     103.818 125.182  80.818  0.00  0.00    +0.000 A 
ATOM     10  N   UNL     1     104.596 125.287  79.731  0.00  0.00    +0.000 NA
ATOM     11  O   UNL     1     105.348 124.131  79.681  0.00  0.00    +0.000 OA
ATOM     12  C   UNL     1     105.024 123.331  80.731  0.00  0.00    +0.000 A 
ATOM     13  C   UNL     1     104.050 123.951  81.478  0.00  0.00    +0.000 A 
BRANCH  12  14
ATOM     14  C   UNL     1     105.732 122.039  80.806  0.00  0.00    +0.000 C 
ATOM     15 CL   UNL     1     104.656 120.752  81.401  0.00  0.00    +0.000 Cl
ENDBRANCH  12  14
ENDBRANCH   2   9
TORSDOF 3
ENDMDL
