REMARK  Name = *****
REMARK  4 active torsions:
REMARK  status: ('A' for Active; 'I' for Inactive)
REMARK    1  A    between atoms: C_1  and  C_2
REMARK    2  A    between atoms: C_5  and  C_8
REMARK    3  A    between atoms: C_8  and  O_9
REMARK    4  A    between atoms: O_9  and  C_10
REMARK                            x       y       z     vdW  Elec       q    Type
REMARK                         _______ _______ _______ _____ _____    ______ ____
ROOT
ATOM      1  C   UNL     1      -1.944  -0.064  -1.885  0.00  0.00    +0.000 C 
ENDROOT
BRANCH   1   6
ATOM      2  C   UNL     1       2.566  -0.006   0.028  0.00  0.00    +0.000 C 
ATOM      3  C   UNL     1       1.084   0.017   0.396  0.00  0.00    +0.000 C 
ATOM      4  C   UNL     1       0.404   1.268  -0.175  0.00  0.00    +0.000 C 
ATOM      5  C   UNL     1      -1.095   1.283   0.121  0.00  0.00    +0.000 C 
ATOM      6  C   UNL     1      -1.813   0.007  -0.351  0.00  0.00    +0.000 C 
ATOM      7  C   UNL     1      -1.112  -1.238   0.211  0.00  0.00    +0.000 C 
ATOM      8  C   UNL     1       0.387  -1.263  -0.086  0.00  0.00    +0.000 C 
ENDBRANCH   1   6
BRANCH   1   9
ATOM      9  O   UNL     1      -2.725   1.046  -2.330  0.00  0.00    +0.000 OA
BRANCH   9  10
ATOM     10  C   UNL     1      -2.926   1.168  -3.677  0.00  0.00    +0.000 A 
ATOM     11  C   UNL     1      -2.472   0.287  -4.660  0.00  0.00    +0.000 A 
ATOM     12  C   UNL     1      -2.751   0.535  -6.008  0.00  0.00    +0.000 A 
ATOM     13  C   UNL     1      -3.484   1.661  -6.379  0.00  0.00    +0.000 A 
ATOM     14  C   UNL     1      -3.941   2.542  -5.402  0.00  0.00    +0.000 A 
ATOM     15  C   UNL     1      -3.662   2.294  -4.057  0.00  0.00    +0.000 A 
ENDBRANCH   9  10
ENDBRANCH   1   9
TORSDOF 3
