MODEL 1
REMARK VINA RESULT:      -4.8      0.000      0.000
REMARK  Name = *****
REMARK  2 active torsions:
REMARK  status: ('A' for Active; 'I' for Inactive)
REMARK    1  A    between atoms: C_1  and  C_2
REMARK    2  A    between atoms: C_5  and  C_6
REMARK                            x       y       z     vdW  Elec       q    Type
REMARK                         _______ _______ _______ _____ _____    ______ ____
ROOT
ATOM      1  C   UNL     1     101.642 126.751  82.618  0.00  0.00    +0.000 A 
ATOM      2  C   UNL     1     102.190 127.867  83.283  0.00  0.00    +0.000 A 
ATOM      3  C   UNL     1     101.406 128.945  83.738  0.00  0.00    +0.000 A 
ATOM      4  C   UNL     1     101.980 130.050  84.391  0.00  0.00    +0.000 A 
ATOM      5  C   UNL     1     101.187 131.109  84.835  0.00  0.00    +0.000 A 
ATOM      6  C   UNL     1      99.810 131.079  84.634  0.00  0.00    +0.000 A 
ATOM      7  C   UNL     1      99.225 129.989  83.989  0.00  0.00    +0.000 A 
ATOM      8  C   UNL     1     100.011 128.917  83.536  0.00  0.00    +0.000 A 
ATOM      9  C   UNL     1      99.443 127.813  82.889  0.00  0.00    +0.000 A 
ATOM     10  C   UNL     1     100.246 126.757  82.446  0.00  0.00    +0.000 A 
ENDROOT
BRANCH   1  15
ATOM     11  C   UNL     1     103.655 126.970  80.176  0.00  0.00    +0.000 C 
ATOM     12  C   UNL     1     103.215 125.611  80.704  0.00  0.00    +0.000 C 
ATOM     13  C   UNL     1     104.353 124.751  81.308  0.00  0.00    +0.000 C 
ATOM     14  C   UNL     1     103.944 125.288  82.692  0.00  0.00    +0.000 C 
ATOM     15  C   UNL     1     102.523 125.531  82.111  0.00  0.00    +0.000 C 
ENDBRANCH   1  15
TORSDOF 1
ENDMDL
