MODEL 1
REMARK VINA RESULT:      -4.6      0.000      0.000
REMARK  Name = *****
REMARK  5 active torsions:
REMARK  status: ('A' for Active; 'I' for Inactive)
REMARK    1  A    between atoms: C_1  and  C_2
REMARK    2  A    between atoms: C_5  and  C_8
REMARK    3  A    between atoms: C_8  and  C_9
REMARK    4  A    between atoms: C_9  and  C_10
REMARK    5  A    between atoms: C_10  and  C_11
REMARK                            x       y       z     vdW  Elec       q    Type
REMARK                         _______ _______ _______ _____ _____    ______ ____
ROOT
ATOM      1  C   UNL     1      97.266 116.509  80.103  0.00  0.00    +0.000 C 
ENDROOT
BRANCH   1   6
ATOM      2  C   UNL     1      96.510 121.982  81.947  0.00  0.00    +0.000 C 
ATOM      3  C   UNL     1      96.704 120.562  81.505  0.00  0.00    +0.000 A 
ATOM      4  C   UNL     1      95.603 119.734  81.267  0.00  0.00    +0.000 A 
ATOM      5  C   UNL     1      95.784 118.422  80.822  0.00  0.00    +0.000 A 
ATOM      6  C   UNL     1      97.071 117.918  80.602  0.00  0.00    +0.000 A 
ATOM      7  C   UNL     1      98.173 118.754  80.818  0.00  0.00    +0.000 A 
ATOM      8  C   UNL     1      97.991 120.066  81.263  0.00  0.00    +0.000 A 
ENDBRANCH   1   6
BRANCH   1   9
ATOM      9  C   UNL     1      97.962 116.479  78.741  0.00  0.00    +0.000 C 
BRANCH   9  10
ATOM     10  C   UNL     1      97.112 115.737  77.707  0.00  0.00    +0.000 C 
BRANCH  10  11
ATOM     11  C   UNL     1      96.331 116.690  76.838  0.00  0.00    +0.000 A 
ATOM     12  C   UNL     1      95.175 117.313  77.326  0.00  0.00    +0.000 A 
ATOM     13  C   UNL     1      94.443 118.181  76.515  0.00  0.00    +0.000 A 
ATOM     14  C   UNL     1      94.857 118.431  75.207  0.00  0.00    +0.000 A 
ATOM     15  C   UNL     1      96.000 117.811  74.709  0.00  0.00    +0.000 A 
ATOM     16  C   UNL     1      96.734 116.942  75.520  0.00  0.00    +0.000 A 
ENDBRANCH  10  11
ENDBRANCH   9  10
ENDBRANCH   1   9
TORSDOF 4
ENDMDL
