MODEL 1
REMARK VINA RESULT:      -5.0      0.000      0.000
REMARK  Name = *****
REMARK  5 active torsions:
REMARK  status: ('A' for Active; 'I' for Inactive)
REMARK    1  A    between atoms: C_1  and  C_2
REMARK    2  A    between atoms: C_3  and  C_18
REMARK    3  A    between atoms: C_5  and  N_8
REMARK    4  A    between atoms: N_8  and  C_9
REMARK    5  A    between atoms: C_9  and  C_10
REMARK                            x       y       z     vdW  Elec       q    Type
REMARK                         _______ _______ _______ _____ _____    ______ ____
ROOT
ATOM      1  N   UNL     1      88.739  70.097  86.666  0.00  0.00    +0.000 N 
ATOM      2  O   UNL     1      89.655  70.783  87.228  0.00  0.00    +0.000 OA
ENDROOT
BRANCH   1   7
ATOM      3  C   UNL     1      88.978  64.360  86.995  0.00  0.00    +0.000 C 
ATOM      4  C   UNL     1      88.945  65.861  86.889  0.00  0.00    +0.000 A 
ATOM      5  C   UNL     1      89.959  66.571  86.210  0.00  0.00    +0.000 A 
ATOM      6  C   UNL     1      89.893  67.972  86.146  0.00  0.00    +0.000 A 
ATOM      7  C   UNL     1      88.816  68.650  86.726  0.00  0.00    +0.000 A 
ATOM      8  C   UNL     1      87.826  67.956  87.421  0.00  0.00    +0.000 A 
ATOM      9  C   UNL     1      87.890  66.566  87.495  0.00  0.00    +0.000 A 
ATOM     10  C   UNL     1      91.116  65.859  85.565  0.00  0.00    +0.000 C 
ENDBRANCH   1   7
BRANCH   1  11
ATOM     11  C   UNL     1      87.767  70.720  86.040  0.00  0.00    +0.000 C 
BRANCH  11  12
ATOM     12  C   UNL     1      86.553  71.292  86.625  0.00  0.00    +0.000 A 
ATOM     13  C   UNL     1      86.346  71.367  88.004  0.00  0.00    +0.000 A 
ATOM     14  C   UNL     1      85.177  71.952  88.497  0.00  0.00    +0.000 A 
ATOM     15  C   UNL     1      84.236  72.478  87.613  0.00  0.00    +0.000 A 
ATOM     16  C   UNL     1      84.457  72.433  86.237  0.00  0.00    +0.000 A 
ATOM     17  C   UNL     1      85.623  71.847  85.741  0.00  0.00    +0.000 A 
ATOM     18 CL   UNL     1      82.799  73.197  88.224  0.00  0.00    +0.000 Cl
ENDBRANCH  11  12
ENDBRANCH   1  11
TORSDOF 3
ENDMDL
