MODEL 1
REMARK VINA RESULT:      -4.4      0.000      0.000
REMARK  Name = *****
REMARK  3 active torsions:
REMARK  status: ('A' for Active; 'I' for Inactive)
REMARK    1  A    between atoms: C_4  and  C_7
REMARK    2  A    between atoms: C_8  and  S_10
REMARK    3  A    between atoms: S_10  and  C_11
REMARK                            x       y       z     vdW  Elec       q    Type
REMARK                         _______ _______ _______ _____ _____    ______ ____
ROOT
ATOM      1  C   UNL     1      89.810  66.801  86.428  0.00  0.00    +0.000 C 
ATOM      2  C   UNL     1      88.818  65.933  86.178  0.00  0.00    +0.000 C 
ATOM      3  F   UNL     1      87.721  66.341  85.501  0.00  0.00    +0.000 F 
ENDROOT
BRANCH   1   7
ATOM      4  C   UNL     1      89.740  70.951  85.380  0.00  0.00    +0.000 A 
ATOM      5  C   UNL     1      89.985  69.999  84.391  0.00  0.00    +0.000 A 
ATOM      6  C   UNL     1      90.019  68.641  84.719  0.00  0.00    +0.000 A 
ATOM      7  C   UNL     1      89.823  68.219  86.041  0.00  0.00    +0.000 A 
ATOM      8  C   UNL     1      89.562  69.187  87.022  0.00  0.00    +0.000 A 
ATOM      9  C   UNL     1      89.527  70.545  86.694  0.00  0.00    +0.000 A 
ENDBRANCH   1   7
BRANCH   2  10
ATOM     10  S   UNL     1      88.936  64.278  86.680  0.00  0.00    +0.000 S 
BRANCH  10  11
ATOM     11  C   UNL     1      88.226  64.406  88.309  0.00  0.00    +0.000 A 
ATOM     12  C   UNL     1      88.803  63.725  89.386  0.00  0.00    +0.000 A 
ATOM     13  C   UNL     1      88.254  63.838  90.665  0.00  0.00    +0.000 A 
ATOM     14  C   UNL     1      87.132  64.637  90.875  0.00  0.00    +0.000 A 
ATOM     15  C   UNL     1      86.558  65.326  89.808  0.00  0.00    +0.000 A 
ATOM     16  C   UNL     1      87.104  65.213  88.528  0.00  0.00    +0.000 A 
ENDBRANCH  10  11
ENDBRANCH   2  10
TORSDOF 3
ENDMDL
