REMARK  Name = *****
REMARK  3 active torsions:
REMARK  status: ('A' for Active; 'I' for Inactive)
REMARK    1  A    between atoms: C_6  and  C_7
REMARK    2  A    between atoms: C_7  and  S_8
REMARK    3  A    between atoms: S_8  and  C_9
REMARK                            x       y       z     vdW  Elec       q    Type
REMARK                         _______ _______ _______ _____ _____    ______ ____
ROOT
ATOM      1  S   UNL     1      -4.061   1.874  -0.042  0.00  0.00    +0.000 S 
ENDROOT
BRANCH   1   2
ATOM      2  C   UNL     1      -5.841   1.711  -0.039  0.00  0.00    +0.000 A 
ATOM      3  C   UNL     1      -6.538   0.501  -0.038  0.00  0.00    +0.000 A 
ATOM      4  C   UNL     1      -7.934   0.494  -0.036  0.00  0.00    +0.000 A 
ATOM      5  C   UNL     1      -8.657   1.683  -0.037  0.00  0.00    +0.000 A 
ATOM      6  C   UNL     1      -7.978   2.897  -0.039  0.00  0.00    +0.000 A 
ATOM      7  C   UNL     1      -6.579   2.908  -0.041  0.00  0.00    +0.000 A 
ATOM      8 CL   UNL     1     -10.377   1.669  -0.034  0.00  0.00    +0.000 Cl
ATOM      9  F   UNL     1      -8.565  -0.690  -0.034  0.00  0.00    +0.000 F 
ENDBRANCH   1   2
BRANCH   1  10
ATOM     10  C   UNL     1      -3.466   0.151   0.006  0.00  0.00    +0.000 C 
BRANCH  10  16
ATOM     11  C   UNL     1      -1.223   0.069  -1.163  0.00  0.00    +0.000 A 
ATOM     12  C   UNL     1       0.172   0.031  -1.135  0.00  0.00    +0.000 A 
ATOM     13  C   UNL     1       0.834   0.027   0.086  0.00  0.00    +0.000 A 
ATOM     14  C   UNL     1       0.128   0.063   1.283  0.00  0.00    +0.000 A 
ATOM     15  C   UNL     1      -1.267   0.100   1.258  0.00  0.00    +0.000 A 
ATOM     16  C   UNL     1      -1.957   0.096   0.034  0.00  0.00    +0.000 A 
ATOM     17  F   UNL     1       2.172  -0.009   0.112  0.00  0.00    +0.000 F 
ENDBRANCH  10  16
ENDBRANCH   1  10
TORSDOF 3
