MODEL 1
REMARK VINA RESULT:      -4.4      0.000      0.000
REMARK  Name = *****
REMARK  5 active torsions:
REMARK  status: ('A' for Active; 'I' for Inactive)
REMARK    1  A    between atoms: C_1  and  C_2
REMARK    2  A    between atoms: C_5  and  S_8
REMARK    3  A    between atoms: S_8  and  O_10
REMARK    4  A    between atoms: O_10  and  C_11
REMARK    5  A    between atoms: C_16  and  C_18
REMARK                            x       y       z     vdW  Elec       q    Type
REMARK                         _______ _______ _______ _____ _____    ______ ____
ROOT
ATOM      1  S   UNL     1      87.427  63.216  87.123  0.00  0.00    +0.000 S 
ATOM      2  O   UNL     1      86.325  64.091  86.604  0.00  0.00    +0.000 OA
ENDROOT
BRANCH   1   7
ATOM      3  C   UNL     1      88.188  64.604  93.039  0.00  0.00    +0.000 C 
ATOM      4  C   UNL     1      87.992  64.243  91.596  0.00  0.00    +0.000 A 
ATOM      5  C   UNL     1      89.093  63.922  90.793  0.00  0.00    +0.000 A 
ATOM      6  C   UNL     1      88.917  63.617  89.441  0.00  0.00    +0.000 A 
ATOM      7  C   UNL     1      87.639  63.645  88.869  0.00  0.00    +0.000 A 
ATOM      8  C   UNL     1      86.540  63.977  89.667  0.00  0.00    +0.000 A 
ATOM      9  C   UNL     1      86.718  64.282  91.020  0.00  0.00    +0.000 A 
ENDBRANCH   1   7
BRANCH   1  10
ATOM     10  O   UNL     1      88.828  63.891  86.700  0.00  0.00    +0.000 OA
BRANCH  10  11
ATOM     11  C   UNL     1      88.726  65.096  85.945  0.00  0.00    +0.000 C 
ATOM     12  C   UNL     1      89.235  66.293  86.775  0.00  0.00    +0.000 C 
ATOM     13  C   UNL     1      90.431  66.807  85.956  0.00  0.00    +0.000 C 
ATOM     14  C   UNL     1      89.909  67.464  84.669  0.00  0.00    +0.000 C 
ATOM     15  C   UNL     1      89.435  66.264  83.836  0.00  0.00    +0.000 C 
ATOM     16  C   UNL     1      89.732  65.061  84.758  0.00  0.00    +0.000 C 
ATOM     17  C   UNL     1      91.037  65.508  85.430  0.00  0.00    +0.000 C 
ATOM     18  C   UNL     1      89.817  63.739  84.020  0.00  0.00    +0.000 C 
ENDBRANCH  10  11
ENDBRANCH   1  10
TORSDOF 3
ENDMDL
