MODEL 1
REMARK VINA RESULT:      -3.8      0.000      0.000
REMARK  Name = *****
REMARK  3 active torsions:
REMARK  status: ('A' for Active; 'I' for Inactive)
REMARK    1  A    between atoms: N_5  and  C_8
REMARK    2  A    between atoms: C_8  and  S_10
REMARK    3  A    between atoms: S_10  and  N_11
REMARK                            x       y       z     vdW  Elec       q    Type
REMARK                         _______ _______ _______ _____ _____    ______ ____
ROOT
ATOM      1  C   UNL     1     103.494 127.011  84.144  0.00  0.00    +0.000 C 
ATOM      2  S   UNL     1     104.891 127.779  84.704  0.00  0.00    +0.000 S 
ENDROOT
BRANCH   1   7
ATOM      3  C   UNL     1     104.632 126.378  80.116  0.00  0.00    +0.000 C 
ATOM      4  C   UNL     1     104.259 124.917  80.357  0.00  0.00    +0.000 C 
ATOM      5  C   UNL     1     103.885 124.578  81.797  0.00  0.00    +0.000 C 
ATOM      6  C   UNL     1     102.739 125.419  82.355  0.00  0.00    +0.000 C 
ATOM      7  N   UNL     1     103.191 126.749  82.788  0.00  0.00    +0.000 N 
ATOM      8  C   UNL     1     103.267 127.794  81.757  0.00  0.00    +0.000 C 
ATOM      9  C   UNL     1     103.457 127.333  80.310  0.00  0.00    +0.000 C 
ENDBRANCH   1   7
BRANCH   1  10
ATOM     10  S   UNL     1     102.292 126.508  85.367  0.00  0.00    +0.000 S 
BRANCH  10  11
ATOM     11  N   UNL     1     100.921 127.325  84.847  0.00  0.00    +0.000 NA
ATOM     12  C   UNL     1      99.760 126.571  84.362  0.00  0.00    +0.000 C 
ATOM     13  C   UNL     1      99.429 126.958  82.918  0.00  0.00    +0.000 C 
ATOM     14  C   UNL     1      98.718 128.299  82.752  0.00  0.00    +0.000 C 
ATOM     15  C   UNL     1      99.405 129.491  83.414  0.00  0.00    +0.000 C 
ATOM     16  C   UNL     1      99.404 129.394  84.938  0.00  0.00    +0.000 C 
ATOM     17  C   UNL     1     100.565 128.581  85.520  0.00  0.00    +0.000 C 
ENDBRANCH  10  11
ENDBRANCH   1  10
TORSDOF 3
ENDMDL
