REMARK  Name = *****
REMARK  2 active torsions:
REMARK  status: ('A' for Active; 'I' for Inactive)
REMARK    1  A    between atoms: C_1  and  C_2
REMARK    2  A    between atoms: C_10  and  C_12
REMARK                            x       y       z     vdW  Elec       q    Type
REMARK                         _______ _______ _______ _____ _____    ______ ____
ROOT
ATOM      1  C   UNL     1       1.075   0.012  -0.210  0.00  0.00    +0.000 C 
ATOM      2  C   UNL     1       2.571   0.003  -0.058  0.00  0.00    +0.000 A 
ATOM      3  C   UNL     1       3.297  -1.201  -0.038  0.00  0.00    +0.000 A 
ATOM      4  C   UNL     1       4.686  -1.165   0.083  0.00  0.00    +0.000 A 
ATOM      5  C   UNL     1       5.361   0.061   0.157  0.00  0.00    +0.000 A 
ATOM      6  C   UNL     1       4.646   1.254   0.120  0.00  0.00    +0.000 A 
ATOM      7  C   UNL     1       3.257   1.226   0.010  0.00  0.00    +0.000 A 
ATOM      8  C   UNL     1       5.434  -2.457   0.089  0.00  0.00    +0.000 C 
ATOM      9  O   UNL     1       4.619  -3.625   0.257  0.00  0.00    +0.000 OA
ATOM     10  C   UNL     1       3.288  -3.522   0.043  0.00  0.00    +0.000 C 
ATOM     11  N   UNL     1       2.628  -2.425  -0.129  0.00  0.00    +0.000 NA
ENDROOT
BRANCH  10  12
ATOM     12  C   UNL     1       2.648  -4.862   0.017  0.00  0.00    +0.000 A 
ATOM     13  C   UNL     1       3.311  -6.007   0.482  0.00  0.00    +0.000 A 
ATOM     14  C   UNL     1       2.673  -7.250   0.449  0.00  0.00    +0.000 A 
ATOM     15  C   UNL     1       1.375  -7.357  -0.048  0.00  0.00    +0.000 A 
ATOM     16  C   UNL     1       0.709  -6.223  -0.511  0.00  0.00    +0.000 A 
ATOM     17  C   UNL     1       1.342  -4.978  -0.476  0.00  0.00    +0.000 A 
ENDBRANCH  10  12
TORSDOF 1
