REMARK  Name = *****
REMARK  4 active torsions:
REMARK  status: ('A' for Active; 'I' for Inactive)
REMARK    1  A    between atoms: C_1  and  O_2
REMARK    2  A    between atoms: O_2  and  C_3
REMARK    3  A    between atoms: C_3  and  C_10
REMARK    4  A    between atoms: C_11  and  C_12
REMARK                            x       y       z     vdW  Elec       q    Type
REMARK                         _______ _______ _______ _____ _____    ______ ____
ROOT
ATOM      1  C   UNL     1       2.784   0.928   0.947  0.00  0.00    +0.000 C 
ATOM      2  C   UNL     1       1.824   1.798   1.745  0.00  0.00    +0.000 C 
ATOM      3  C   UNL     1       2.784   0.901   2.482  0.00  0.00    +0.000 C 
ATOM      4  C   UNL     1       3.866   1.494   3.335  0.00  0.00    +0.000 C 
ATOM      5  C   UNL     1       3.535   2.912   3.788  0.00  0.00    +0.000 C 
ATOM      6  C   UNL     1       3.173   3.791   2.597  0.00  0.00    +0.000 C 
ATOM      7  C   UNL     1       1.912   3.288   1.899  0.00  0.00    +0.000 C 
ENDROOT
BRANCH   1   9
ATOM      8  C   UNL     1       1.508  -0.086  -0.832  0.00  0.00    +0.000 C 
ATOM      9  O   UNL     1       2.182  -0.281   0.405  0.00  0.00    +0.000 OA
ENDBRANCH   1   9
BRANCH   1  10
ATOM     10  C   UNL     1       3.942   1.525   0.253  0.00  0.00    +0.000 C 
ATOM     11  C   UNL     1       3.900   2.424  -0.746  0.00  0.00    +0.000 C 
BRANCH  11  12
ATOM     12  C   UNL     1       5.112   2.978  -1.435  0.00  0.00    +0.000 C 
ATOM     13  C   UNL     1       5.162   4.482  -1.357  0.00  0.00    +0.000 C 
ATOM     14  C   UNL     1       5.145   5.007  -2.593  0.00  0.00    +0.000 C 
ATOM     15  C   UNL     1       5.083   3.941  -3.562  0.00  0.00    +0.000 C 
ATOM     16  C   UNL     1       5.060   2.761  -2.925  0.00  0.00    +0.000 C 
ENDBRANCH  11  12
ENDBRANCH   1  10
TORSDOF 3
