MODEL 1
REMARK VINA RESULT:      -4.5      0.000      0.000
REMARK  Name = *****
REMARK  4 active torsions:
REMARK  status: ('A' for Active; 'I' for Inactive)
REMARK    1  A    between atoms: C_4  and  C_7
REMARK    2  A    between atoms: C_7  and  S_8
REMARK    3  A    between atoms: C_7  and  N_10
REMARK    4  A    between atoms: N_10  and  C_11
REMARK                            x       y       z     vdW  Elec       q    Type
REMARK                         _______ _______ _______ _____ _____    ______ ____
ROOT
ATOM      1  C   UNL     1      89.167  64.483  86.730  0.00  0.00    +0.000 C 
ENDROOT
BRANCH   1   5
ATOM      2  C   UNL     1      88.750  68.734  86.925  0.00  0.00    +0.000 A 
ATOM      3  C   UNL     1      89.905  68.180  86.370  0.00  0.00    +0.000 A 
ATOM      4  C   UNL     1      90.059  66.795  86.312  0.00  0.00    +0.000 A 
ATOM      5  C   UNL     1      89.057  65.961  86.820  0.00  0.00    +0.000 A 
ATOM      6  C   UNL     1      87.896  66.518  87.373  0.00  0.00    +0.000 A 
ATOM      7  C   UNL     1      87.748  67.905  87.427  0.00  0.00    +0.000 A 
ENDBRANCH   1   5
BRANCH   1   8
ATOM      8  S   UNL     1      89.285  63.759  85.262  0.00  0.00    +0.000 S 
ATOM      9  O   UNL     1      88.470  62.524  85.088  0.00  0.00    +0.000 OA
ENDBRANCH   1   8
BRANCH   1  10
ATOM     10  N   UNL     1      89.104  63.841  87.960  0.00  0.00    +0.000 N 
ATOM     11  H   UNL     1      89.982  63.676  88.372  0.00  0.00    +0.000 HD
BRANCH  10  12
ATOM     12  C   UNL     1      88.010  63.381  88.729  0.00  0.00    +0.000 A 
ATOM     13  C   UNL     1      87.098  62.406  88.324  0.00  0.00    +0.000 A 
ATOM     14  C   UNL     1      86.059  62.007  89.174  0.00  0.00    +0.000 A 
ATOM     15  C   UNL     1      85.929  62.570  90.440  0.00  0.00    +0.000 A 
ATOM     16  C   UNL     1      86.846  63.524  90.865  0.00  0.00    +0.000 A 
ATOM     17  C   UNL     1      87.883  63.921  90.017  0.00  0.00    +0.000 A 
ENDBRANCH  10  12
ENDBRANCH   1  10
TORSDOF 4
ENDMDL
