MODEL 1
REMARK VINA RESULT:      -4.2      0.000      0.000
REMARK  Name = *****
REMARK  3 active torsions:
REMARK  status: ('A' for Active; 'I' for Inactive)
REMARK    1  A    between atoms: C_4  and  C_7
REMARK    2  A    between atoms: C_7  and  S_8
REMARK    3  A    between atoms: S_8  and  C_10
REMARK                            x       y       z     vdW  Elec       q    Type
REMARK                         _______ _______ _______ _____ _____    ______ ____
ROOT
ATOM      1  S   UNL     1     103.010 127.388  82.910  0.00  0.00    +0.000 S 
ATOM      2  O   UNL     1     103.606 128.757  82.757  0.00  0.00    +0.000 OA
ENDROOT
BRANCH   1   3
ATOM      3  C   UNL     1     101.218 127.626  82.955  0.00  0.00    +0.000 A 
ATOM      4  C   UNL     1     100.688 128.790  83.524  0.00  0.00    +0.000 A 
ATOM      5  C   UNL     1      99.306 128.986  83.562  0.00  0.00    +0.000 A 
ATOM      6  C   UNL     1      98.449 128.025  83.029  0.00  0.00    +0.000 A 
ATOM      7  C   UNL     1      98.972 126.868  82.452  0.00  0.00    +0.000 A 
ATOM      8  C   UNL     1     100.353 126.670  82.413  0.00  0.00    +0.000 A 
ENDBRANCH   1   3
BRANCH   1   9
ATOM      9  C   UNL     1     103.087 126.576  81.274  0.00  0.00    +0.000 C 
BRANCH   9  13
ATOM     10  C   UNL     1     105.309 122.863  81.959  0.00  0.00    +0.000 C 
ATOM     11  C   UNL     1     104.279 123.304  82.993  0.00  0.00    +0.000 C 
ATOM     12  C   UNL     1     103.904 124.774  82.821  0.00  0.00    +0.000 C 
ATOM     13  C   UNL     1     103.411 125.079  81.395  0.00  0.00    +0.000 C 
ATOM     14  C   UNL     1     104.463 124.630  80.365  0.00  0.00    +0.000 C 
ATOM     15  C   UNL     1     104.838 123.160  80.540  0.00  0.00    +0.000 C 
ENDBRANCH   9  13
ENDBRANCH   1   9
TORSDOF 3
ENDMDL
