MODEL 1
REMARK VINA RESULT:      -5.0      0.000      0.000
REMARK  Name = *****
REMARK  1 active torsions:
REMARK  status: ('A' for Active; 'I' for Inactive)
REMARK    1  A    between atoms: C_5  and  C_9
REMARK                            x       y       z     vdW  Elec       q    Type
REMARK                         _______ _______ _______ _____ _____    ______ ____
ROOT
ATOM      1  C   UNL     1     105.302 123.512  80.284  0.00  0.00    +0.000 C 
ATOM      2  C   UNL     1     104.932 124.916  79.737  0.00  0.00    +0.000 C 
ATOM      3  C   UNL     1     103.697 125.237  80.539  0.00  0.00    +0.000 C 
ATOM      4  C   UNL     1     103.143 126.620  80.804  0.00  0.00    +0.000 C 
ATOM      5  C   UNL     1     102.396 126.311  82.098  0.00  0.00    +0.000 C 
ATOM      6  C   UNL     1     102.905 125.210  82.694  0.00  0.00    +0.000 C 
ATOM      7  C   UNL     1     104.090 124.743  81.927  0.00  0.00    +0.000 C 
ATOM      8  C   UNL     1     104.497 123.322  81.597  0.00  0.00    +0.000 C 
ENDROOT
BRANCH   5   9
ATOM      9  C   UNL     1     101.289 127.148  82.584  0.00  0.00    +0.000 A 
ATOM     10  C   UNL     1      99.955 126.768  82.371  0.00  0.00    +0.000 A 
ATOM     11  C   UNL     1      98.897 127.553  82.840  0.00  0.00    +0.000 A 
ATOM     12  C   UNL     1      99.157 128.731  83.535  0.00  0.00    +0.000 A 
ATOM     13  C   UNL     1     100.472 129.122  83.762  0.00  0.00    +0.000 A 
ATOM     14  C   UNL     1     101.529 128.336  83.291  0.00  0.00    +0.000 A 
ENDBRANCH   5   9
TORSDOF 1
ENDMDL
