MODEL 1
REMARK VINA RESULT:      -4.7      0.000      0.000
REMARK  Name = *****
REMARK  4 active torsions:
REMARK  status: ('A' for Active; 'I' for Inactive)
REMARK    1  A    between atoms: C_1  and  C_2
REMARK    2  A    between atoms: C_5  and  C_8
REMARK    3  A    between atoms: C_8  and  O_10
REMARK    4  A    between atoms: O_10  and  C_11
REMARK                            x       y       z     vdW  Elec       q    Type
REMARK                         _______ _______ _______ _____ _____    ______ ____
ROOT
ATOM      1  C   UNL     1     103.321 127.313  82.092  0.00  0.00    +0.000 C 
ATOM      2  O   UNL     1     103.624 128.319  81.468  0.00  0.00    +0.000 OA
ENDROOT
BRANCH   1   7
ATOM      3  C   UNL     1     105.044 121.941  80.735  0.00  0.00    +0.000 C 
ATOM      4  C   UNL     1     104.579 123.331  81.050  0.00  0.00    +0.000 A 
ATOM      5  C   UNL     1     104.150 123.655  82.340  0.00  0.00    +0.000 A 
ATOM      6  C   UNL     1     103.742 124.944  82.667  0.00  0.00    +0.000 A 
ATOM      7  C   UNL     1     103.767 125.949  81.695  0.00  0.00    +0.000 A 
ATOM      8  C   UNL     1     104.208 125.641  80.399  0.00  0.00    +0.000 A 
ATOM      9  C   UNL     1     104.616 124.341  80.082  0.00  0.00    +0.000 A 
ATOM     10  F   UNL     1     104.127 122.710  83.290  0.00  0.00    +0.000 F 
ENDBRANCH   1   7
BRANCH   1  11
ATOM     11  O   UNL     1     102.543 127.234  83.233  0.00  0.00    +0.000 OA
BRANCH  11  12
ATOM     12  C   UNL     1     101.201 127.608  83.086  0.00  0.00    +0.000 A 
ATOM     13  C   UNL     1     100.726 128.818  83.591  0.00  0.00    +0.000 A 
ATOM     14  C   UNL     1      99.370 129.119  83.476  0.00  0.00    +0.000 A 
ATOM     15  C   UNL     1      98.499 128.205  82.876  0.00  0.00    +0.000 A 
ATOM     16  C   UNL     1      98.982 126.987  82.395  0.00  0.00    +0.000 A 
ATOM     17  C   UNL     1     100.337 126.681  82.505  0.00  0.00    +0.000 A 
ENDBRANCH  11  12
ENDBRANCH   1  11
TORSDOF 3
ENDMDL
