REMARK  Name = *****
REMARK  1 active torsions:
REMARK  status: ('A' for Active; 'I' for Inactive)
REMARK    1  A    between atoms: C_9  and  C_10
REMARK                            x       y       z     vdW  Elec       q    Type
REMARK                         _______ _______ _______ _____ _____    ______ ____
ROOT
ATOM      1  C   UNL     1      -1.660   1.184  -0.173  0.00  0.00    +0.000 C 
ATOM      2  C   UNL     1      -0.247   0.696  -0.090  0.00  0.00    +0.000 A 
ATOM      3  C   UNL     1       0.934   1.413  -0.179  0.00  0.00    +0.000 A 
ATOM      4  C   UNL     1       2.137   0.712  -0.073  0.00  0.00    +0.000 A 
ATOM      5  C   UNL     1       2.142  -0.680   0.118  0.00  0.00    +0.000 A 
ATOM      6  C   UNL     1       0.942  -1.393   0.206  0.00  0.00    +0.000 A 
ATOM      7  C   UNL     1      -0.244  -0.689   0.101  0.00  0.00    +0.000 A 
ATOM      8  C   UNL     1      -1.616  -1.165   0.158  0.00  0.00    +0.000 C 
ATOM      9  C   UNL     1      -2.442  -0.109   0.013  0.00  0.00    +0.000 C 
ENDROOT
BRANCH   9  10
ATOM     10  C   UNL     1      -3.917  -0.140   0.013  0.00  0.00    +0.000 A 
ATOM     11  C   UNL     1      -4.626  -1.282   0.427  0.00  0.00    +0.000 A 
ATOM     12  C   UNL     1      -6.025  -1.303   0.435  0.00  0.00    +0.000 A 
ATOM     13  C   UNL     1      -6.729  -0.179   0.031  0.00  0.00    +0.000 A 
ATOM     14  C   UNL     1      -6.061   0.965  -0.379  0.00  0.00    +0.000 A 
ATOM     15  C   UNL     1      -4.662   0.985  -0.385  0.00  0.00    +0.000 A 
ATOM     16  F   UNL     1      -8.068  -0.198   0.038  0.00  0.00    +0.000 F 
ENDBRANCH   9  10
TORSDOF 1
