MODEL 1
REMARK VINA RESULT:      -4.7      0.000      0.000
REMARK  Name = *****
REMARK  5 active torsions:
REMARK  status: ('A' for Active; 'I' for Inactive)
REMARK    1  A    between atoms: C_1  and  C_2
REMARK    2  A    between atoms: C_2  and  O_8
REMARK    3  A    between atoms: O_8  and  O_9
REMARK    4  A    between atoms: O_9  and  C_10
REMARK    5  A    between atoms: C_10  and  C_12
REMARK                            x       y       z     vdW  Elec       q    Type
REMARK                         _______ _______ _______ _____ _____    ______ ____
ROOT
ATOM      1  O   UNL     1     100.204 126.646  83.206  0.00  0.00    +0.000 OA
ENDROOT
BRANCH   1   2
ATOM      2  C   UNL     1      99.073 127.334  82.881  0.00  0.00    +0.000 C 
ATOM      3  O   UNL     1      98.249 127.036  82.029  0.00  0.00    +0.000 OA
BRANCH   2   4
ATOM      4  C   UNL     1      98.965 128.555  83.724  0.00  0.00    +0.000 A 
ATOM      5  C   UNL     1      99.478 129.798  83.322  0.00  0.00    +0.000 A 
ATOM      6  C   UNL     1      99.356 130.909  84.159  0.00  0.00    +0.000 A 
ATOM      7  C   UNL     1      98.725 130.787  85.398  0.00  0.00    +0.000 A 
ATOM      8  C   UNL     1      98.216 129.555  85.804  0.00  0.00    +0.000 A 
ATOM      9  C   UNL     1      98.338 128.441  84.972  0.00  0.00    +0.000 A 
ENDBRANCH   2   4
ENDBRANCH   1   2
BRANCH   1  10
ATOM     10  O   UNL     1     101.150 126.813  82.103  0.00  0.00    +0.000 OA
BRANCH  10  12
ATOM     11  C   UNL     1     102.403 127.265  84.152  0.00  0.00    +0.000 C 
ATOM     12  C   UNL     1     102.473 126.908  82.661  0.00  0.00    +0.000 C 
ATOM     13  C   UNL     1     103.318 127.937  81.884  0.00  0.00    +0.000 C 
ATOM     14  C   UNL     1     103.501 127.545  80.417  0.00  0.00    +0.000 C 
ATOM     15  C   UNL     1     104.107 126.152  80.281  0.00  0.00    +0.000 C 
ATOM     16  C   UNL     1     103.299 125.108  81.046  0.00  0.00    +0.000 C 
ATOM     17  C   UNL     1     103.103 125.506  82.511  0.00  0.00    +0.000 C 
ENDBRANCH  10  12
ENDBRANCH   1  10
TORSDOF 4
ENDMDL
