REMARK  Name = *****
REMARK  4 active torsions:
REMARK  status: ('A' for Active; 'I' for Inactive)
REMARK    1  A    between atoms: C_7  and  C_9
REMARK    2  A    between atoms: C_9  and  O_11
REMARK    3  A    between atoms: O_11  and  C_12
REMARK    4  A    between atoms: C_12  and  C_13
REMARK                            x       y       z     vdW  Elec       q    Type
REMARK                         _______ _______ _______ _____ _____    ______ ____
ROOT
ATOM      1  C   UNL     1       0.899  -2.685   0.757  0.00  0.00    +0.000 C 
ATOM      2  O   UNL     1       1.850  -3.122   0.123  0.00  0.00    +0.000 OA
ENDROOT
BRANCH   1   9
ATOM      3  C   UNL     1      -1.067   0.682   0.925  0.00  0.00    +0.000 C 
ATOM      4  C   UNL     1      -0.113   1.661   0.204  0.00  0.00    +0.000 C 
ATOM      5  C   UNL     1       0.883   0.913  -0.699  0.00  0.00    +0.000 C 
ATOM      6  C   UNL     1       0.109  -0.025  -1.595  0.00  0.00    +0.000 C 
ATOM      7  C   UNL     1      -0.768  -0.850  -0.997  0.00  0.00    +0.000 C 
ATOM      8  C   UNL     1      -0.782  -0.784   0.520  0.00  0.00    +0.000 C 
ATOM      9  C   UNL     1       0.607  -1.215   1.068  0.00  0.00    +0.000 C 
ATOM     10  S   UNL     1       1.948  -0.111   0.393  0.00  0.00    +0.000 S 
ENDBRANCH   1   9
BRANCH   1  11
ATOM     11  O   UNL     1      -0.075  -3.465   1.316  0.00  0.00    +0.000 OA
BRANCH  11  12
ATOM     12  C   UNL     1       0.016  -4.873   1.060  0.00  0.00    +0.000 C 
BRANCH  12  13
ATOM     13  C   UNL     1       0.177  -5.613   2.363  0.00  0.00    +0.000 A 
ATOM     14  C   UNL     1      -0.860  -5.627   3.306  0.00  0.00    +0.000 A 
ATOM     15  C   UNL     1      -0.721  -6.336   4.501  0.00  0.00    +0.000 A 
ATOM     16  C   UNL     1       0.456  -7.034   4.765  0.00  0.00    +0.000 A 
ATOM     17  C   UNL     1       1.498  -7.017   3.840  0.00  0.00    +0.000 A 
ATOM     18  C   UNL     1       1.362  -6.306   2.646  0.00  0.00    +0.000 A 
ENDBRANCH  12  13
ENDBRANCH  11  12
ENDBRANCH   1  11
TORSDOF 4
