MODEL 1
REMARK VINA RESULT:      -4.6      0.000      0.000
REMARK  Name = *****
REMARK  3 active torsions:
REMARK  status: ('A' for Active; 'I' for Inactive)
REMARK    1  A    between atoms: C_1  and  N_2
REMARK    2  A    between atoms: C_8  and  C_9
REMARK    3  A    between atoms: C_10  and  C_11
REMARK                            x       y       z     vdW  Elec       q    Type
REMARK                         _______ _______ _______ _____ _____    ______ ____
ROOT
ATOM      1  C   UNL     1      87.879  63.338  86.393  0.00  0.00    +0.000 C 
ATOM      2  N   UNL     1      86.847  63.239  87.411  0.00  0.00    +0.000 NA
ATOM      3  C   UNL     1      87.152  63.368  88.659  0.00  0.00    +0.000 C 
ATOM      4  C   UNL     1      88.526  63.631  89.194  0.00  0.00    +0.000 C 
ATOM      5  C   UNL     1      88.705  63.903  90.492  0.00  0.00    +0.000 C 
ATOM      6  C   UNL     1      87.624  63.972  91.437  0.00  0.00    +0.000 C 
ATOM      7  C   UNL     1      86.370  63.670  91.079  0.00  0.00    +0.000 C 
ATOM      8  C   UNL     1      85.989  63.246  89.686  0.00  0.00    +0.000 C 
ENDROOT
BRANCH   8   9
ATOM      9  C   UNL     1      85.488  61.819  89.700  0.00  0.00    +0.000 C 
ATOM     10  C   UNL     1      85.466  61.049  90.801  0.00  0.00    +0.000 C 
BRANCH  10  11
ATOM     11  C   UNL     1      84.986  59.661  90.847  0.00  0.00    +0.000 A 
ATOM     12  C   UNL     1      83.630  59.328  90.732  0.00  0.00    +0.000 A 
ATOM     13  C   UNL     1      83.221  57.990  90.739  0.00  0.00    +0.000 A 
ATOM     14  C   UNL     1      84.164  56.972  90.849  0.00  0.00    +0.000 A 
ATOM     15  C   UNL     1      85.517  57.287  90.949  0.00  0.00    +0.000 A 
ATOM     16  C   UNL     1      85.925  58.624  90.944  0.00  0.00    +0.000 A 
ENDBRANCH  10  11
ENDBRANCH   8   9
TORSDOF 2
ENDMDL
