MODEL 1
REMARK VINA RESULT:      -5.0      0.000      0.000
REMARK  Name = *****
REMARK  1 active torsions:
REMARK  status: ('A' for Active; 'I' for Inactive)
REMARK    1  A    between atoms: C_8  and  C_10
REMARK                            x       y       z     vdW  Elec       q    Type
REMARK                         _______ _______ _______ _____ _____    ______ ____
ROOT
ATOM      1  C   UNL     1     105.117 123.167  81.681  0.00  0.00    +0.000 A 
ATOM      2  C   UNL     1     105.081 123.796  80.429  0.00  0.00    +0.000 A 
ATOM      3  C   UNL     1     104.230 124.881  80.183  0.00  0.00    +0.000 A 
ATOM      4  C   UNL     1     103.438 125.279  81.253  0.00  0.00    +0.000 A 
ATOM      5  C   UNL     1     103.444 124.686  82.504  0.00  0.00    +0.000 A 
ATOM      6  C   UNL     1     104.301 123.602  82.736  0.00  0.00    +0.000 A 
ATOM      7  N   UNL     1     102.548 125.322  83.322  0.00  0.00    +0.000 NA
ATOM      8  C   UNL     1     102.027 126.267  82.557  0.00  0.00    +0.000 A 
ATOM      9  O   UNL     1     102.534 126.298  81.280  0.00  0.00    +0.000 OA
ENDROOT
BRANCH   8  10
ATOM     10  C   UNL     1     101.029 127.273  82.886  0.00  0.00    +0.000 A 
ATOM     11  C   UNL     1     101.387 128.425  83.593  0.00  0.00    +0.000 A 
ATOM     12  C   UNL     1     100.448 129.405  83.926  0.00  0.00    +0.000 A 
ATOM     13  C   UNL     1      99.115 129.248  83.556  0.00  0.00    +0.000 A 
ATOM     14  C   UNL     1      98.733 128.107  82.856  0.00  0.00    +0.000 A 
ATOM     15  C   UNL     1      99.684 127.136  82.529  0.00  0.00    +0.000 A 
ATOM     16  F   UNL     1      99.250 126.050  81.870  0.00  0.00    +0.000 F 
ATOM     17  F   UNL     1     102.659 128.637  83.962  0.00  0.00    +0.000 F 
ENDBRANCH   8  10
TORSDOF 1
ENDMDL
