MODEL 1
REMARK VINA RESULT:      -5.0      0.000      0.000
REMARK  Name = *****
REMARK  3 active torsions:
REMARK  status: ('A' for Active; 'I' for Inactive)
REMARK    1  A    between atoms: C_4  and  C_16
REMARK    2  A    between atoms: C_5  and  C_7
REMARK    3  A    between atoms: C_8  and  C_9
REMARK                            x       y       z     vdW  Elec       q    Type
REMARK                         _______ _______ _______ _____ _____    ______ ____
ROOT
ATOM      1  C   UNL     1     101.613 127.386  82.967  0.00  0.00    +0.000 C 
ATOM      2  C   UNL     1     102.858 127.337  82.467  0.00  0.00    +0.000 C 
ENDROOT
BRANCH   2   3
ATOM      3  C   UNL     1     103.469 126.129  81.889  0.00  0.00    +0.000 A 
ATOM      4  C   UNL     1     103.700 125.030  82.732  0.00  0.00    +0.000 A 
ATOM      5  C   UNL     1     104.253 123.847  82.231  0.00  0.00    +0.000 A 
ATOM      6  C   UNL     1     104.572 123.740  80.878  0.00  0.00    +0.000 A 
ATOM      7  C   UNL     1     104.333 124.816  80.025  0.00  0.00    +0.000 A 
ATOM      8  C   UNL     1     103.783 125.993  80.530  0.00  0.00    +0.000 A 
ATOM      9  F   UNL     1     103.550 126.996  79.670  0.00  0.00    +0.000 F 
ENDBRANCH   2   3
BRANCH   1  14
ATOM     10  C   UNL     1     101.342 130.725  84.712  0.00  0.00    +0.000 A 
ATOM     11  C   UNL     1      99.983 131.004  84.597  0.00  0.00    +0.000 A 
ATOM     12  C   UNL     1      99.143 130.100  83.948  0.00  0.00    +0.000 A 
ATOM     13  C   UNL     1      99.656 128.907  83.412  0.00  0.00    +0.000 A 
ATOM     14  C   UNL     1     101.026 128.612  83.536  0.00  0.00    +0.000 A 
ATOM     15  C   UNL     1     101.861 129.542  84.181  0.00  0.00    +0.000 A 
BRANCH  13  16
ATOM     16  C   UNL     1      98.743 128.014  82.754  0.00  0.00    +0.000 C 
ATOM     17  N   UNL     1      98.002 127.274  82.255  0.00  0.00    +0.000 NA
ENDBRANCH  13  16
ENDBRANCH   1  14
TORSDOF 3
ENDMDL
