REMARK  Name = *****
REMARK  4 active torsions:
REMARK  status: ('A' for Active; 'I' for Inactive)
REMARK    1  A    between atoms: C_1  and  C_2
REMARK    2  A    between atoms: C_4  and  C_8
REMARK    3  A    between atoms: N_9  and  C_10
REMARK    4  A    between atoms: C_15  and  S_16
REMARK                            x       y       z     vdW  Elec       q    Type
REMARK                         _______ _______ _______ _____ _____    ______ ____
ROOT
ATOM      1  C   UNL     1      -1.720   2.683  -0.238  0.00  0.00    +0.000 C 
ATOM      2  N   UNL     1      -1.252   3.759   0.313  0.00  0.00    +0.000 NA
ENDROOT
BRANCH   1   6
ATOM      3  C   UNL     1       2.359   0.022   0.971  0.00  0.00    +0.000 C 
ATOM      4  C   UNL     1       1.016   0.127   0.311  0.00  0.00    +0.000 A 
ATOM      5  C   UNL     1       0.303   1.333   0.341  0.00  0.00    +0.000 A 
ATOM      6  C   UNL     1      -0.962   1.417  -0.250  0.00  0.00    +0.000 A 
ATOM      7  C   UNL     1      -1.530   0.298  -0.864  0.00  0.00    +0.000 A 
ATOM      8  C   UNL     1      -0.830  -0.908  -0.882  0.00  0.00    +0.000 A 
ATOM      9  C   UNL     1       0.433  -0.994  -0.293  0.00  0.00    +0.000 A 
ENDBRANCH   1   6
BRANCH   2  10
ATOM     10  C   UNL     1      -2.085   4.894   0.241  0.00  0.00    +0.000 A 
ATOM     11  C   UNL     1      -3.084   5.070   1.207  0.00  0.00    +0.000 A 
ATOM     12  C   UNL     1      -3.922   6.186   1.171  0.00  0.00    +0.000 A 
ATOM     13  C   UNL     1      -3.763   7.143   0.171  0.00  0.00    +0.000 A 
ATOM     14  C   UNL     1      -2.760   6.991  -0.788  0.00  0.00    +0.000 A 
ATOM     15  C   UNL     1      -1.913   5.876  -0.755  0.00  0.00    +0.000 A 
BRANCH  15  16
ATOM     16  S   UNL     1      -0.633   5.736  -1.997  0.00  0.00    +0.000 S 
ATOM     17  H   UNL     1       0.074   4.592  -1.792  0.00  0.00    +0.000 HD
ENDBRANCH  15  16
ENDBRANCH   2  10
TORSDOF 3
