MODEL 1
REMARK VINA RESULT:      -4.2      0.000      0.000
REMARK  Name = *****
REMARK  4 active torsions:
REMARK  status: ('A' for Active; 'I' for Inactive)
REMARK    1  A    between atoms: C_1  and  C_2
REMARK    2  A    between atoms: C_2  and  C_12
REMARK    3  A    between atoms: N_3  and  C_4
REMARK    4  A    between atoms: C_9  and  N_10
REMARK                            x       y       z     vdW  Elec       q    Type
REMARK                         _______ _______ _______ _____ _____    ______ ____
ROOT
ATOM      1  C   UNL     1      89.057  68.221  84.137  0.00  0.00    +0.000 C 
ATOM      2  C   UNL     1      89.599  68.691  85.476  0.00  0.00    +0.000 C 
ATOM      3  N   UNL     1      90.139  67.901  86.363  0.00  0.00    +0.000 NA
ENDROOT
BRANCH   3   4
ATOM      4  C   UNL     1      90.211  66.519  86.130  0.00  0.00    +0.000 A 
ATOM      5  C   UNL     1      91.295  65.995  85.421  0.00  0.00    +0.000 A 
ATOM      6  C   UNL     1      91.407  64.617  85.201  0.00  0.00    +0.000 A 
ATOM      7  C   UNL     1      90.441  63.745  85.705  0.00  0.00    +0.000 A 
ATOM      8  C   UNL     1      89.363  64.247  86.432  0.00  0.00    +0.000 A 
ATOM      9  C   UNL     1      89.262  65.624  86.642  0.00  0.00    +0.000 A 
BRANCH   9  10
ATOM     10  N   UNL     1      88.176  66.104  87.364  0.00  0.00    +0.000 NA
ATOM     11  C   UNL     1      87.257  66.477  87.989  0.00  0.00    +0.000 C 
ENDBRANCH   9  10
ENDBRANCH   3   4
BRANCH   2  12
ATOM     12  C   UNL     1      89.597  70.194  85.796  0.00  0.00    +0.000 C 
ATOM     13  C   UNL     1      88.235  70.819  85.665  0.00  0.00    +0.000 C 
ATOM     14  C   UNL     1      88.269  71.787  84.733  0.00  0.00    +0.000 C 
ATOM     15  C   UNL     1      89.601  71.879  84.188  0.00  0.00    +0.000 C 
ATOM     16  C   UNL     1      90.391  70.972  84.781  0.00  0.00    +0.000 C 
ENDBRANCH   2  12
TORSDOF 3
ENDMDL
