REMARK  Name = *****
REMARK  3 active torsions:
REMARK  status: ('A' for Active; 'I' for Inactive)
REMARK    1  A    between atoms: C_4  and  C_7
REMARK    2  A    between atoms: C_8  and  C_9
REMARK    3  A    between atoms: C_9  and  C_10
REMARK                            x       y       z     vdW  Elec       q    Type
REMARK                         _______ _______ _______ _____ _____    ______ ____
ROOT
ATOM      1  C   UNL     1      -2.654   0.284  -0.541  0.00  0.00    +0.000 C 
ATOM      2  C   UNL     1      -3.422  -0.798  -0.745  0.00  0.00    +0.000 C 
ENDROOT
BRANCH   1   6
ATOM      3  C   UNL     1       1.508   0.227   0.451  0.00  0.00    +0.000 A 
ATOM      4  C   UNL     1       1.002  -0.718  -0.438  0.00  0.00    +0.000 A 
ATOM      5  C   UNL     1      -0.356  -0.716  -0.766  0.00  0.00    +0.000 A 
ATOM      6  C   UNL     1      -1.225   0.226  -0.198  0.00  0.00    +0.000 A 
ATOM      7  C   UNL     1      -0.701   1.182   0.682  0.00  0.00    +0.000 A 
ATOM      8  C   UNL     1       0.657   1.179   1.009  0.00  0.00    +0.000 A 
ENDBRANCH   1   6
BRANCH   2   9
ATOM      9  C   UNL     1      -4.829  -0.708  -1.063  0.00  0.00    +0.000 C 
BRANCH   9  10
ATOM     10  C   UNL     1      -5.740  -1.816  -1.379  0.00  0.00    +0.000 A 
ATOM     11  C   UNL     1      -7.106  -1.680  -1.103  0.00  0.00    +0.000 A 
ATOM     12  C   UNL     1      -8.001  -2.706  -1.414  0.00  0.00    +0.000 A 
ATOM     13  C   UNL     1      -7.540  -3.875  -2.015  0.00  0.00    +0.000 A 
ATOM     14  C   UNL     1      -6.186  -4.017  -2.308  0.00  0.00    +0.000 A 
ATOM     15  C   UNL     1      -5.290  -2.990  -1.995  0.00  0.00    +0.000 A 
ENDBRANCH   9  10
ENDBRANCH   2   9
TORSDOF 3
