MODEL 1
REMARK VINA RESULT:      -3.0      0.000      0.000
REMARK  Name = *****
REMARK  0 active torsions:
REMARK  status: ('A' for Active; 'I' for Inactive)
REMARK                            x       y       z     vdW  Elec       q    Type
REMARK                         _______ _______ _______ _____ _____    ______ ____
ROOT
ATOM      1  C   UNL     1      84.736  62.466  89.190  0.00  0.00    +0.000 C 
ATOM      2  C   UNL     1      86.049  61.742  88.971  0.00  0.00    +0.000 C 
ATOM      3  S   UNL     1      87.021  62.728  87.798  0.00  0.00    +0.000 S 
ATOM      4  C   UNL     1      86.491  64.304  88.380  0.00  0.00    +0.000 C 
ATOM      5  C   UNL     1      87.078  65.471  88.012  0.00  0.00    +0.000 C 
ATOM      6  S   UNL     1      86.529  67.043  88.611  0.00  0.00    +0.000 S 
ATOM      7  C   UNL     1      87.719  67.927  87.736  0.00  0.00    +0.000 A 
ATOM      8  C   UNL     1      88.579  67.253  86.969  0.00  0.00    +0.000 A 
ATOM      9  S   UNL     1      88.449  65.538  86.897  0.00  0.00    +0.000 S 
ATOM     10  S   UNL     1      89.766  68.161  86.103  0.00  0.00    +0.000 S 
ATOM     11  C   UNL     1      89.241  69.733  86.695  0.00  0.00    +0.000 A 
ATOM     12  O   UNL     1      89.777  70.782  86.374  0.00  0.00    +0.000 OA
ATOM     13  S   UNL     1      87.870  69.645  87.794  0.00  0.00    +0.000 S 
ATOM     14  S   UNL     1      85.125  64.213  89.491  0.00  0.00    +0.000 S 
ENDROOT
TORSDOF 0
ENDMDL
