REMARK  Name = *****
REMARK  5 active torsions:
REMARK  status: ('A' for Active; 'I' for Inactive)
REMARK    1  A    between atoms: C_1  and  C_2
REMARK    2  A    between atoms: C_5  and  S_8
REMARK    3  A    between atoms: S_8  and  C_9
REMARK    4  A    between atoms: C_9  and  C_10
REMARK    5  A    between atoms: C_15  and  C_16
REMARK                            x       y       z     vdW  Elec       q    Type
REMARK                         _______ _______ _______ _____ _____    ______ ____
ROOT
ATOM      1  C   UNL     1      -4.012   1.653   0.012  0.00  0.00    +0.000 C 
ENDROOT
BRANCH   1   2
ATOM      2  C   UNL     1      -3.538   2.280  -1.290  0.00  0.00    +0.000 A 
ATOM      3  C   UNL     1      -3.265   1.511  -2.436  0.00  0.00    +0.000 A 
ATOM      4  C   UNL     1      -2.851   2.109  -3.630  0.00  0.00    +0.000 A 
ATOM      5  C   UNL     1      -2.728   3.491  -3.715  0.00  0.00    +0.000 A 
ATOM      6  C   UNL     1      -3.028   4.279  -2.608  0.00  0.00    +0.000 A 
ATOM      7  C   UNL     1      -3.438   3.686  -1.403  0.00  0.00    +0.000 A 
BRANCH   7   8
ATOM      8  C   UNL     1      -3.763   4.554  -0.305  0.00  0.00    +0.000 C 
ATOM      9  N   UNL     1      -4.029   5.244   0.590  0.00  0.00    +0.000 NA
ENDBRANCH   7   8
ENDBRANCH   1   2
BRANCH   1  10
ATOM     10  S   UNL     1      -3.574  -0.088   0.335  0.00  0.00    +0.000 S 
BRANCH  10  15
ATOM     11  C   UNL     1       2.522  -0.401   0.108  0.00  0.00    +0.000 C 
ATOM     12  C   UNL     1       1.027  -0.289   0.151  0.00  0.00    +0.000 A 
ATOM     13  C   UNL     1       0.413   0.898   0.563  0.00  0.00    +0.000 A 
ATOM     14  C   UNL     1      -0.983   0.993   0.634  0.00  0.00    +0.000 A 
ATOM     15  C   UNL     1      -1.787  -0.096   0.289  0.00  0.00    +0.000 A 
ATOM     16  C   UNL     1      -1.167  -1.293  -0.091  0.00  0.00    +0.000 A 
ATOM     17  C   UNL     1       0.226  -1.391  -0.157  0.00  0.00    +0.000 A 
ENDBRANCH  10  15
ENDBRANCH   1  10
TORSDOF 4
