MODEL 1
REMARK VINA RESULT:      -3.7      0.000      0.000
REMARK  Name = *****
REMARK  2 active torsions:
REMARK  status: ('A' for Active; 'I' for Inactive)
REMARK    1  A    between atoms: C_4  and  C_6
REMARK    2  A    between atoms: C_7  and  C_8
REMARK                            x       y       z     vdW  Elec       q    Type
REMARK                         _______ _______ _______ _____ _____    ______ ____
ROOT
ATOM      1  C   UNL     1      87.909  64.211  87.420  0.00  0.00    +0.000 C 
ATOM      2  C   UNL     1      88.062  63.539  88.574  0.00  0.00    +0.000 C 
ATOM      3  F   UNL     1      89.267  63.514  89.191  0.00  0.00    +0.000 F 
ATOM      4  F   UNL     1      86.692  64.265  86.826  0.00  0.00    +0.000 F 
ENDROOT
BRANCH   1   8
ATOM      5  C   UNL     1      90.485  66.528  85.968  0.00  0.00    +0.000 A 
ATOM      6  C   UNL     1      90.960  65.403  85.341  0.00  0.00    +0.000 A 
ATOM      7  S   UNL     1      90.043  64.019  85.734  0.00  0.00    +0.000 S 
ATOM      8  C   UNL     1      88.969  64.909  86.762  0.00  0.00    +0.000 A 
ATOM      9  C   UNL     1      89.348  66.245  86.782  0.00  0.00    +0.000 A 
ENDBRANCH   1   8
BRANCH   2  10
ATOM     10  C   UNL     1      87.001  62.838  89.228  0.00  0.00    +0.000 A 
ATOM     11  C   UNL     1      86.327  61.672  88.892  0.00  0.00    +0.000 A 
ATOM     12  C   UNL     1      85.317  61.303  89.829  0.00  0.00    +0.000 A 
ATOM     13  C   UNL     1      85.239  62.192  90.873  0.00  0.00    +0.000 A 
ATOM     14  S   UNL     1      86.376  63.454  90.722  0.00  0.00    +0.000 S 
ENDBRANCH   2  10
TORSDOF 2
ENDMDL
