REMARK  Name = *****
REMARK  2 active torsions:
REMARK  status: ('A' for Active; 'I' for Inactive)
REMARK    1  A    between atoms: C_4  and  C_7
REMARK    2  A    between atoms: C_7  and  C_9
REMARK                            x       y       z     vdW  Elec       q    Type
REMARK                         _______ _______ _______ _____ _____    ______ ____
ROOT
ATOM      1  C   UNL     1       2.777  -0.679  -0.756  0.00  0.00    +0.000 C 
ATOM      2  O   UNL     1       3.138  -0.084  -1.765  0.00  0.00    +0.000 OA
ENDROOT
BRANCH   1   3
ATOM      3  C   UNL     1       3.608  -1.785  -0.183  0.00  0.00    +0.000 C 
ATOM      4  C   UNL     1       5.099  -1.824  -0.457  0.00  0.00    +0.000 C 
ATOM      5  C   UNL     1       4.172  -2.835  -1.123  0.00  0.00    +0.000 C 
ATOM      6  C   UNL     1       4.759  -4.189  -0.703  0.00  0.00    +0.000 C 
ATOM      7  C   UNL     1       6.265  -3.852  -0.751  0.00  0.00    +0.000 C 
ATOM      8  C   UNL     1       6.121  -2.706   0.274  0.00  0.00    +0.000 C 
ATOM      9  C   UNL     1       5.481  -3.523   1.383  0.00  0.00    +0.000 C 
ATOM     10  C   UNL     1       4.662  -4.415   0.795  0.00  0.00    +0.000 C 
ENDBRANCH   1   3
BRANCH   1  14
ATOM     11  C   UNL     1      -1.430   0.188  -0.036  0.00  0.00    +0.000 C 
ATOM     12  C   UNL     1      -0.904  -1.202   0.306  0.00  0.00    +0.000 C 
ATOM     13  C   UNL     1       0.442  -1.478  -0.357  0.00  0.00    +0.000 C 
ATOM     14  C   UNL     1       1.472  -0.393  -0.025  0.00  0.00    +0.000 C 
ATOM     15  C   UNL     1       0.934   1.000  -0.378  0.00  0.00    +0.000 C 
ATOM     16  C   UNL     1      -0.408   1.272   0.295  0.00  0.00    +0.000 C 
ENDBRANCH   1  14
TORSDOF 2
