MODEL 1
REMARK VINA RESULT:      -4.3      0.000      0.000
REMARK  Name = *****
REMARK  4 active torsions:
REMARK  status: ('A' for Active; 'I' for Inactive)
REMARK    1  A    between atoms: C_4  and  C_7
REMARK    2  A    between atoms: C_7  and  S_17
REMARK    3  A    between atoms: C_8  and  C_9
REMARK    4  A    between atoms: C_9  and  C_11
REMARK                            x       y       z     vdW  Elec       q    Type
REMARK                         _______ _______ _______ _____ _____    ______ ____
ROOT
ATOM      1  C   UNL     1      88.643  71.827  84.241  0.00  0.00    +0.000 C 
ATOM      2  C   UNL     1      87.365  72.144  83.983  0.00  0.00    +0.000 C 
ENDROOT
BRANCH   1   6
ATOM      3  C   UNL     1      89.929  68.275  86.236  0.00  0.00    +0.000 A 
ATOM      4  C   UNL     1      89.694  69.439  86.967  0.00  0.00    +0.000 A 
ATOM      5  C   UNL     1      89.281  70.603  86.315  0.00  0.00    +0.000 A 
ATOM      6  C   UNL     1      89.099  70.608  84.924  0.00  0.00    +0.000 A 
ATOM      7  C   UNL     1      89.342  69.434  84.198  0.00  0.00    +0.000 A 
ATOM      8  C   UNL     1      89.757  68.273  84.853  0.00  0.00    +0.000 A 
ENDBRANCH   1   6
BRANCH   2   9
ATOM      9  C   UNL     1      86.186  71.336  84.403  0.00  0.00    +0.000 C 
ATOM     10  O   UNL     1      85.862  70.300  83.835  0.00  0.00    +0.000 OA
BRANCH   9  11
ATOM     11  C   UNL     1      85.449  71.781  85.619  0.00  0.00    +0.000 A 
ATOM     12  C   UNL     1      84.239  72.486  85.548  0.00  0.00    +0.000 A 
ATOM     13  C   UNL     1      83.586  72.875  86.721  0.00  0.00    +0.000 A 
ATOM     14  C   UNL     1      84.129  72.555  87.965  0.00  0.00    +0.000 A 
ATOM     15  C   UNL     1      85.323  71.840  88.042  0.00  0.00    +0.000 A 
ATOM     16  C   UNL     1      85.979  71.449  86.873  0.00  0.00    +0.000 A 
ENDBRANCH   9  11
ENDBRANCH   2   9
BRANCH   1  17
ATOM     17  S   UNL     1      89.920  72.880  83.695  0.00  0.00    +0.000 S 
ATOM     18  H   UNL     1      90.499  73.486  84.766  0.00  0.00    +0.000 HD
ENDBRANCH   1  17
TORSDOF 4
ENDMDL
