MODEL 1
REMARK VINA RESULT:      -4.4      0.000      0.000
REMARK  Name = *****
REMARK  1 active torsions:
REMARK  status: ('A' for Active; 'I' for Inactive)
REMARK    1  A    between atoms: C_8  and  C_9
REMARK                            x       y       z     vdW  Elec       q    Type
REMARK                         _______ _______ _______ _____ _____    ______ ____
ROOT
ATOM      1  C   UNL     1      99.011 127.451  82.835  0.00  0.00    +0.000 A 
ATOM      2  C   UNL     1      99.213 128.634  83.552  0.00  0.00    +0.000 A 
ATOM      3  C   UNL     1     100.506 129.095  83.791  0.00  0.00    +0.000 A 
ATOM      4  C   UNL     1     101.582 128.360  83.305  0.00  0.00    +0.000 A 
ATOM      5  C   UNL     1     101.397 127.172  82.588  0.00  0.00    +0.000 A 
ATOM      6  C   UNL     1     100.099 126.717  82.351  0.00  0.00    +0.000 A 
ATOM      7  C   UNL     1     102.685 126.568  82.172  0.00  0.00    +0.000 C 
ATOM      8  C   UNL     1     102.747 125.414  81.479  0.00  0.00    +0.000 C 
ATOM      9  C   UNL     1     103.864 127.373  82.651  0.00  0.00    +0.000 C 
ATOM     10  O   UNL     1     105.049 127.133  82.511  0.00  0.00    +0.000 OA
ATOM     11  S   UNL     1     103.286 128.803  83.516  0.00  0.00    +0.000 S 
ENDROOT
BRANCH   8  12
ATOM     12  C   UNL     1     103.934 124.774  81.022  0.00  0.00    +0.000 A 
ATOM     13  C   UNL     1     104.652 124.933  79.850  0.00  0.00    +0.000 A 
ATOM     14  C   UNL     1     105.777 124.063  79.760  0.00  0.00    +0.000 A 
ATOM     15  C   UNL     1     105.877 123.239  80.856  0.00  0.00    +0.000 A 
ATOM     16  S   UNL     1     104.617 123.511  81.976  0.00  0.00    +0.000 S 
ENDBRANCH   8  12
TORSDOF 1
ENDMDL
