MODEL 1
REMARK VINA RESULT:      -4.7      0.000      0.000
REMARK  Name = *****
REMARK  5 active torsions:
REMARK  status: ('A' for Active; 'I' for Inactive)
REMARK    1  A    between atoms: C_1  and  C_2
REMARK    2  A    between atoms: C_3  and  C_11
REMARK    3  A    between atoms: C_4  and  C_8
REMARK    4  A    between atoms: C_8  and  C_9
REMARK    5  A    between atoms: C_12  and  C_13
REMARK                            x       y       z     vdW  Elec       q    Type
REMARK                         _______ _______ _______ _____ _____    ______ ____
ROOT
ATOM      1  C   UNL     1      89.747  72.520  83.803  0.00  0.00    +0.000 C 
ATOM      2  C   UNL     1      89.706  71.064  84.063  0.00  0.00    +0.000 C 
ATOM      3  C   UNL     1      88.904  70.309  84.814  0.00  0.00    +0.000 C 
ATOM      4  C   UNL     1      89.279  68.872  84.730  0.00  0.00    +0.000 C 
ATOM      5  O   UNL     1      90.382  68.869  83.812  0.00  0.00    +0.000 OA
ATOM      6  C   UNL     1      90.660  70.145  83.434  0.00  0.00    +0.000 C 
ATOM      7  O   UNL     1      91.558  70.474  82.680  0.00  0.00    +0.000 OA
ENDROOT
BRANCH   3   8
ATOM      8  C   UNL     1      87.813  70.806  85.569  0.00  0.00    +0.000 C 
ATOM      9  C   UNL     1      86.889  71.227  86.211  0.00  0.00    +0.000 C 
BRANCH   9  10
ATOM     10  C   UNL     1      85.785  71.729  86.969  0.00  0.00    +0.000 A 
ATOM     11  C   UNL     1      85.816  71.688  88.365  0.00  0.00    +0.000 A 
ATOM     12  C   UNL     1      84.737  72.178  89.103  0.00  0.00    +0.000 A 
ATOM     13  C   UNL     1      83.627  72.711  88.446  0.00  0.00    +0.000 A 
ATOM     14  C   UNL     1      83.594  72.752  87.052  0.00  0.00    +0.000 A 
ATOM     15  C   UNL     1      84.672  72.261  86.313  0.00  0.00    +0.000 A 
ENDBRANCH   9  10
ENDBRANCH   3   8
BRANCH   4  16
ATOM     16  C   UNL     1      89.730  68.277  86.073  0.00  0.00    +0.000 C 
BRANCH  16  17
ATOM     17  C   UNL     1      88.702  67.335  86.648  0.00  0.00    +0.000 C 
ATOM     18  C   UNL     1      87.741  67.700  87.505  0.00  0.00    +0.000 C 
ENDBRANCH  16  17
ENDBRANCH   4  16
TORSDOF 4
ENDMDL
