MODEL 1
REMARK VINA RESULT:      -4.1      0.000      0.000
REMARK  Name = *****
REMARK  4 active torsions:
REMARK  status: ('A' for Active; 'I' for Inactive)
REMARK    1  A    between atoms: C_3  and  C_16
REMARK    2  A    between atoms: C_6  and  C_7
REMARK    3  A    between atoms: C_7  and  S_8
REMARK    4  A    between atoms: S_8  and  C_9
REMARK                            x       y       z     vdW  Elec       q    Type
REMARK                         _______ _______ _______ _____ _____    ______ ____
ROOT
ATOM      1  C   UNL     1      87.281  62.703  87.853  0.00  0.00    +0.000 C 
ENDROOT
BRANCH   1   7
ATOM      2  C   UNL     1      86.433  63.516  90.093  0.00  0.00    +0.000 A 
ATOM      3  C   UNL     1      86.651  64.013  91.380  0.00  0.00    +0.000 A 
ATOM      4  C   UNL     1      87.953  64.250  91.831  0.00  0.00    +0.000 A 
ATOM      5  C   UNL     1      89.035  63.986  90.989  0.00  0.00    +0.000 A 
ATOM      6  C   UNL     1      88.819  63.489  89.701  0.00  0.00    +0.000 A 
ATOM      7  C   UNL     1      87.515  63.256  89.239  0.00  0.00    +0.000 A 
BRANCH   4   8
ATOM      8  C   UNL     1      88.175  64.760  93.152  0.00  0.00    +0.000 C 
ATOM      9  N   UNL     1      88.355  65.175  94.222  0.00  0.00    +0.000 NA
ENDBRANCH   4   8
ENDBRANCH   1   7
BRANCH   1  10
ATOM     10  S   UNL     1      86.374  63.896  86.813  0.00  0.00    +0.000 S 
BRANCH  10  11
ATOM     11  C   UNL     1      87.597  65.187  86.687  0.00  0.00    +0.000 A 
ATOM     12  C   UNL     1      88.873  64.941  86.164  0.00  0.00    +0.000 A 
ATOM     13  C   UNL     1      89.812  65.972  86.089  0.00  0.00    +0.000 A 
ATOM     14  C   UNL     1      89.476  67.241  86.546  0.00  0.00    +0.000 A 
ATOM     15  C   UNL     1      88.220  67.499  87.081  0.00  0.00    +0.000 A 
ATOM     16  C   UNL     1      87.280  66.468  87.156  0.00  0.00    +0.000 A 
ATOM     17  F   UNL     1      90.377  68.229  86.474  0.00  0.00    +0.000 F 
ENDBRANCH  10  11
ENDBRANCH   1  10
TORSDOF 4
ENDMDL
