MODEL 1
REMARK VINA RESULT:      -4.2      0.000      0.000
REMARK  Name = *****
REMARK  4 active torsions:
REMARK  status: ('A' for Active; 'I' for Inactive)
REMARK    1  A    between atoms: C_3  and  O_8
REMARK    2  A    between atoms: O_8  and  C_9
REMARK    3  A    between atoms: C_9  and  C_11
REMARK    4  A    between atoms: C_11  and  C_12
REMARK                            x       y       z     vdW  Elec       q    Type
REMARK                         _______ _______ _______ _____ _____    ______ ____
ROOT
ATOM      1  O   UNL     1     102.987 127.233  82.800  0.00  0.00    +0.000 OA
ENDROOT
BRANCH   1   4
ATOM      2  C   UNL     1      99.351 126.858  82.434  0.00  0.00    +0.000 A 
ATOM      3  C   UNL     1     100.714 126.574  82.385  0.00  0.00    +0.000 A 
ATOM      4  C   UNL     1     101.621 127.502  82.896  0.00  0.00    +0.000 A 
ATOM      5  C   UNL     1     101.199 128.720  83.425  0.00  0.00    +0.000 A 
ATOM      6  C   UNL     1      99.834 128.990  83.469  0.00  0.00    +0.000 A 
ATOM      7  C   UNL     1      98.909 128.067  82.980  0.00  0.00    +0.000 A 
ATOM      8 CL   UNL     1      99.282 130.482  84.126  0.00  0.00    +0.000 Cl
ENDBRANCH   1   4
BRANCH   1   9
ATOM      9  C   UNL     1     103.643 128.068  81.900  0.00  0.00    +0.000 C 
ATOM     10  O   UNL     1     104.261 129.092  82.170  0.00  0.00    +0.000 OA
BRANCH   9  11
ATOM     11  C   UNL     1     103.499 127.509  80.505  0.00  0.00    +0.000 C 
BRANCH  11  12
ATOM     12  C   UNL     1     104.280 126.239  80.390  0.00  0.00    +0.000 A 
ATOM     13  C   UNL     1     103.807 124.941  80.403  0.00  0.00    +0.000 A 
ATOM     14  C   UNL     1     104.852 123.983  80.266  0.00  0.00    +0.000 A 
ATOM     15  C   UNL     1     106.088 124.580  80.156  0.00  0.00    +0.000 A 
ATOM     16  S   UNL     1     105.984 126.285  80.217  0.00  0.00    +0.000 S 
ENDBRANCH  11  12
ENDBRANCH   9  11
ENDBRANCH   1   9
TORSDOF 4
ENDMDL
