MODEL 1
REMARK VINA RESULT:      -4.5      0.000      0.000
REMARK  Name = *****
REMARK  2 active torsions:
REMARK  status: ('A' for Active; 'I' for Inactive)
REMARK    1  A    between atoms: C_4  and  C_7
REMARK    2  A    between atoms: C_7  and  C_8
REMARK                            x       y       z     vdW  Elec       q    Type
REMARK                         _______ _______ _______ _____ _____    ______ ____
ROOT
ATOM      1  C   UNL     1      96.843 115.950  79.862  0.00  0.00    +0.000 C 
ATOM      2  C   UNL     1      97.756 115.948  78.873  0.00  0.00    +0.000 C 
ATOM      3  C   UNL     1      97.164 115.402  77.602  0.00  0.00    +0.000 C 
ATOM      4  C   UNL     1      95.995 114.583  78.158  0.00  0.00    +0.000 C 
ATOM      5  C   UNL     1      95.524 115.406  79.361  0.00  0.00    +0.000 C 
ATOM      6  C   UNL     1      94.581 116.515  78.966  0.00  0.00    +0.000 C 
ATOM      7  C   UNL     1      94.625 117.276  77.859  0.00  0.00    +0.000 C 
ATOM      8  C   UNL     1      95.617 117.277  76.802  0.00  0.00    +0.000 C 
ATOM      9  C   UNL     1      96.718 116.512  76.686  0.00  0.00    +0.000 C 
ENDROOT
BRANCH   1  10
ATOM     10  C   UNL     1      97.018 116.466  81.253  0.00  0.00    +0.000 C 
BRANCH  10  14
ATOM     11  C   UNL     1      96.956 120.798  81.913  0.00  0.00    +0.000 C 
ATOM     12  C   UNL     1      95.666 120.138  81.442  0.00  0.00    +0.000 C 
ATOM     13  C   UNL     1      95.692 118.627  81.689  0.00  0.00    +0.000 C 
ATOM     14  C   UNL     1      97.006 117.977  81.320  0.00  0.00    +0.000 C 
ATOM     15  C   UNL     1      98.116 118.705  81.093  0.00  0.00    +0.000 C 
ATOM     16  C   UNL     1      98.170 120.202  81.199  0.00  0.00    +0.000 C 
ENDBRANCH  10  14
ENDBRANCH   1  10
TORSDOF 2
ENDMDL
