REMARK  Name = *****
REMARK  4 active torsions:
REMARK  status: ('A' for Active; 'I' for Inactive)
REMARK    1  A    between atoms: C_1  and  S_2
REMARK    2  A    between atoms: S_2  and  N_3
REMARK    3  A    between atoms: S_2  and  C_13
REMARK    4  A    between atoms: N_3  and  C_4
REMARK                            x       y       z     vdW  Elec       q    Type
REMARK                         _______ _______ _______ _____ _____    ______ ____
ROOT
ATOM      1  C   UNL     1       1.104   0.051   0.136  0.00  0.00    +0.000 C 
ATOM      2  S   UNL     1       2.877   0.061   0.002  0.00  0.00    +0.000 S 
ATOM      3  O   UNL     1       3.309   1.315   0.592  0.00  0.00    +0.000 OA
ENDROOT
BRANCH   2   4
ATOM      4  C   UNL     1       3.489  -1.188   1.120  0.00  0.00    +0.000 A 
ATOM      5  C   UNL     1       4.765  -1.717   0.890  0.00  0.00    +0.000 A 
ATOM      6  C   UNL     1       5.264  -2.710   1.731  0.00  0.00    +0.000 A 
ATOM      7  C   UNL     1       4.497  -3.165   2.803  0.00  0.00    +0.000 A 
ATOM      8  C   UNL     1       3.233  -2.624   3.041  0.00  0.00    +0.000 A 
ATOM      9  C   UNL     1       2.724  -1.631   2.202  0.00  0.00    +0.000 A 
ENDBRANCH   2   4
BRANCH   2  10
ATOM     10  N   UNL     1       3.231  -0.369  -1.435  0.00  0.00    +0.000 NA
BRANCH  10  11
ATOM     11  C   UNL     1       2.927  -1.560  -2.156  0.00  0.00    +0.000 A 
ATOM     12  C   UNL     1       3.287  -1.548  -3.506  0.00  0.00    +0.000 A 
ATOM     13  C   UNL     1       3.040  -2.656  -4.314  0.00  0.00    +0.000 A 
ATOM     14  C   UNL     1       2.436  -3.792  -3.788  0.00  0.00    +0.000 A 
ATOM     15  C   UNL     1       2.086  -3.805  -2.442  0.00  0.00    +0.000 A 
ATOM     16  C   UNL     1       2.327  -2.698  -1.624  0.00  0.00    +0.000 A 
ATOM     17 CL   UNL     1       1.342  -5.206  -1.771  0.00  0.00    +0.000 Cl
ATOM     18 CL   UNL     1       3.483  -2.620  -5.976  0.00  0.00    +0.000 Cl
ENDBRANCH  10  11
ENDBRANCH   2  10
TORSDOF 3
