REMARK  Name = *****
REMARK  5 active torsions:
REMARK  status: ('A' for Active; 'I' for Inactive)
REMARK    1  A    between atoms: C_1  and  C_2
REMARK    2  A    between atoms: C_3  and  C_19
REMARK    3  A    between atoms: C_5  and  O_8
REMARK    4  A    between atoms: O_8  and  C_9
REMARK    5  A    between atoms: C_9  and  C_11
REMARK                            x       y       z     vdW  Elec       q    Type
REMARK                         _______ _______ _______ _____ _____    ______ ____
ROOT
ATOM      1  C   UNL     1      -4.214  -0.497  -0.232  0.00  0.00    +0.000 C 
ATOM      2  O   UNL     1      -4.128   0.134  -1.274  0.00  0.00    +0.000 OA
ENDROOT
BRANCH   1   3
ATOM      3  C   UNL     1      -5.489  -1.106   0.239  0.00  0.00    +0.000 A 
ATOM      4  C   UNL     1      -6.633  -0.925  -0.553  0.00  0.00    +0.000 A 
ATOM      5  C   UNL     1      -7.845  -1.476  -0.151  0.00  0.00    +0.000 A 
ATOM      6  C   UNL     1      -7.934  -2.205   1.029  0.00  0.00    +0.000 A 
ATOM      7  C   UNL     1      -6.810  -2.393   1.825  0.00  0.00    +0.000 A 
ATOM      8  C   UNL     1      -5.584  -1.844   1.433  0.00  0.00    +0.000 A 
ATOM      9  F   UNL     1      -9.105  -2.732   1.411  0.00  0.00    +0.000 F 
ATOM     10  F   UNL     1      -8.932  -1.297  -0.914  0.00  0.00    +0.000 F 
ENDBRANCH   1   3
BRANCH   1  11
ATOM     11  O   UNL     1      -3.206  -0.768   0.675  0.00  0.00    +0.000 OA
BRANCH  11  16
ATOM     12  C   UNL     1       2.014   1.280  -0.336  0.00  0.00    +0.000 C 
ATOM     13  C   UNL     1       0.639   0.724  -0.080  0.00  0.00    +0.000 A 
ATOM     14  C   UNL     1       0.424  -0.663   0.072  0.00  0.00    +0.000 A 
ATOM     15  C   UNL     1      -0.877  -1.135   0.305  0.00  0.00    +0.000 A 
ATOM     16  C   UNL     1      -1.943  -0.240   0.377  0.00  0.00    +0.000 A 
ATOM     17  C   UNL     1      -1.738   1.130   0.258  0.00  0.00    +0.000 A 
ATOM     18  C   UNL     1      -0.450   1.607   0.021  0.00  0.00    +0.000 A 
ATOM     19  C   UNL     1       1.558  -1.647  -0.018  0.00  0.00    +0.000 C 
ENDBRANCH  11  16
ENDBRANCH   1  11
TORSDOF 3
