REMARK  Name = *****
REMARK  3 active torsions:
REMARK  status: ('A' for Active; 'I' for Inactive)
REMARK    1  A    between atoms: C_8  and  C_9
REMARK    2  A    between atoms: C_9  and  C_10
REMARK    3  A    between atoms: C_10  and  C_11
REMARK                            x       y       z     vdW  Elec       q    Type
REMARK                         _______ _______ _______ _____ _____    ______ ____
ROOT
ATOM      1  C   UNL     1      -1.784   1.416   0.237  0.00  0.00    +0.000 C 
ATOM      2  C   UNL     1      -0.639   0.719   0.319  0.00  0.00    +0.000 C 
ATOM      3  C   UNL     1       0.713   1.389   0.376  0.00  0.00    +0.000 C 
ATOM      4  C   UNL     1       1.663   0.835  -0.687  0.00  0.00    +0.000 C 
ATOM      5  C   UNL     1       1.735  -0.690  -0.624  0.00  0.00    +0.000 C 
ATOM      6  C   UNL     1       0.341  -1.317  -0.720  0.00  0.00    +0.000 C 
ATOM      7  C   UNL     1      -0.606  -0.744   0.313  0.00  0.00    +0.000 C 
ATOM      8  C   UNL     1      -1.349  -1.456   1.184  0.00  0.00    +0.000 C 
ENDROOT
BRANCH   8   9
ATOM      9  C   UNL     1      -1.424  -2.952   1.332  0.00  0.00    +0.000 C 
BRANCH   9  10
ATOM     10  C   UNL     1      -2.788  -3.482   0.882  0.00  0.00    +0.000 C 
BRANCH  10  11
ATOM     11  C   UNL     1      -2.885  -4.980   1.039  0.00  0.00    +0.000 A 
ATOM     12  C   UNL     1      -3.283  -5.543   2.259  0.00  0.00    +0.000 A 
ATOM     13  C   UNL     1      -3.353  -6.929   2.408  0.00  0.00    +0.000 A 
ATOM     14  C   UNL     1      -3.022  -7.764   1.343  0.00  0.00    +0.000 A 
ATOM     15  C   UNL     1      -2.619  -7.214   0.127  0.00  0.00    +0.000 A 
ATOM     16  C   UNL     1      -2.548  -5.829  -0.025  0.00  0.00    +0.000 A 
ENDBRANCH  10  11
ENDBRANCH   9  10
ENDBRANCH   8   9
TORSDOF 3
