REMARK  Name = *****
REMARK  2 active torsions:
REMARK  status: ('A' for Active; 'I' for Inactive)
REMARK    1  A    between atoms: C_4  and  C_6
REMARK    2  A    between atoms: N_7  and  C_8
REMARK                            x       y       z     vdW  Elec       q    Type
REMARK                         _______ _______ _______ _____ _____    ______ ____
ROOT
ATOM      1  C   UNL     1       0.074  -2.774   0.256  0.00  0.00    +0.000 C 
ATOM      2  N   UNL     1       0.803  -3.607  -0.420  0.00  0.00    +0.000 NA
ENDROOT
BRANCH   2   3
ATOM      3  C   UNL     1       0.472  -4.960  -0.280  0.00  0.00    +0.000 A 
ATOM      4  C   UNL     1      -0.493  -5.542  -1.108  0.00  0.00    +0.000 A 
ATOM      5  C   UNL     1      -0.811  -6.897  -0.978  0.00  0.00    +0.000 A 
ATOM      6  C   UNL     1      -0.152  -7.672  -0.025  0.00  0.00    +0.000 A 
ATOM      7  C   UNL     1       0.824  -7.106   0.793  0.00  0.00    +0.000 A 
ATOM      8  C   UNL     1       1.138  -5.751   0.660  0.00  0.00    +0.000 A 
ATOM      9 CL   UNL     1      -0.541  -9.340   0.136  0.00  0.00    +0.000 Cl
ENDBRANCH   2   3
BRANCH   1  13
ATOM     10  C   UNL     1       1.218   0.731  -0.337  0.00  0.00    +0.000 A 
ATOM     11  C   UNL     1       0.196   1.081   0.517  0.00  0.00    +0.000 A 
ATOM     12  S   UNL     1      -0.664  -0.287   1.082  0.00  0.00    +0.000 S 
ATOM     13  C   UNL     1       0.325  -1.356   0.187  0.00  0.00    +0.000 A 
ATOM     14  C   UNL     1       1.292  -0.679  -0.529  0.00  0.00    +0.000 A 
ENDBRANCH   1  13
TORSDOF 2
