REMARK  Name = *****
REMARK  4 active torsions:
REMARK  status: ('A' for Active; 'I' for Inactive)
REMARK    1  A    between atoms: C_4  and  S_8
REMARK    2  A    between atoms: C_5  and  S_7
REMARK    3  A    between atoms: S_8  and  C_9
REMARK    4  A    between atoms: C_10  and  C_11
REMARK                            x       y       z     vdW  Elec       q    Type
REMARK                         _______ _______ _______ _____ _____    ______ ____
ROOT
ATOM      1  S   UNL     1      -0.449  -1.163   2.480  0.00  0.00    +0.000 S 
ENDROOT
BRANCH   1   5
ATOM      2  C   UNL     1       0.550   1.300  -0.453  0.00  0.00    +0.000 C 
ATOM      3  C   UNL     1       1.512   0.318   0.209  0.00  0.00    +0.000 C 
ATOM      4  C   UNL     1       1.014  -1.125   0.109  0.00  0.00    +0.000 C 
ATOM      5  C   UNL     1      -0.421  -1.314   0.637  0.00  0.00    +0.000 C 
ATOM      6  C   UNL     1      -1.360  -0.305  -0.070  0.00  0.00    +0.000 C 
ATOM      7  C   UNL     1      -0.882   1.147   0.061  0.00  0.00    +0.000 C 
BRANCH   6   8
ATOM      8  S   UNL     1      -3.111  -0.444   0.451  0.00  0.00    +0.000 S 
ATOM      9  H   UNL     1      -3.222  -0.103   1.763  0.00  0.00    +0.000 HD
ENDBRANCH   6   8
ENDBRANCH   1   5
BRANCH   1  10
ATOM     10  C   UNL     1       0.204  -2.670   2.884  0.00  0.00    +0.000 C 
ATOM     11  C   UNL     1       0.673  -3.738   3.165  0.00  0.00    +0.000 C 
BRANCH  11  12
ATOM     12  C   UNL     1       1.238  -5.011   3.493  0.00  0.00    +0.000 A 
ATOM     13  C   UNL     1       2.525  -5.087   4.030  0.00  0.00    +0.000 A 
ATOM     14  C   UNL     1       3.077  -6.329   4.348  0.00  0.00    +0.000 A 
ATOM     15  C   UNL     1       2.344  -7.495   4.128  0.00  0.00    +0.000 A 
ATOM     16  C   UNL     1       1.058  -7.421   3.592  0.00  0.00    +0.000 A 
ATOM     17  C   UNL     1       0.505  -6.179   3.275  0.00  0.00    +0.000 A 
ENDBRANCH  11  12
ENDBRANCH   1  10
TORSDOF 4
