MODEL 1
REMARK VINA RESULT:      -4.4      0.000      0.000
REMARK  Name = *****
REMARK  4 active torsions:
REMARK  status: ('A' for Active; 'I' for Inactive)
REMARK    1  A    between atoms: C_4  and  C_7
REMARK    2  A    between atoms: C_7  and  C_8
REMARK    3  A    between atoms: C_8  and  O_10
REMARK    4  A    between atoms: O_10  and  C_11
REMARK                            x       y       z     vdW  Elec       q    Type
REMARK                         _______ _______ _______ _____ _____    ______ ____
ROOT
ATOM      1  C   UNL     1     103.577 128.246  82.126  0.00  0.00    +0.000 C 
ATOM      2  O   UNL     1     104.317 129.197  82.333  0.00  0.00    +0.000 OA
ENDROOT
BRANCH   1   3
ATOM      3  C   UNL     1     102.782 127.477  83.163  0.00  0.00    +0.000 C 
BRANCH   3   7
ATOM      4  C   UNL     1      98.505 127.962  82.853  0.00  0.00    +0.000 A 
ATOM      5  C   UNL     1      99.111 126.802  82.375  0.00  0.00    +0.000 A 
ATOM      6  C   UNL     1     100.494 126.643  82.473  0.00  0.00    +0.000 A 
ATOM      7  C   UNL     1     101.285 127.645  83.054  0.00  0.00    +0.000 A 
ATOM      8  C   UNL     1     100.665 128.811  83.526  0.00  0.00    +0.000 A 
ATOM      9  C   UNL     1      99.282 128.967  83.426  0.00  0.00    +0.000 A 
ENDBRANCH   3   7
ENDBRANCH   1   3
BRANCH   1  10
ATOM     10  O   UNL     1     103.331 127.653  80.884  0.00  0.00    +0.000 OA
BRANCH  10  11
ATOM     11  C   UNL     1     104.124 126.533  80.625  0.00  0.00    +0.000 A 
ATOM     12  C   UNL     1     105.490 126.724  80.423  0.00  0.00    +0.000 A 
ATOM     13  C   UNL     1     106.309 125.614  80.212  0.00  0.00    +0.000 A 
ATOM     14  C   UNL     1     105.754 124.332  80.219  0.00  0.00    +0.000 A 
ATOM     15  C   UNL     1     104.388 124.148  80.441  0.00  0.00    +0.000 A 
ATOM     16  C   UNL     1     103.565 125.255  80.653  0.00  0.00    +0.000 A 
ATOM     17 CL   UNL     1     106.766 122.964  79.961  0.00  0.00    +0.000 Cl
ENDBRANCH  10  11
ENDBRANCH   1  10
TORSDOF 4
ENDMDL
