REMARK  Name = *****
REMARK  4 active torsions:
REMARK  status: ('A' for Active; 'I' for Inactive)
REMARK    1  A    between atoms: C_1  and  C_2
REMARK    2  A    between atoms: C_7  and  C_8
REMARK    3  A    between atoms: C_8  and  C_16
REMARK    4  A    between atoms: N_9  and  C_10
REMARK                            x       y       z     vdW  Elec       q    Type
REMARK                         _______ _______ _______ _____ _____    ______ ____
ROOT
ATOM      1  C   UNL     1       0.985  -2.516   0.328  0.00  0.00    +0.000 C 
ATOM      2  N   UNL     1       0.428  -3.610  -0.101  0.00  0.00    +0.000 NA
ATOM      3  C   UNL     1       2.461  -2.560   0.649  0.00  0.00    +0.000 C 
ENDROOT
BRANCH   1  10
ATOM      4  C   UNL     1       1.467  -0.188  -1.468  0.00  0.00    +0.000 C 
ATOM      5  C   UNL     1       0.538  -0.115  -0.291  0.00  0.00    +0.000 A 
ATOM      6  C   UNL     1      -0.101   1.097   0.009  0.00  0.00    +0.000 A 
ATOM      7  C   UNL     1      -0.961   1.201   1.105  0.00  0.00    +0.000 A 
ATOM      8  C   UNL     1      -1.189   0.098   1.926  0.00  0.00    +0.000 A 
ATOM      9  C   UNL     1      -0.552  -1.111   1.655  0.00  0.00    +0.000 A 
ATOM     10  C   UNL     1       0.305  -1.216   0.553  0.00  0.00    +0.000 A 
ENDBRANCH   1  10
BRANCH   2  11
ATOM     11  C   UNL     1      -0.935  -3.640  -0.424  0.00  0.00    +0.000 A 
ATOM     12  C   UNL     1      -1.409  -3.103  -1.625  0.00  0.00    +0.000 A 
ATOM     13  C   UNL     1      -2.768  -3.161  -1.940  0.00  0.00    +0.000 A 
ATOM     14  C   UNL     1      -3.661  -3.775  -1.062  0.00  0.00    +0.000 A 
ATOM     15  C   UNL     1      -3.194  -4.338   0.124  0.00  0.00    +0.000 A 
ATOM     16  C   UNL     1      -1.834  -4.276   0.436  0.00  0.00    +0.000 A 
ENDBRANCH   2  11
TORSDOF 2
