MODEL 1
REMARK VINA RESULT:      -4.3      0.000      0.000
REMARK  Name = *****
REMARK  3 active torsions:
REMARK  status: ('A' for Active; 'I' for Inactive)
REMARK    1  A    between atoms: C_4  and  C_7
REMARK    2  A    between atoms: C_7  and  S_8
REMARK    3  A    between atoms: S_8  and  C_9
REMARK                            x       y       z     vdW  Elec       q    Type
REMARK                         _______ _______ _______ _____ _____    ______ ____
ROOT
ATOM      1  S   UNL     1      89.208  70.354  86.824  0.00  0.00    +0.000 S 
ENDROOT
BRANCH   1   2
ATOM      2  C   UNL     1      89.164  68.573  86.804  0.00  0.00    +0.000 A 
ATOM      3  N   UNL     1      90.240  67.901  86.334  0.00  0.00    +0.000 NA
ATOM      4  C   UNL     1      90.171  66.546  86.330  0.00  0.00    +0.000 A 
ATOM      5  C   UNL     1      89.074  65.827  86.775  0.00  0.00    +0.000 A 
ATOM      6  C   UNL     1      87.979  66.532  87.256  0.00  0.00    +0.000 A 
ATOM      7  C   UNL     1      88.023  67.927  87.271  0.00  0.00    +0.000 A 
ATOM      8 CL   UNL     1      89.065  64.112  86.736  0.00  0.00    +0.000 Cl
ENDBRANCH   1   2
BRANCH   1   9
ATOM      9  C   UNL     1      87.885  70.727  85.628  0.00  0.00    +0.000 C 
BRANCH   9  13
ATOM     10  C   UNL     1      84.405  72.363  87.587  0.00  0.00    +0.000 A 
ATOM     11  C   UNL     1      85.435  71.809  88.345  0.00  0.00    +0.000 A 
ATOM     12  C   UNL     1      86.561  71.278  87.713  0.00  0.00    +0.000 A 
ATOM     13  C   UNL     1      86.670  71.302  86.315  0.00  0.00    +0.000 A 
ATOM     14  C   UNL     1      85.621  71.853  85.563  0.00  0.00    +0.000 A 
ATOM     15  C   UNL     1      84.496  72.383  86.197  0.00  0.00    +0.000 A 
ENDBRANCH   9  13
ENDBRANCH   1   9
TORSDOF 3
ENDMDL
