MODEL 1
REMARK VINA RESULT:      -4.4      0.000      0.000
REMARK  Name = *****
REMARK  2 active torsions:
REMARK  status: ('A' for Active; 'I' for Inactive)
REMARK    1  A    between atoms: C_5  and  C_6
REMARK    2  A    between atoms: C_7  and  C_8
REMARK                            x       y       z     vdW  Elec       q    Type
REMARK                         _______ _______ _______ _____ _____    ______ ____
ROOT
ATOM      1  C   UNL     1     102.972 125.611  81.427  0.00  0.00    +0.000 C 
ATOM      2  C   UNL     1     102.103 126.284  81.910  0.00  0.00    +0.000 C 
ENDROOT
BRANCH   2   3
ATOM      3  C   UNL     1     101.065 127.084  82.483  0.00  0.00    +0.000 A 
ATOM      4  C   UNL     1      99.726 126.734  82.292  0.00  0.00    +0.000 A 
ATOM      5  C   UNL     1      98.713 127.516  82.850  0.00  0.00    +0.000 A 
ATOM      6  C   UNL     1      99.037 128.648  83.599  0.00  0.00    +0.000 A 
ATOM      7  C   UNL     1     100.373 128.998  83.791  0.00  0.00    +0.000 A 
ATOM      8  C   UNL     1     101.388 128.216  83.233  0.00  0.00    +0.000 A 
ENDBRANCH   2   3
BRANCH   1  13
ATOM      9  C   UNL     1     104.906 125.252  79.739  0.00  0.00    +0.000 C 
ATOM     10  C   UNL     1     105.761 124.030  79.549  0.00  0.00    +0.000 C 
ATOM     11  C   UNL     1     105.387 123.076  80.418  0.00  0.00    +0.000 C 
ATOM     12  C   UNL     1     104.294 123.566  81.223  0.00  0.00    +0.000 C 
ATOM     13  C   UNL     1     103.994 124.820  80.853  0.00  0.00    +0.000 C 
ENDBRANCH   1  13
TORSDOF 2
ENDMDL
