MODEL 1
REMARK VINA RESULT:      -5.0      0.000      0.000
REMARK  Name = *****
REMARK  1 active torsions:
REMARK  status: ('A' for Active; 'I' for Inactive)
REMARK    1  A    between atoms: P_9  and  C_12
REMARK                            x       y       z     vdW  Elec       q    Type
REMARK                         _______ _______ _______ _____ _____    ______ ____
ROOT
ATOM      1  C   UNL     1     104.271 127.006  80.174  0.00  0.00    +0.000 C 
ATOM      2  C   UNL     1     104.579 125.532  80.325  0.00  0.00    +0.000 A 
ATOM      3  C   UNL     1     105.496 124.958  79.427  0.00  0.00    +0.000 A 
ATOM      4  C   UNL     1     105.853 123.612  79.526  0.00  0.00    +0.000 A 
ATOM      5  C   UNL     1     105.304 122.821  80.529  0.00  0.00    +0.000 A 
ATOM      6  C   UNL     1     104.403 123.375  81.434  0.00  0.00    +0.000 A 
ATOM      7  C   UNL     1     104.044 124.731  81.350  0.00  0.00    +0.000 A 
ATOM      8  C   UNL     1     103.033 125.277  82.323  0.00  0.00    +0.000 C 
ATOM      9  P   UNL     1     102.939 127.096  82.418  0.00  0.00    +0.000 P 
ATOM     10  S   UNL     1     104.338 127.930  83.508  0.00  0.00    +0.000 S 
ATOM     11  O   UNL     1     103.086 127.428  80.830  0.00  0.00    +0.000 OA
ENDROOT
BRANCH   9  12
ATOM     12  C   UNL     1     101.221 127.459  82.778  0.00  0.00    +0.000 A 
ATOM     13  C   UNL     1     100.209 126.597  82.328  0.00  0.00    +0.000 A 
ATOM     14  C   UNL     1      98.866 126.882  82.580  0.00  0.00    +0.000 A 
ATOM     15  C   UNL     1      98.516 128.033  83.281  0.00  0.00    +0.000 A 
ATOM     16  C   UNL     1      99.509 128.899  83.734  0.00  0.00    +0.000 A 
ATOM     17  C   UNL     1     100.852 128.615  83.484  0.00  0.00    +0.000 A 
ENDBRANCH   9  12
TORSDOF 1
ENDMDL
