MODEL 1
REMARK VINA RESULT:      -4.8      0.000      0.000
REMARK  Name = *****
REMARK  5 active torsions:
REMARK  status: ('A' for Active; 'I' for Inactive)
REMARK    1  A    between atoms: C_1  and  C_2
REMARK    2  A    between atoms: C_5  and  S_8
REMARK    3  A    between atoms: S_8  and  C_10
REMARK    4  A    between atoms: C_10  and  C_11
REMARK    5  A    between atoms: C_15  and  C_17
REMARK                            x       y       z     vdW  Elec       q    Type
REMARK                         _______ _______ _______ _____ _____    ______ ____
ROOT
ATOM      1  S   UNL     1      88.923  70.484  86.907  0.00  0.00    +0.000 S 
ATOM      2  O   UNL     1      90.059  70.888  86.010  0.00  0.00    +0.000 OA
ENDROOT
BRANCH   1   7
ATOM      3  C   UNL     1      88.849  64.366  86.924  0.00  0.00    +0.000 C 
ATOM      4  C   UNL     1      88.884  65.865  86.916  0.00  0.00    +0.000 A 
ATOM      5  C   UNL     1      87.830  66.591  87.485  0.00  0.00    +0.000 A 
ATOM      6  C   UNL     1      87.850  67.988  87.483  0.00  0.00    +0.000 A 
ATOM      7  C   UNL     1      88.920  68.676  86.903  0.00  0.00    +0.000 A 
ATOM      8  C   UNL     1      89.977  67.956  86.341  0.00  0.00    +0.000 A 
ATOM      9  C   UNL     1      89.957  66.558  86.344  0.00  0.00    +0.000 A 
ENDBRANCH   1   7
BRANCH   1  10
ATOM     10  C   UNL     1      87.380  70.740  85.963  0.00  0.00    +0.000 C 
BRANCH  10  11
ATOM     11  C   UNL     1      86.280  71.361  86.784  0.00  0.00    +0.000 A 
ATOM     12  C   UNL     1      86.342  71.353  88.184  0.00  0.00    +0.000 A 
ATOM     13  C   UNL     1      85.316  71.922  88.938  0.00  0.00    +0.000 A 
ATOM     14  C   UNL     1      84.219  72.503  88.304  0.00  0.00    +0.000 A 
ATOM     15  C   UNL     1      84.131  72.512  86.907  0.00  0.00    +0.000 A 
ATOM     16  C   UNL     1      85.173  71.952  86.156  0.00  0.00    +0.000 A 
ATOM     17  C   UNL     1      82.969  73.167  86.221  0.00  0.00    +0.000 C 
ENDBRANCH  10  11
ENDBRANCH   1  10
TORSDOF 3
ENDMDL
