MODEL 1
REMARK VINA RESULT:      -4.9      0.000      0.000
REMARK  Name = *****
REMARK  4 active torsions:
REMARK  status: ('A' for Active; 'I' for Inactive)
REMARK    1  A    between atoms: C_1  and  C_2
REMARK    2  A    between atoms: C_3  and  C_16
REMARK    3  A    between atoms: C_5  and  C_7
REMARK    4  A    between atoms: C_8  and  C_9
REMARK                            x       y       z     vdW  Elec       q    Type
REMARK                         _______ _______ _______ _____ _____    ______ ____
ROOT
ATOM      1  C   UNL     1     103.048 126.418  81.182  0.00  0.00    +0.000 C 
ATOM      2  C   UNL     1     102.044 126.074  82.005  0.00  0.00    +0.000 C 
ENDROOT
BRANCH   2   3
ATOM      3  C   UNL     1     101.068 127.024  82.557  0.00  0.00    +0.000 A 
ATOM      4  C   UNL     1     101.452 128.197  83.220  0.00  0.00    +0.000 A 
ATOM      5  C   UNL     1     100.484 129.080  83.701  0.00  0.00    +0.000 A 
ATOM      6  C   UNL     1      99.127 128.815  83.520  0.00  0.00    +0.000 A 
ATOM      7  C   UNL     1      98.736 127.659  82.847  0.00  0.00    +0.000 A 
ATOM      8  C   UNL     1      99.701 126.772  82.363  0.00  0.00    +0.000 A 
ATOM      9 CL   UNL     1     100.969 130.514  84.520  0.00  0.00    +0.000 Cl
ENDBRANCH   2   3
BRANCH   1  14
ATOM     10  C   UNL     1     105.004 122.026  80.627  0.00  0.00    +0.000 C 
ATOM     11  C   UNL     1     104.887 123.479  80.417  0.00  0.00    +0.000 A 
ATOM     12  C   UNL     1     105.578 124.419  79.685  0.00  0.00    +0.000 A 
ATOM     13  N   UNL     1     104.996 125.653  79.881  0.00  0.00    +0.000 NA
ATOM     14  C   UNL     1     103.967 125.447  80.695  0.00  0.00    +0.000 A 
ATOM     15  O   UNL     1     103.865 124.115  81.055  0.00  0.00    +0.000 OA
BRANCH  12  16
ATOM     16  C   UNL     1     106.771 124.259  78.823  0.00  0.00    +0.000 C 
ATOM     17 CL   UNL     1     106.341 124.564  77.125  0.00  0.00    +0.000 Cl
ENDBRANCH  12  16
ENDBRANCH   1  14
TORSDOF 3
ENDMDL
