MODEL 1
REMARK VINA RESULT:      -4.6      0.000      0.000
REMARK  Name = *****
REMARK  3 active torsions:
REMARK  status: ('A' for Active; 'I' for Inactive)
REMARK    1  A    between atoms: C_4  and  C_7
REMARK    2  A    between atoms: N_8  and  C_9
REMARK    3  A    between atoms: C_14  and  C_15
REMARK                            x       y       z     vdW  Elec       q    Type
REMARK                         _______ _______ _______ _____ _____    ______ ____
ROOT
ATOM      1  C   UNL     1     101.105 128.257  83.688  0.00  0.00    +0.000 A 
ATOM      2  C   UNL     1     101.889 129.318  84.159  0.00  0.00    +0.000 A 
ATOM      3  C   UNL     1     101.319 130.561  84.436  0.00  0.00    +0.000 A 
ATOM      4  C   UNL     1      99.954 130.751  84.257  0.00  0.00    +0.000 A 
ATOM      5  C   UNL     1      99.160 129.696  83.806  0.00  0.00    +0.000 A 
ATOM      6  C   UNL     1      99.725 128.438  83.523  0.00  0.00    +0.000 A 
ENDROOT
BRANCH   6   7
ATOM      7  C   UNL     1      98.861 127.302  83.048  0.00  0.00    +0.000 C 
ATOM      8  F   UNL     1      98.716 126.300  83.960  0.00  0.00    +0.000 F 
ATOM      9  F   UNL     1      97.584 127.699  82.754  0.00  0.00    +0.000 F 
ATOM     10  F   UNL     1      99.317 126.721  81.901  0.00  0.00    +0.000 F 
ENDBRANCH   6   7
BRANCH   1  12
ATOM     11  C   UNL     1     102.560 126.975  82.460  0.00  0.00    +0.000 C 
ATOM     12  N   UNL     1     101.712 127.017  83.441  0.00  0.00    +0.000 NA
BRANCH  11  16
ATOM     13  C   UNL     1     104.599 123.400  81.350  0.00  0.00    +0.000 A 
ATOM     14  C   UNL     1     104.253 123.609  82.685  0.00  0.00    +0.000 A 
ATOM     15  C   UNL     1     103.586 124.777  83.059  0.00  0.00    +0.000 A 
ATOM     16  C   UNL     1     103.266 125.733  82.092  0.00  0.00    +0.000 A 
ATOM     17  C   UNL     1     103.611 125.525  80.753  0.00  0.00    +0.000 A 
ATOM     18  C   UNL     1     104.279 124.356  80.385  0.00  0.00    +0.000 A 
ENDBRANCH  11  16
ENDBRANCH   1  12
TORSDOF 3
ENDMDL
