MODEL 1
REMARK VINA RESULT:      -3.9      0.000      0.000
REMARK  Name = *****
REMARK  4 active torsions:
REMARK  status: ('A' for Active; 'I' for Inactive)
REMARK    1  A    between atoms: C_4  and  C_7
REMARK    2  A    between atoms: C_7  and  C_8
REMARK    3  A    between atoms: C_8  and  S_9
REMARK    4  A    between atoms: S_9  and  C_10
REMARK                            x       y       z     vdW  Elec       q    Type
REMARK                         _______ _______ _______ _____ _____    ______ ____
ROOT
ATOM      1  C   UNL     1      84.870  70.448  89.247  0.00  0.00    +0.000 C 
ENDROOT
BRANCH   1   2
ATOM      2  C   UNL     1      85.182  71.886  88.831  0.00  0.00    +0.000 C 
BRANCH   2   6
ATOM      3  C   UNL     1      84.524  72.512  84.614  0.00  0.00    +0.000 A 
ATOM      4  C   UNL     1      85.687  71.879  85.051  0.00  0.00    +0.000 A 
ATOM      5  C   UNL     1      85.897  71.669  86.415  0.00  0.00    +0.000 A 
ATOM      6  C   UNL     1      84.944  72.089  87.353  0.00  0.00    +0.000 A 
ATOM      7  C   UNL     1      83.782  72.728  86.903  0.00  0.00    +0.000 A 
ATOM      8  C   UNL     1      83.572  72.936  85.539  0.00  0.00    +0.000 A 
ENDBRANCH   2   6
ENDBRANCH   1   2
BRANCH   1   9
ATOM      9  S   UNL     1      86.288  69.744  90.158  0.00  0.00    +0.000 S 
BRANCH   9  10
ATOM     10  C   UNL     1      87.454  69.463  88.835  0.00  0.00    +0.000 A 
ATOM     11  C   UNL     1      87.325  68.410  87.922  0.00  0.00    +0.000 A 
ATOM     12  C   UNL     1      88.258  68.248  86.893  0.00  0.00    +0.000 A 
ATOM     13  C   UNL     1      89.310  69.149  86.772  0.00  0.00    +0.000 A 
ATOM     14  C   UNL     1      89.445  70.210  87.657  0.00  0.00    +0.000 A 
ATOM     15  C   UNL     1      88.514  70.370  88.686  0.00  0.00    +0.000 A 
ATOM     16  F   UNL     1      90.200  68.994  85.784  0.00  0.00    +0.000 F 
ENDBRANCH   9  10
ENDBRANCH   1   9
TORSDOF 4
ENDMDL
