MODEL 1
REMARK VINA RESULT:      -4.6      0.000      0.000
REMARK  Name = *****
REMARK  3 active torsions:
REMARK  status: ('A' for Active; 'I' for Inactive)
REMARK    1  A    between atoms: C_5  and  C_7
REMARK    2  A    between atoms: C_7  and  O_9
REMARK    3  A    between atoms: O_9  and  C_10
REMARK                            x       y       z     vdW  Elec       q    Type
REMARK                         _______ _______ _______ _____ _____    ______ ____
ROOT
ATOM      1  C   UNL     1     101.908 125.992  82.744  0.00  0.00    +0.000 C 
ATOM      2  O   UNL     1     102.362 125.311  83.653  0.00  0.00    +0.000 OA
ENDROOT
BRANCH   1   7
ATOM      3  C   UNL     1     100.541 129.303  83.907  0.00  0.00    +0.000 A 
ATOM      4  C   UNL     1      99.218 129.248  83.470  0.00  0.00    +0.000 A 
ATOM      5  C   UNL     1      98.761 128.124  82.782  0.00  0.00    +0.000 A 
ATOM      6  C   UNL     1      99.625 127.056  82.538  0.00  0.00    +0.000 A 
ATOM      7  C   UNL     1     100.948 127.094  82.980  0.00  0.00    +0.000 A 
ATOM      8  C   UNL     1     101.405 128.233  83.660  0.00  0.00    +0.000 A 
ATOM      9  F   UNL     1      99.143 126.009  81.851  0.00  0.00    +0.000 F 
ENDBRANCH   1   7
BRANCH   1  10
ATOM     10  O   UNL     1     102.126 125.821  81.394  0.00  0.00    +0.000 OA
BRANCH  10  11
ATOM     11  C   UNL     1     103.384 126.281  80.997  0.00  0.00    +0.000 A 
ATOM     12  C   UNL     1     104.461 125.399  80.864  0.00  0.00    +0.000 A 
ATOM     13  C   UNL     1     105.714 125.892  80.501  0.00  0.00    +0.000 A 
ATOM     14  C   UNL     1     105.877 127.261  80.288  0.00  0.00    +0.000 A 
ATOM     15  C   UNL     1     104.805 128.143  80.440  0.00  0.00    +0.000 A 
ATOM     16  C   UNL     1     103.550 127.654  80.803  0.00  0.00    +0.000 A 
ATOM     17 CL   UNL     1     107.423 127.873  79.841  0.00  0.00    +0.000 Cl
ATOM     18 CL   UNL     1     104.281 123.709  81.154  0.00  0.00    +0.000 Cl
ENDBRANCH  10  11
ENDBRANCH   1  10
TORSDOF 3
ENDMDL
