REMARK  Name = *****
REMARK  5 active torsions:
REMARK  status: ('A' for Active; 'I' for Inactive)
REMARK    1  A    between atoms: C_1  and  C_2
REMARK    2  A    between atoms: C_4  and  C_8
REMARK    3  A    between atoms: C_8  and  S_9
REMARK    4  A    between atoms: S_9  and  C_10
REMARK    5  A    between atoms: C_10  and  C_11
REMARK                            x       y       z     vdW  Elec       q    Type
REMARK                         _______ _______ _______ _____ _____    ______ ____
ROOT
ATOM      1  C   UNL     1      -1.629   2.622   0.085  0.00  0.00    +0.000 C 
ENDROOT
BRANCH   1   5
ATOM      2  C   UNL     1      -0.222  -1.657   2.357  0.00  0.00    +0.000 C 
ATOM      3  C   UNL     1      -0.390  -0.846   1.107  0.00  0.00    +0.000 A 
ATOM      4  C   UNL     1      -0.923   0.449   1.168  0.00  0.00    +0.000 A 
ATOM      5  C   UNL     1      -1.052   1.232   0.009  0.00  0.00    +0.000 A 
ATOM      6  C   UNL     1      -0.612   0.709  -1.214  0.00  0.00    +0.000 A 
ATOM      7  C   UNL     1      -0.067  -0.573  -1.280  0.00  0.00    +0.000 A 
ATOM      8  C   UNL     1       0.046  -1.346  -0.125  0.00  0.00    +0.000 A 
ENDBRANCH   1   5
BRANCH   1   9
ATOM      9  S   UNL     1      -0.348   3.865   0.421  0.00  0.00    +0.000 S 
BRANCH   9  10
ATOM     10  C   UNL     1      -1.411   5.338   0.431  0.00  0.00    +0.000 C 
BRANCH  10  11
ATOM     11  C   UNL     1      -0.624   6.594   0.705  0.00  0.00    +0.000 A 
ATOM     12  C   UNL     1      -0.051   7.321  -0.349  0.00  0.00    +0.000 A 
ATOM     13  C   UNL     1       0.683   8.480  -0.093  0.00  0.00    +0.000 A 
ATOM     14  C   UNL     1       0.857   8.922   1.217  0.00  0.00    +0.000 A 
ATOM     15  C   UNL     1       0.302   8.202   2.274  0.00  0.00    +0.000 A 
ATOM     16  C   UNL     1      -0.432   7.042   2.020  0.00  0.00    +0.000 A 
ENDBRANCH  10  11
ENDBRANCH   9  10
ENDBRANCH   1   9
TORSDOF 4
