MODEL 1
REMARK VINA RESULT:      -4.1      0.000      0.000
REMARK  Name = *****
REMARK  3 active torsions:
REMARK  status: ('A' for Active; 'I' for Inactive)
REMARK    1  A    between atoms: C_2  and  C_3
REMARK    2  A    between atoms: C_4  and  C_8
REMARK    3  A    between atoms: C_9  and  C_10
REMARK                            x       y       z     vdW  Elec       q    Type
REMARK                         _______ _______ _______ _____ _____    ______ ____
ROOT
ATOM      1  C   UNL     1     104.752 126.315  80.363  0.00  0.00    +0.000 A 
ATOM      2  C   UNL     1     103.826 125.496  80.979  0.00  0.00    +0.000 A 
ATOM      3  C   UNL     1     104.131 124.112  80.805  0.00  0.00    +0.000 A 
ATOM      4  C   UNL     1     105.277 123.922  80.064  0.00  0.00    +0.000 A 
ATOM      5  S   UNL     1     105.978 125.405  79.583  0.00  0.00    +0.000 S 
ENDROOT
BRANCH   1   7
ATOM      6  C   UNL     1     104.726 128.944  80.335  0.00  0.00    +0.000 C 
ATOM      7  C   UNL     1     104.738 127.743  80.347  0.00  0.00    +0.000 C 
ENDBRANCH   1   7
BRANCH   2   8
ATOM      8  C   UNL     1     102.689 125.970  81.708  0.00  0.00    +0.000 C 
ATOM      9  C   UNL     1     101.734 126.366  82.321  0.00  0.00    +0.000 C 
BRANCH   9  10
ATOM     10  C   UNL     1     100.567 126.838  83.070  0.00  0.00    +0.000 C 
ATOM     11  C   UNL     1      99.262 126.681  82.288  0.00  0.00    +0.000 C 
ATOM     12  C   UNL     1      98.324 127.757  82.837  0.00  0.00    +0.000 C 
ATOM     13  C   UNL     1      99.179 128.666  83.718  0.00  0.00    +0.000 C 
ATOM     14  C   UNL     1     100.617 128.335  83.350  0.00  0.00    +0.000 C 
ENDBRANCH   9  10
ENDBRANCH   2   8
TORSDOF 3
ENDMDL
