MODEL 1
REMARK VINA RESULT:      -4.2      0.000      0.000
REMARK  Name = *****
REMARK  4 active torsions:
REMARK  status: ('A' for Active; 'I' for Inactive)
REMARK    1  A    between atoms: C_4  and  O_7
REMARK    2  A    between atoms: O_7  and  C_8
REMARK    3  A    between atoms: C_8  and  O_10
REMARK    4  A    between atoms: O_10  and  C_11
REMARK                            x       y       z     vdW  Elec       q    Type
REMARK                         _______ _______ _______ _____ _____    ______ ____
ROOT
ATOM      1  C   UNL     1      90.110  65.944  85.980  0.00  0.00    +0.000 C 
ATOM      2  S   UNL     1      91.213  64.991  85.188  0.00  0.00    +0.000 S 
ENDROOT
BRANCH   1   3
ATOM      3  O   UNL     1      88.760  65.667  86.192  0.00  0.00    +0.000 OA
BRANCH   3   7
ATOM      4  C   UNL     1      87.214  64.580  89.913  0.00  0.00    +0.000 A 
ATOM      5  C   UNL     1      86.710  65.702  89.249  0.00  0.00    +0.000 A 
ATOM      6  C   UNL     1      87.231  66.073  88.011  0.00  0.00    +0.000 A 
ATOM      7  C   UNL     1      88.265  65.319  87.462  0.00  0.00    +0.000 A 
ATOM      8  C   UNL     1      88.763  64.185  88.099  0.00  0.00    +0.000 A 
ATOM      9  C   UNL     1      88.238  63.821  89.337  0.00  0.00    +0.000 A 
ENDBRANCH   3   7
ENDBRANCH   1   3
BRANCH   1  10
ATOM     10  O   UNL     1      90.547  67.158  86.499  0.00  0.00    +0.000 OA
BRANCH  10  11
ATOM     11  C   UNL     1      89.937  68.322  86.009  0.00  0.00    +0.000 A 
ATOM     12  C   UNL     1      89.452  69.267  86.912  0.00  0.00    +0.000 A 
ATOM     13  C   UNL     1      88.875  70.437  86.420  0.00  0.00    +0.000 A 
ATOM     14  C   UNL     1      88.806  70.651  85.042  0.00  0.00    +0.000 A 
ATOM     15  C   UNL     1      89.317  69.707  84.147  0.00  0.00    +0.000 A 
ATOM     16  C   UNL     1      89.894  68.533  84.632  0.00  0.00    +0.000 A 
ATOM     17 CL   UNL     1      88.095  72.097  84.438  0.00  0.00    +0.000 Cl
ENDBRANCH  10  11
ENDBRANCH   1  10
TORSDOF 4
ENDMDL
