MODEL 1
REMARK VINA RESULT:      -4.3      0.000      0.000
REMARK  Name = *****
REMARK  2 active torsions:
REMARK  status: ('A' for Active; 'I' for Inactive)
REMARK    1  A    between atoms: C_5  and  N_7
REMARK    2  A    between atoms: C_8  and  C_9
REMARK                            x       y       z     vdW  Elec       q    Type
REMARK                         _______ _______ _______ _____ _____    ______ ____
ROOT
ATOM      1  N   UNL     1     102.451 126.012  83.199  0.00  0.00    +0.000 NA
ATOM      2  C   UNL     1     102.048 127.083  82.596  0.00  0.00    +0.000 C 
ENDROOT
BRANCH   2   3
ATOM      3  C   UNL     1     101.119 128.055  83.209  0.00  0.00    +0.000 A 
ATOM      4  C   UNL     1     101.656 129.169  83.879  0.00  0.00    +0.000 A 
ATOM      5  C   UNL     1     100.816 130.129  84.462  0.00  0.00    +0.000 A 
ATOM      6  C   UNL     1      99.435 129.993  84.385  0.00  0.00    +0.000 A 
ATOM      7  C   UNL     1      98.892 128.895  83.726  0.00  0.00    +0.000 A 
ATOM      8  C   UNL     1      99.721 127.926  83.136  0.00  0.00    +0.000 A 
ATOM      9 CL   UNL     1      98.889 126.650  82.316  0.00  0.00    +0.000 Cl
ATOM     10 CL   UNL     1     103.358 129.424  84.094  0.00  0.00    +0.000 Cl
ENDBRANCH   2   3
BRANCH   1  15
ATOM     11  C   UNL     1     104.152 124.662  80.214  0.00  0.00    +0.000 A 
ATOM     12  C   UNL     1     104.919 123.623  80.727  0.00  0.00    +0.000 A 
ATOM     13  C   UNL     1     104.895 123.347  82.096  0.00  0.00    +0.000 A 
ATOM     14  C   UNL     1     104.097 124.104  82.969  0.00  0.00    +0.000 A 
ATOM     15  C   UNL     1     103.295 125.155  82.453  0.00  0.00    +0.000 A 
ATOM     16  C   UNL     1     103.353 125.418  81.074  0.00  0.00    +0.000 A 
ATOM     17  S   UNL     1     104.184 123.668  84.649  0.00  0.00    +0.000 S 
ENDBRANCH   1  15
TORSDOF 2
ENDMDL
