MODEL 1
REMARK VINA RESULT:      -4.3      0.000      0.000
REMARK  Name = *****
REMARK  3 active torsions:
REMARK  status: ('A' for Active; 'I' for Inactive)
REMARK    1  A    between atoms: C_4  and  C_7
REMARK    2  A    between atoms: C_7  and  N_8
REMARK    3  A    between atoms: C_9  and  C_10
REMARK                            x       y       z     vdW  Elec       q    Type
REMARK                         _______ _______ _______ _____ _____    ______ ____
ROOT
ATOM      1  N   UNL     1      89.143  66.082  87.061  0.00  0.00    +0.000 NA
ATOM      2  C   UNL     1      88.926  64.818  86.888  0.00  0.00    +0.000 C 
ENDROOT
BRANCH   2   3
ATOM      3  C   UNL     1      88.152  64.021  87.862  0.00  0.00    +0.000 A 
ATOM      4  C   UNL     1      87.319  62.982  87.436  0.00  0.00    +0.000 A 
ATOM      5  C   UNL     1      86.598  62.244  88.375  0.00  0.00    +0.000 A 
ATOM      6  C   UNL     1      86.707  62.543  89.733  0.00  0.00    +0.000 A 
ATOM      7  C   UNL     1      87.540  63.580  90.158  0.00  0.00    +0.000 A 
ATOM      8  C   UNL     1      88.264  64.322  89.223  0.00  0.00    +0.000 A 
ENDBRANCH   2   3
BRANCH   1   9
ATOM      9  C   UNL     1      89.876  66.706  86.088  0.00  0.00    +0.000 C 
BRANCH   9  13
ATOM     10  C   UNL     1      89.707  70.935  85.462  0.00  0.00    +0.000 A 
ATOM     11  C   UNL     1      89.538  70.418  86.744  0.00  0.00    +0.000 A 
ATOM     12  C   UNL     1      89.592  69.037  86.955  0.00  0.00    +0.000 A 
ATOM     13  C   UNL     1      89.816  68.160  85.887  0.00  0.00    +0.000 A 
ATOM     14  C   UNL     1      89.984  68.691  84.601  0.00  0.00    +0.000 A 
ATOM     15  C   UNL     1      89.930  70.073  84.391  0.00  0.00    +0.000 A 
ENDBRANCH   9  13
ENDBRANCH   1   9
TORSDOF 3
ENDMDL
