MODEL 1
REMARK VINA RESULT:      -4.9      0.000      0.000
REMARK  Name = *****
REMARK  2 active torsions:
REMARK  status: ('A' for Active; 'I' for Inactive)
REMARK    1  A    between atoms: C_3  and  N_9
REMARK    2  A    between atoms: C_10  and  C_11
REMARK                            x       y       z     vdW  Elec       q    Type
REMARK                         _______ _______ _______ _____ _____    ______ ____
ROOT
ATOM      1  N   UNL     1     102.073 125.975  82.654  0.00  0.00    +0.000 NA
ATOM      2  C   UNL     1     102.734 126.076  81.546  0.00  0.00    +0.000 C 
ENDROOT
BRANCH   1   5
ATOM      3  C   UNL     1     100.706 129.172  83.926  0.00  0.00    +0.000 A 
ATOM      4  C   UNL     1     101.579 128.119  83.633  0.00  0.00    +0.000 A 
ATOM      5  C   UNL     1     101.133 126.983  82.944  0.00  0.00    +0.000 A 
ATOM      6  C   UNL     1      99.795 126.936  82.531  0.00  0.00    +0.000 A 
ATOM      7  C   UNL     1      98.928 127.985  82.824  0.00  0.00    +0.000 A 
ATOM      8  C   UNL     1      99.373 129.102  83.522  0.00  0.00    +0.000 A 
ATOM      9  F   UNL     1      97.646 127.924  82.436  0.00  0.00    +0.000 F 
ATOM     10  F   UNL     1      99.333 125.871  81.856  0.00  0.00    +0.000 F 
ENDBRANCH   1   5
BRANCH   2  11
ATOM     11  C   UNL     1     103.753 125.080  81.159  0.00  0.00    +0.000 A 
ATOM     12  C   UNL     1     104.408 125.228  79.935  0.00  0.00    +0.000 A 
ATOM     13  C   UNL     1     105.370 124.293  79.564  0.00  0.00    +0.000 A 
ATOM     14  C   UNL     1     105.679 123.224  80.399  0.00  0.00    +0.000 A 
ATOM     15  C   UNL     1     105.031 123.074  81.621  0.00  0.00    +0.000 A 
ATOM     16  C   UNL     1     104.063 124.005  82.004  0.00  0.00    +0.000 A 
ATOM     17  F   UNL     1     106.607 122.329  80.033  0.00  0.00    +0.000 F 
ATOM     18  F   UNL     1     105.997 124.432  78.389  0.00  0.00    +0.000 F 
ENDBRANCH   2  11
TORSDOF 2
ENDMDL
