MODEL 1
REMARK VINA RESULT:      -4.6      0.000      0.000
REMARK  Name = *****
REMARK  5 active torsions:
REMARK  status: ('A' for Active; 'I' for Inactive)
REMARK    1  A    between atoms: C_1  and  C_2
REMARK    2  A    between atoms: C_3  and  O_9
REMARK    3  A    between atoms: C_4  and  C_8
REMARK    4  A    between atoms: O_9  and  C_10
REMARK    5  A    between atoms: C_10  and  C_12
REMARK                            x       y       z     vdW  Elec       q    Type
REMARK                         _______ _______ _______ _____ _____    ______ ____
ROOT
ATOM      1  O   UNL     1     101.658 127.014  82.279  0.00  0.00    +0.000 OA
ENDROOT
BRANCH   1   4
ATOM      2  C   UNL     1     103.388 128.892  83.599  0.00  0.00    +0.000 C 
ATOM      3  C   UNL     1     101.893 128.947  83.714  0.00  0.00    +0.000 A 
ATOM      4  C   UNL     1     101.070 127.996  83.089  0.00  0.00    +0.000 A 
ATOM      5  C   UNL     1      99.670 128.049  83.179  0.00  0.00    +0.000 A 
ATOM      6  C   UNL     1      99.093 129.048  83.972  0.00  0.00    +0.000 A 
ATOM      7  C   UNL     1      99.896 129.983  84.628  0.00  0.00    +0.000 A 
ATOM      8  C   UNL     1     101.286 129.933  84.501  0.00  0.00    +0.000 A 
ATOM      9  C   UNL     1      98.801 127.039  82.489  0.00  0.00    +0.000 C 
ENDBRANCH   1   4
BRANCH   1  10
ATOM     10  C   UNL     1     102.103 125.912  82.984  0.00  0.00    +0.000 C 
ATOM     11  O   UNL     1     101.762 125.554  84.101  0.00  0.00    +0.000 OA
BRANCH  10  12
ATOM     12  C   UNL     1     103.117 125.178  82.173  0.00  0.00    +0.000 A 
ATOM     13  C   UNL     1     103.861 124.169  82.806  0.00  0.00    +0.000 A 
ATOM     14  C   UNL     1     104.823 123.449  82.093  0.00  0.00    +0.000 A 
ATOM     15  C   UNL     1     105.038 123.737  80.751  0.00  0.00    +0.000 A 
ATOM     16  C   UNL     1     104.310 124.731  80.106  0.00  0.00    +0.000 A 
ATOM     17  C   UNL     1     103.347 125.455  80.815  0.00  0.00    +0.000 A 
ATOM     18  F   UNL     1     105.959 123.046  80.068  0.00  0.00    +0.000 F 
ENDBRANCH  10  12
ENDBRANCH   1  10
TORSDOF 3
ENDMDL
