REMARK  Name = *****
REMARK  5 active torsions:
REMARK  status: ('A' for Active; 'I' for Inactive)
REMARK    1  A    between atoms: C_4  and  C_7
REMARK    2  A    between atoms: C_7  and  S_8
REMARK    3  A    between atoms: S_8  and  C_9
REMARK    4  A    between atoms: C_9  and  C_10
REMARK    5  A    between atoms: C_10  and  C_11
REMARK                            x       y       z     vdW  Elec       q    Type
REMARK                         _______ _______ _______ _____ _____    ______ ____
ROOT
ATOM      1  C   UNL     1      -5.389  -0.534  -0.316  0.00  0.00    +0.000 C 
ATOM      2  F   UNL     1      -5.564   0.656   0.319  0.00  0.00    +0.000 F 
ATOM      3  F   UNL     1      -5.402  -0.252  -1.646  0.00  0.00    +0.000 F 
ENDROOT
BRANCH   1   4
ATOM      4  C   UNL     1      -6.506  -1.503   0.040  0.00  0.00    +0.000 C 
ATOM      5  F   UNL     1      -6.337  -2.699  -0.597  0.00  0.00    +0.000 F 
ATOM      6  F   UNL     1      -6.500  -1.785   1.376  0.00  0.00    +0.000 F 
BRANCH   4   7
ATOM      7  C   UNL     1      -7.825  -0.880  -0.358  0.00  0.00    +0.000 C 
ATOM      8  F   UNL     1      -8.063   0.288   0.284  0.00  0.00    +0.000 F 
ATOM      9  F   UNL     1      -7.900  -0.625  -1.686  0.00  0.00    +0.000 F 
ATOM     10  F   UNL     1      -8.866  -1.701  -0.064  0.00  0.00    +0.000 F 
ENDBRANCH   4   7
ENDBRANCH   1   4
BRANCH   1  11
ATOM     11  S   UNL     1      -3.726  -1.158   0.109  0.00  0.00    +0.000 S 
BRANCH  11  12
ATOM     12  C   UNL     1      -2.783   0.283  -0.459  0.00  0.00    +0.000 C 
BRANCH  12  16
ATOM     13  C   UNL     1       1.451  -0.307   0.122  0.00  0.00    +0.000 A 
ATOM     14  C   UNL     1       0.853  -0.683  -1.079  0.00  0.00    +0.000 A 
ATOM     15  C   UNL     1      -0.517  -0.491  -1.269  0.00  0.00    +0.000 A 
ATOM     16  C   UNL     1      -1.302   0.085  -0.259  0.00  0.00    +0.000 A 
ATOM     17  C   UNL     1      -0.690   0.451   0.949  0.00  0.00    +0.000 A 
ATOM     18  C   UNL     1       0.680   0.258   1.137  0.00  0.00    +0.000 A 
ENDBRANCH  12  16
ENDBRANCH  11  12
ENDBRANCH   1  11
TORSDOF 5
