MODEL 1
REMARK VINA RESULT:      -4.7      0.000      0.000
REMARK  Name = *****
REMARK  3 active torsions:
REMARK  status: ('A' for Active; 'I' for Inactive)
REMARK    1  A    between atoms: C_1  and  C_2
REMARK    2  A    between atoms: C_2  and  C_10
REMARK    3  A    between atoms: N_3  and  C_4
REMARK                            x       y       z     vdW  Elec       q    Type
REMARK                         _______ _______ _______ _____ _____    ______ ____
ROOT
ATOM      1  C   UNL     1     103.293 127.301  80.455  0.00  0.00    +0.000 C 
ATOM      2  C   UNL     1     103.216 125.999  81.233  0.00  0.00    +0.000 C 
ATOM      3  N   UNL     1     102.385 125.784  82.213  0.00  0.00    +0.000 NA
ENDROOT
BRANCH   2   4
ATOM      4  C   UNL     1     104.141 124.892  80.842  0.00  0.00    +0.000 A 
ATOM      5  C   UNL     1     104.156 123.675  81.532  0.00  0.00    +0.000 A 
ATOM      6  C   UNL     1     105.042 122.671  81.139  0.00  0.00    +0.000 A 
ATOM      7  C   UNL     1     105.915 122.867  80.070  0.00  0.00    +0.000 A 
ATOM      8  C   UNL     1     105.911 124.083  79.389  0.00  0.00    +0.000 A 
ATOM      9  C   UNL     1     105.030 125.094  79.776  0.00  0.00    +0.000 A 
ATOM     10 CL   UNL     1     105.059 121.174  81.988  0.00  0.00    +0.000 Cl
ENDBRANCH   2   4
BRANCH   3  11
ATOM     11  C   UNL     1     101.478 126.778  82.600  0.00  0.00    +0.000 A 
ATOM     12  C   UNL     1     100.113 126.637  82.333  0.00  0.00    +0.000 A 
ATOM     13  C   UNL     1      99.209 127.620  82.738  0.00  0.00    +0.000 A 
ATOM     14  C   UNL     1      99.664 128.743  83.428  0.00  0.00    +0.000 A 
ATOM     15  C   UNL     1     101.020 128.880  83.718  0.00  0.00    +0.000 A 
ATOM     16  C   UNL     1     101.922 127.895  83.310  0.00  0.00    +0.000 A 
ENDBRANCH   3  11
TORSDOF 2
ENDMDL
