MODEL 1
REMARK VINA RESULT:      -4.7      0.000      0.000
REMARK  Name = *****
REMARK  3 active torsions:
REMARK  status: ('A' for Active; 'I' for Inactive)
REMARK    1  A    between atoms: C_1  and  C_2
REMARK    2  A    between atoms: C_5  and  C_7
REMARK    3  A    between atoms: C_8  and  C_9
REMARK                            x       y       z     vdW  Elec       q    Type
REMARK                         _______ _______ _______ _____ _____    ______ ____
ROOT
ATOM      1  C   UNL     1     102.978 126.283  81.116  0.00  0.00    +0.000 C 
ATOM      2  C   UNL     1     102.054 125.987  82.044  0.00  0.00    +0.000 C 
ENDROOT
BRANCH   1   7
ATOM      3  C   UNL     1     105.090 121.910  80.791  0.00  0.00    +0.000 C 
ATOM      4  C   UNL     1     104.933 123.340  80.465  0.00  0.00    +0.000 A 
ATOM      5  C   UNL     1     105.612 124.207  79.643  0.00  0.00    +0.000 A 
ATOM      6  C   UNL     1     104.961 125.456  79.775  0.00  0.00    +0.000 A 
ATOM      7  C   UNL     1     103.910 125.303  80.672  0.00  0.00    +0.000 A 
ATOM      8  O   UNL     1     103.912 123.988  81.084  0.00  0.00    +0.000 OA
ENDBRANCH   1   7
BRANCH   2   9
ATOM      9  C   UNL     1     101.070 126.949  82.559  0.00  0.00    +0.000 A 
ATOM     10  C   UNL     1     101.445 128.103  83.260  0.00  0.00    +0.000 A 
ATOM     11  C   UNL     1     100.478 129.008  83.707  0.00  0.00    +0.000 A 
ATOM     12  C   UNL     1      99.129 128.774  83.449  0.00  0.00    +0.000 A 
ATOM     13  C   UNL     1      98.745 127.639  82.739  0.00  0.00    +0.000 A 
ATOM     14  C   UNL     1      99.712 126.735  82.291  0.00  0.00    +0.000 A 
ENDBRANCH   2   9
TORSDOF 2
ENDMDL
