MODEL 1
REMARK VINA RESULT:      -4.5      0.000      0.000
REMARK  Name = *****
REMARK  3 active torsions:
REMARK  status: ('A' for Active; 'I' for Inactive)
REMARK    1  A    between atoms: C_1  and  N_2
REMARK    2  A    between atoms: C_5  and  C_8
REMARK    3  A    between atoms: C_9  and  C_10
REMARK                            x       y       z     vdW  Elec       q    Type
REMARK                         _______ _______ _______ _____ _____    ______ ____
ROOT
ATOM      1  C   UNL     1     102.354 126.166  83.127  0.00  0.00    +0.000 C 
ATOM      2  C   UNL     1     102.075 127.400  82.676  0.00  0.00    +0.000 C 
ENDROOT
BRANCH   2   3
ATOM      3  C   UNL     1     101.184 128.331  83.391  0.00  0.00    +0.000 A 
ATOM      4  C   UNL     1      99.782 128.246  83.286  0.00  0.00    +0.000 A 
ATOM      5  C   UNL     1      98.957 129.156  83.951  0.00  0.00    +0.000 A 
ATOM      6  C   UNL     1      99.527 130.166  84.723  0.00  0.00    +0.000 A 
ATOM      7  C   UNL     1     100.911 130.275  84.832  0.00  0.00    +0.000 A 
ATOM      8  C   UNL     1     101.737 129.364  84.165  0.00  0.00    +0.000 A 
ATOM      9 CL   UNL     1      98.516 131.288  85.544  0.00  0.00    +0.000 Cl
ATOM     10 CL   UNL     1      99.013 127.006  82.352  0.00  0.00    +0.000 Cl
ENDBRANCH   2   3
BRANCH   1  15
ATOM     11  C   UNL     1     105.687 122.390  80.432  0.00  0.00    +0.000 C 
ATOM     12  N   UNL     1     104.821 123.369  81.110  0.00  0.00    +0.000 N 
ATOM     13  C   UNL     1     104.252 124.371  80.404  0.00  0.00    +0.000 C 
ATOM     14  C   UNL     1     103.435 125.305  81.033  0.00  0.00    +0.000 C 
ATOM     15  C   UNL     1     103.193 125.205  82.402  0.00  0.00    +0.000 C 
ATOM     16  C   UNL     1     103.813 124.177  83.112  0.00  0.00    +0.000 C 
ATOM     17  C   UNL     1     104.622 123.265  82.442  0.00  0.00    +0.000 C 
ENDBRANCH   1  15
TORSDOF 2
ENDMDL
