REMARK  Name = *****
REMARK  2 active torsions:
REMARK  status: ('A' for Active; 'I' for Inactive)
REMARK    1  A    between atoms: C_7  and  C_8
REMARK    2  A    between atoms: C_9  and  C_10
REMARK                            x       y       z     vdW  Elec       q    Type
REMARK                         _______ _______ _______ _____ _____    ______ ____
ROOT
ATOM      1  C   UNL     1       1.229   1.399  -1.959  0.00  0.00    +0.000 C 
ATOM      2  C   UNL     1       1.231   1.894  -3.054  0.00  0.00    +0.000 C 
ENDROOT
BRANCH   1   9
ATOM      3  C   UNL     1      -1.285  -0.790  -0.514  0.00  0.00    +0.000 C 
ATOM      4  C   UNL     1      -1.328   0.745  -0.516  0.00  0.00    +0.000 C 
ATOM      5  C   UNL     1      -0.029   1.132   0.219  0.00  0.00    +0.000 C 
ATOM      6  C   UNL     1       0.038   0.035   1.285  0.00  0.00    +0.000 C 
ATOM      7  C   UNL     1       0.011  -1.095   0.255  0.00  0.00    +0.000 C 
ATOM      8  C   UNL     1       1.213  -0.744  -0.644  0.00  0.00    +0.000 C 
ATOM      9  C   UNL     1       1.225   0.797  -0.622  0.00  0.00    +0.000 C 
ENDBRANCH   1   9
BRANCH   2  10
ATOM     10  C   UNL     1       1.221   2.485  -4.356  0.00  0.00    +0.000 A 
ATOM     11  C   UNL     1       2.395   2.538  -5.111  0.00  0.00    +0.000 A 
ATOM     12  C   UNL     1       2.383   3.117  -6.382  0.00  0.00    +0.000 A 
ATOM     13  C   UNL     1       1.199   3.641  -6.899  0.00  0.00    +0.000 A 
ATOM     14  C   UNL     1       0.025   3.589  -6.146  0.00  0.00    +0.000 A 
ATOM     15  C   UNL     1       0.036   3.011  -4.875  0.00  0.00    +0.000 A 
ENDBRANCH   2  10
TORSDOF 2
