REMARK  Name = *****
REMARK  2 active torsions:
REMARK  status: ('A' for Active; 'I' for Inactive)
REMARK    1  A    between atoms: C_1  and  C_2
REMARK    2  A    between atoms: C_9  and  C_11
REMARK                            x       y       z     vdW  Elec       q    Type
REMARK                         _______ _______ _______ _____ _____    ______ ____
ROOT
ATOM      1  C   UNL     1       1.066   0.008   0.004  0.00  0.00    +0.000 C 
ATOM      2  C   UNL     1       2.567   0.015   0.069  0.00  0.00    +0.000 A 
ATOM      3  C   UNL     1       3.277  -1.201   0.007  0.00  0.00    +0.000 A 
ATOM      4  C   UNL     1       4.677  -1.161   0.038  0.00  0.00    +0.000 A 
ATOM      5  C   UNL     1       5.311   0.064   0.115  0.00  0.00    +0.000 A 
ATOM      6  C   UNL     1       4.662   1.290   0.163  0.00  0.00    +0.000 A 
ATOM      7  C   UNL     1       3.262   1.237   0.133  0.00  0.00    +0.000 A 
ATOM      8  O   UNL     1       6.653  -0.161   0.129  0.00  0.00    +0.000 OA
ATOM      9  C   UNL     1       6.774  -1.533   0.058  0.00  0.00    +0.000 A 
ATOM     10  N   UNL     1       5.610  -2.165   0.001  0.00  0.00    +0.000 NA
ENDROOT
BRANCH   9  11
ATOM     11  C   UNL     1       8.038  -2.221   0.046  0.00  0.00    +0.000 A 
ATOM     12  C   UNL     1       8.238  -3.587  -0.021  0.00  0.00    +0.000 A 
ATOM     13  C   UNL     1       9.620  -3.939  -0.013  0.00  0.00    +0.000 A 
ATOM     14  C   UNL     1      10.431  -2.830   0.060  0.00  0.00    +0.000 A 
ATOM     15  S   UNL     1       9.528  -1.378   0.118  0.00  0.00    +0.000 S 
ENDBRANCH   9  11
TORSDOF 1
