MODEL 1
REMARK VINA RESULT:      -4.7      0.000      0.000
REMARK  Name = *****
REMARK  0 active torsions:
REMARK  status: ('A' for Active; 'I' for Inactive)
REMARK                            x       y       z     vdW  Elec       q    Type
REMARK                         _______ _______ _______ _____ _____    ______ ____
ROOT
ATOM      1  C   UNL     1     102.030 125.822  83.171  0.00  0.00    +0.000 C 
ATOM      2  C   UNL     1     101.762 127.212  82.577  0.00  0.00    +0.000 C 
ATOM      3  C   UNL     1     102.978 128.099  82.509  0.00  0.00    +0.000 A 
ATOM      4  C   UNL     1     103.241 128.946  83.603  0.00  0.00    +0.000 A 
ATOM      5  C   UNL     1     104.344 129.794  83.610  0.00  0.00    +0.000 A 
ATOM      6  C   UNL     1     105.205 129.812  82.521  0.00  0.00    +0.000 A 
ATOM      7  C   UNL     1     104.963 128.972  81.434  0.00  0.00    +0.000 A 
ATOM      8  C   UNL     1     103.863 128.090  81.412  0.00  0.00    +0.000 A 
ATOM      9  C   UNL     1     103.696 127.233  80.170  0.00  0.00    +0.000 C 
ATOM     10  C   UNL     1     103.127 125.811  80.284  0.00  0.00    +0.000 C 
ATOM     11  C   UNL     1     103.732 124.992  81.395  0.00  0.00    +0.000 A 
ATOM     12  C   UNL     1     104.855 124.198  81.094  0.00  0.00    +0.000 A 
ATOM     13  C   UNL     1     105.467 123.413  82.069  0.00  0.00    +0.000 A 
ATOM     14  C   UNL     1     104.963 123.410  83.362  0.00  0.00    +0.000 A 
ATOM     15  C   UNL     1     103.858 124.198  83.678  0.00  0.00    +0.000 A 
ATOM     16  C   UNL     1     103.234 125.015  82.712  0.00  0.00    +0.000 A 
ENDROOT
TORSDOF 0
ENDMDL
