MODEL 1
REMARK VINA RESULT:      -4.5      0.000      0.000
REMARK  Name = *****
REMARK  6 active torsions:
REMARK  status: ('A' for Active; 'I' for Inactive)
REMARK    1  A    between atoms: C_1  and  C_2
REMARK    2  A    between atoms: C_2  and  O_3
REMARK    3  A    between atoms: O_3  and  C_4
REMARK    4  A    between atoms: C_4  and  C_5
REMARK    5  A    between atoms: C_4  and  C_12
REMARK    6  A    between atoms: C_5  and  C_6
REMARK                            x       y       z     vdW  Elec       q    Type
REMARK                         _______ _______ _______ _____ _____    ______ ____
ROOT
ATOM      1  C   UNL     1      88.787  70.236  86.521  0.00  0.00    +0.000 C 
ENDROOT
BRANCH   1   2
ATOM      2  C   UNL     1      88.872  68.723  86.641  0.00  0.00    +0.000 A 
ATOM      3  C   UNL     1      90.002  68.043  86.160  0.00  0.00    +0.000 A 
ATOM      4  C   UNL     1      90.107  66.655  86.284  0.00  0.00    +0.000 A 
ATOM      5  C   UNL     1      89.085  65.931  86.895  0.00  0.00    +0.000 A 
ATOM      6  C   UNL     1      87.960  66.592  87.383  0.00  0.00    +0.000 A 
ATOM      7  C   UNL     1      87.855  67.978  87.258  0.00  0.00    +0.000 A 
ENDBRANCH   1   2
BRANCH   1   8
ATOM      8  O   UNL     1      90.011  70.758  85.981  0.00  0.00    +0.000 OA
BRANCH   8  10
ATOM      9  C   UNL     1      90.787  70.876  83.731  0.00  0.00    +0.000 C 
ATOM     10  C   UNL     1      89.835  71.461  84.755  0.00  0.00    +0.000 C 
ENDBRANCH   8  10
ENDBRANCH   1   8
BRANCH   1  11
ATOM     11  C   UNL     1      87.557  70.708  85.710  0.00  0.00    +0.000 C 
BRANCH  11  12
ATOM     12  C   UNL     1      86.426  71.307  86.517  0.00  0.00    +0.000 A 
ATOM     13  C   UNL     1      85.345  71.928  85.874  0.00  0.00    +0.000 A 
ATOM     14  C   UNL     1      84.304  72.486  86.618  0.00  0.00    +0.000 A 
ATOM     15  C   UNL     1      84.333  72.431  88.010  0.00  0.00    +0.000 A 
ATOM     16  C   UNL     1      85.404  71.821  88.660  0.00  0.00    +0.000 A 
ATOM     17  C   UNL     1      86.445  71.262  87.917  0.00  0.00    +0.000 A 
ENDBRANCH  11  12
ENDBRANCH   1  11
TORSDOF 5
ENDMDL
