MODEL 1
REMARK VINA RESULT:      -3.7      0.000      0.000
REMARK  Name = *****
REMARK  5 active torsions:
REMARK  status: ('A' for Active; 'I' for Inactive)
REMARK    1  A    between atoms: C_1  and  C_2
REMARK    2  A    between atoms: C_7  and  C_8
REMARK    3  A    between atoms: C_8  and  C_9
REMARK    4  A    between atoms: C_11  and  C_12
REMARK    5  A    between atoms: C_12  and  C_14
REMARK                            x       y       z     vdW  Elec       q    Type
REMARK                         _______ _______ _______ _____ _____    ______ ____
ROOT
ATOM      1  C   UNL     1      87.729  67.670  87.565  0.00  0.00    +0.000 C 
ATOM      2  C   UNL     1      88.533  68.686  86.801  0.00  0.00    +0.000 A 
ATOM      3  C   UNL     1      88.923  68.391  85.485  0.00  0.00    +0.000 A 
ATOM      4  C   UNL     1      89.667  69.301  84.734  0.00  0.00    +0.000 A 
ATOM      5  C   UNL     1      90.035  70.521  85.291  0.00  0.00    +0.000 A 
ATOM      6  C   UNL     1      89.650  70.833  86.594  0.00  0.00    +0.000 A 
ATOM      7  C   UNL     1      88.889  69.931  87.361  0.00  0.00    +0.000 A 
ENDROOT
BRANCH   7   8
ATOM      8  C   UNL     1      88.512  70.332  88.773  0.00  0.00    +0.000 C 
BRANCH   8   9
ATOM      9  C   UNL     1      87.154  70.968  88.846  0.00  0.00    +0.000 C 
ATOM     10  C   UNL     1      86.458  71.355  87.816  0.00  0.00    +0.000 C 
ATOM     11  C   UNL     1      85.756  71.750  86.794  0.00  0.00    +0.000 C 
BRANCH  11  12
ATOM     12  C   UNL     1      85.883  71.192  85.458  0.00  0.00    +0.000 C 
ATOM     13  C   UNL     1      86.570  71.856  84.512  0.00  0.00    +0.000 C 
ATOM     14  C   UNL     1      85.237  69.866  85.156  0.00  0.00    +0.000 C 
ENDBRANCH  11  12
ENDBRANCH   8   9
ENDBRANCH   7   8
TORSDOF 3
ENDMDL
