MODEL 1
REMARK VINA RESULT:      -3.8      0.000      0.000
REMARK  Name = *****
REMARK  3 active torsions:
REMARK  status: ('A' for Active; 'I' for Inactive)
REMARK    1  A    between atoms: C_1  and  C_2
REMARK    2  A    between atoms: C_2  and  C_7
REMARK    3  A    between atoms: C_8  and  C_9
REMARK                            x       y       z     vdW  Elec       q    Type
REMARK                         _______ _______ _______ _____ _____    ______ ____
ROOT
ATOM      1  C   UNL     1     101.042 126.528  82.814  0.00  0.00    +0.000 C 
ATOM      2  C   UNL     1     101.989 125.962  82.340  0.00  0.00    +0.000 C 
ENDROOT
BRANCH   1   4
ATOM      3  C   UNL     1      98.686 127.164  82.441  0.00  0.00    +0.000 C 
ATOM      4  C   UNL     1      99.879 127.217  83.397  0.00  0.00    +0.000 C 
ATOM      5  S   UNL     1      99.408 126.410  84.982  0.00  0.00    +0.000 S 
ATOM      6  C   UNL     1      99.552 127.870  86.044  0.00  0.00    +0.000 C 
ATOM      7  C   UNL     1     100.641 128.762  85.486  0.00  0.00    +0.000 C 
ATOM      8  S   UNL     1     100.291 128.974  83.727  0.00  0.00    +0.000 S 
ENDBRANCH   1   4
BRANCH   2   9
ATOM      9  C   UNL     1     103.115 125.283  81.777  0.00  0.00    +0.000 A 
ATOM     10  C   UNL     1     103.489 125.529  80.454  0.00  0.00    +0.000 A 
ATOM     11  C   UNL     1     104.591 124.867  79.905  0.00  0.00    +0.000 A 
ATOM     12  C   UNL     1     105.318 123.962  80.679  0.00  0.00    +0.000 A 
ATOM     13  C   UNL     1     104.944 123.716  82.001  0.00  0.00    +0.000 A 
ATOM     14  C   UNL     1     103.844 124.377  82.550  0.00  0.00    +0.000 A 
ENDBRANCH   2   9
TORSDOF 2
ENDMDL
