MODEL 1
REMARK VINA RESULT:      -4.6      0.000      0.000
REMARK  Name = *****
REMARK  2 active torsions:
REMARK  status: ('A' for Active; 'I' for Inactive)
REMARK    1  A    between atoms: C_2  and  C_10
REMARK    2  A    between atoms: C_3  and  C_4
REMARK                            x       y       z     vdW  Elec       q    Type
REMARK                         _______ _______ _______ _____ _____    ______ ____
ROOT
ATOM      1  C   UNL     1     103.694 128.196  82.017  0.00  0.00    +0.000 C 
ATOM      2  C   UNL     1     103.254 127.113  81.065  0.00  0.00    +0.000 C 
ATOM      3  C   UNL     1     102.735 127.138  82.496  0.00  0.00    +0.000 C 
ENDROOT
BRANCH   3   4
ATOM      4  C   UNL     1     101.289 127.487  82.763  0.00  0.00    +0.000 A 
ATOM      5  C   UNL     1     100.247 126.635  82.362  0.00  0.00    +0.000 A 
ATOM      6  C   UNL     1      98.909 126.949  82.620  0.00  0.00    +0.000 A 
ATOM      7  C   UNL     1      98.587 128.124  83.294  0.00  0.00    +0.000 A 
ATOM      8  C   UNL     1      99.602 128.980  83.711  0.00  0.00    +0.000 A 
ATOM      9  C   UNL     1     100.937 128.661  83.450  0.00  0.00    +0.000 A 
ENDBRANCH   3   4
BRANCH   2  10
ATOM     10  C   UNL     1     104.226 126.039  80.635  0.00  0.00    +0.000 A 
ATOM     11  C   UNL     1     103.902 124.677  80.739  0.00  0.00    +0.000 A 
ATOM     12  C   UNL     1     104.793 123.682  80.326  0.00  0.00    +0.000 A 
ATOM     13  C   UNL     1     106.029 124.033  79.792  0.00  0.00    +0.000 A 
ATOM     14  C   UNL     1     106.371 125.377  79.669  0.00  0.00    +0.000 A 
ATOM     15  C   UNL     1     105.476 126.366  80.084  0.00  0.00    +0.000 A 
ENDBRANCH   2  10
TORSDOF 2
ENDMDL
