REMARK  Name = *****
REMARK  3 active torsions:
REMARK  status: ('A' for Active; 'I' for Inactive)
REMARK    1  A    between atoms: C_4  and  C_6
REMARK    2  A    between atoms: C_6  and  O_8
REMARK    3  A    between atoms: O_8  and  C_9
REMARK                            x       y       z     vdW  Elec       q    Type
REMARK                         _______ _______ _______ _____ _____    ______ ____
ROOT
ATOM      1  O   UNL     1       0.673  -4.175   1.270  0.00  0.00    +0.000 OA
ENDROOT
BRANCH   1   2
ATOM      2  C   UNL     1       0.532  -5.385   0.583  0.00  0.00    +0.000 A 
ATOM      3  C   UNL     1      -0.050  -5.419  -0.689  0.00  0.00    +0.000 A 
ATOM      4  C   UNL     1      -0.208  -6.644  -1.338  0.00  0.00    +0.000 A 
ATOM      5  C   UNL     1       0.204  -7.824  -0.710  0.00  0.00    +0.000 A 
ATOM      6  C   UNL     1       0.766  -7.776   0.568  0.00  0.00    +0.000 A 
ATOM      7  C   UNL     1       0.928  -6.559   1.227  0.00  0.00    +0.000 A 
ATOM      8 CL   UNL     1       1.256  -9.234   1.339  0.00  0.00    +0.000 Cl
ATOM      9 CL   UNL     1      -0.594  -3.982  -1.467  0.00  0.00    +0.000 Cl
ENDBRANCH   1   2
BRANCH   1  10
ATOM     10  C   UNL     1       1.876  -3.527   0.985  0.00  0.00    +0.000 C 
ATOM     11  O   UNL     1       2.765  -3.990   0.278  0.00  0.00    +0.000 OA
BRANCH  10  15
ATOM     12  C   UNL     1       1.338  -0.372   2.951  0.00  0.00    +0.000 A 
ATOM     13  C   UNL     1       2.609  -0.043   2.539  0.00  0.00    +0.000 A 
ATOM     14  S   UNL     1       3.298  -1.259   1.554  0.00  0.00    +0.000 S 
ATOM     15  C   UNL     1       1.899  -2.247   1.671  0.00  0.00    +0.000 A 
ATOM     16  C   UNL     1       0.928  -1.643   2.451  0.00  0.00    +0.000 A 
ENDBRANCH  10  15
ENDBRANCH   1  10
TORSDOF 3
