MODEL 1
REMARK VINA RESULT:      -4.7      0.000      0.000
REMARK  Name = *****
REMARK  3 active torsions:
REMARK  status: ('A' for Active; 'I' for Inactive)
REMARK    1  A    between atoms: C_7  and  C_9
REMARK    2  A    between atoms: C_9  and  C_10
REMARK    3  A    between atoms: C_10  and  C_11
REMARK                            x       y       z     vdW  Elec       q    Type
REMARK                         _______ _______ _______ _____ _____    ______ ____
ROOT
ATOM      1  C   UNL     1      98.719 119.243  82.917  0.00  0.00    +0.000 C 
ATOM      2  C   UNL     1      98.601 119.140  81.382  0.00  0.00    +0.000 C 
ATOM      3  C   UNL     1      97.930 120.491  81.176  0.00  0.00    +0.000 C 
ATOM      4  C   UNL     1      97.088 120.674  82.209  0.00  0.00    +0.000 C 
ATOM      5  C   UNL     1      97.201 119.441  83.101  0.00  0.00    +0.000 C 
ATOM      6  C   UNL     1      96.606 118.219  82.363  0.00  0.00    +0.000 C 
ATOM      7  C   UNL     1      97.549 118.012  81.182  0.00  0.00    +0.000 C 
ATOM      8  C   UNL     1      97.335 116.902  82.195  0.00  0.00    +0.000 C 
ATOM      9 BR   UNL     1      94.706 118.185  82.172  0.00  0.00    +0.000 Br
ENDROOT
BRANCH   7  10
ATOM     10  C   UNL     1      97.057 117.784  79.769  0.00  0.00    +0.000 C 
BRANCH  10  11
ATOM     11  C   UNL     1      97.855 116.680  79.068  0.00  0.00    +0.000 C 
BRANCH  11  12
ATOM     12  C   UNL     1      96.954 115.632  78.463  0.00  0.00    +0.000 A 
ATOM     13  C   UNL     1      96.153 114.828  79.284  0.00  0.00    +0.000 A 
ATOM     14  C   UNL     1      95.332 113.845  78.726  0.00  0.00    +0.000 A 
ATOM     15  C   UNL     1      95.309 113.657  77.345  0.00  0.00    +0.000 A 
ATOM     16  C   UNL     1      96.107 114.448  76.521  0.00  0.00    +0.000 A 
ATOM     17  C   UNL     1      96.929 115.431  77.078  0.00  0.00    +0.000 A 
ENDBRANCH  11  12
ENDBRANCH  10  11
ENDBRANCH   7  10
TORSDOF 3
ENDMDL
