MODEL 1
REMARK VINA RESULT:      -4.8      0.000      0.000
REMARK  Name = *****
REMARK  4 active torsions:
REMARK  status: ('A' for Active; 'I' for Inactive)
REMARK    1  A    between atoms: C_1  and  C_2
REMARK    2  A    between atoms: C_2  and  C_4
REMARK    3  A    between atoms: C_7  and  C_10
REMARK    4  A    between atoms: C_12  and  C_13
REMARK                            x       y       z     vdW  Elec       q    Type
REMARK                         _______ _______ _______ _____ _____    ______ ____
ROOT
ATOM      1  C   UNL     1      89.836  70.822  84.433  0.00  0.00    +0.000 A 
ATOM      2  C   UNL     1      89.657  70.821  85.817  0.00  0.00    +0.000 A 
ATOM      3  C   UNL     1      89.636  69.610  86.522  0.00  0.00    +0.000 A 
ATOM      4  C   UNL     1      89.785  68.375  85.870  0.00  0.00    +0.000 A 
ATOM      5  C   UNL     1      89.975  68.398  84.480  0.00  0.00    +0.000 A 
ATOM      6  C   UNL     1      89.996  69.602  83.767  0.00  0.00    +0.000 A 
ENDROOT
BRANCH   1   8
ATOM      7  C   UNL     1      90.262  72.011  82.178  0.00  0.00    +0.000 C 
ATOM      8  C   UNL     1      89.868  72.082  83.630  0.00  0.00    +0.000 C 
ATOM      9  O   UNL     1      89.575  73.153  84.157  0.00  0.00    +0.000 OA
ENDBRANCH   1   8
BRANCH   4  10
ATOM     10  C   UNL     1      89.779  67.075  86.639  0.00  0.00    +0.000 C 
ATOM     11  C   UNL     1      89.816  65.759  85.906  0.00  0.00    +0.000 C 
ATOM     12  C   UNL     1      88.546  66.180  86.599  0.00  0.00    +0.000 C 
BRANCH  12  13
ATOM     13  C   UNL     1      88.094  65.471  87.853  0.00  0.00    +0.000 A 
ATOM     14  C   UNL     1      87.053  65.979  88.648  0.00  0.00    +0.000 A 
ATOM     15  C   UNL     1      86.621  65.315  89.799  0.00  0.00    +0.000 A 
ATOM     16  C   UNL     1      87.223  64.119  90.178  0.00  0.00    +0.000 A 
ATOM     17  C   UNL     1      88.251  63.588  89.404  0.00  0.00    +0.000 A 
ATOM     18  C   UNL     1      88.677  64.256  88.254  0.00  0.00    +0.000 A 
ENDBRANCH  12  13
ENDBRANCH   4  10
TORSDOF 3
ENDMDL
