REMARK  Name = *****
REMARK  5 active torsions:
REMARK  status: ('A' for Active; 'I' for Inactive)
REMARK    1  A    between atoms: C_4  and  O_7
REMARK    2  A    between atoms: O_7  and  C_8
REMARK    3  A    between atoms: C_8  and  C_10
REMARK    4  A    between atoms: C_10  and  C_11
REMARK    5  A    between atoms: C_11  and  C_12
REMARK                            x       y       z     vdW  Elec       q    Type
REMARK                         _______ _______ _______ _____ _____    ______ ____
ROOT
ATOM      1  C   UNL     1       3.323  -2.007  -0.326  0.00  0.00    +0.000 C 
ATOM      2  O   UNL     1       2.912  -2.678   0.610  0.00  0.00    +0.000 OA
ENDROOT
BRANCH   1   3
ATOM      3  O   UNL     1       2.615  -1.050  -0.987  0.00  0.00    +0.000 OA
BRANCH   3   7
ATOM      4  C   UNL     1      -1.514  -0.108  -1.224  0.00  0.00    +0.000 C 
ATOM      5  C   UNL     1      -1.136  -1.541  -0.857  0.00  0.00    +0.000 C 
ATOM      6  C   UNL     1       0.324  -1.838  -1.186  0.00  0.00    +0.000 C 
ATOM      7  C   UNL     1       1.269  -0.828  -0.528  0.00  0.00    +0.000 C 
ATOM      8  C   UNL     1       0.885   0.604  -0.913  0.00  0.00    +0.000 C 
ATOM      9  C   UNL     1      -0.572   0.906  -0.581  0.00  0.00    +0.000 C 
ENDBRANCH   3   7
ENDBRANCH   1   3
BRANCH   1  10
ATOM     10  C   UNL     1       4.711  -2.120  -0.901  0.00  0.00    +0.000 C 
BRANCH  10  11
ATOM     11  C   UNL     1       5.590  -0.969  -0.422  0.00  0.00    +0.000 C 
BRANCH  11  12
ATOM     12  C   UNL     1       6.998  -1.022  -1.014  0.00  0.00    +0.000 C 
ATOM     13  C   UNL     1       7.823  -2.231  -0.572  0.00  0.00    +0.000 C 
ATOM     14  C   UNL     1       9.277  -1.819  -0.794  0.00  0.00    +0.000 C 
ATOM     15  C   UNL     1       9.278  -0.296  -0.927  0.00  0.00    +0.000 C 
ATOM     16  C   UNL     1       7.869   0.148  -0.561  0.00  0.00    +0.000 C 
ENDBRANCH  11  12
ENDBRANCH  10  11
ENDBRANCH   1  10
TORSDOF 5
