MODEL 1
REMARK VINA RESULT:      -4.7      0.000      0.000
REMARK  Name = *****
REMARK  3 active torsions:
REMARK  status: ('A' for Active; 'I' for Inactive)
REMARK    1  A    between atoms: C_3  and  O_8
REMARK    2  A    between atoms: O_8  and  C_9
REMARK    3  A    between atoms: C_9  and  C_11
REMARK                            x       y       z     vdW  Elec       q    Type
REMARK                         _______ _______ _______ _____ _____    ______ ____
ROOT
ATOM      1  C   UNL     1     102.205 125.745  82.533  0.00  0.00    +0.000 C 
ATOM      2  O   UNL     1     102.710 125.041  83.397  0.00  0.00    +0.000 OA
ENDROOT
BRANCH   1   3
ATOM      3  C   UNL     1     101.311 126.880  82.868  0.00  0.00    +0.000 A 
ATOM      4  C   UNL     1      99.958 126.918  82.524  0.00  0.00    +0.000 A 
ATOM      5  C   UNL     1      99.176 128.015  82.873  0.00  0.00    +0.000 A 
ATOM      6  C   UNL     1      99.733 129.079  83.569  0.00  0.00    +0.000 A 
ATOM      7  C   UNL     1     101.077 129.059  83.930  0.00  0.00    +0.000 A 
ATOM      8  C   UNL     1     101.866 127.960  83.582  0.00  0.00    +0.000 A 
ATOM      9  F   UNL     1      98.980 130.135  83.905  0.00  0.00    +0.000 F 
ATOM     10  F   UNL     1      97.878 128.043  82.537  0.00  0.00    +0.000 F 
ATOM     11  F   UNL     1      99.372 125.903  81.872  0.00  0.00    +0.000 F 
ENDBRANCH   1   3
BRANCH   1  12
ATOM     12  O   UNL     1     102.402 125.660  81.171  0.00  0.00    +0.000 OA
BRANCH  12  15
ATOM     13  C   UNL     1     105.744 126.876  80.259  0.00  0.00    +0.000 A 
ATOM     14  C   UNL     1     104.427 126.847  80.717  0.00  0.00    +0.000 A 
ATOM     15  C   UNL     1     103.739 125.633  80.756  0.00  0.00    +0.000 A 
ATOM     16  C   UNL     1     104.332 124.454  80.311  0.00  0.00    +0.000 A 
ATOM     17  C   UNL     1     105.645 124.500  79.859  0.00  0.00    +0.000 A 
ATOM     18  C   UNL     1     106.356 125.697  79.832  0.00  0.00    +0.000 A 
ATOM     19  F   UNL     1     106.236 123.374  79.434  0.00  0.00    +0.000 F 
ENDBRANCH  12  15
ENDBRANCH   1  12
TORSDOF 3
ENDMDL
