MODEL 1
REMARK VINA RESULT:      -4.5      0.000      0.000
REMARK  Name = *****
REMARK  4 active torsions:
REMARK  status: ('A' for Active; 'I' for Inactive)
REMARK    1  A    between atoms: C_4  and  C_7
REMARK    2  A    between atoms: C_7  and  O_9
REMARK    3  A    between atoms: O_9  and  C_10
REMARK    4  A    between atoms: C_10  and  C_11
REMARK                            x       y       z     vdW  Elec       q    Type
REMARK                         _______ _______ _______ _____ _____    ______ ____
ROOT
ATOM      1  C   UNL     1     104.626 124.493  80.080  0.00  0.00    +0.000 C 
ATOM      2  O   UNL     1     105.589 124.770  79.383  0.00  0.00    +0.000 OA
ENDROOT
BRANCH   1   6
ATOM      3  C   UNL     1     104.565 121.267  82.906  0.00  0.00    +0.000 A 
ATOM      4  C   UNL     1     104.440 122.589  83.332  0.00  0.00    +0.000 A 
ATOM      5  C   UNL     1     104.462 123.628  82.399  0.00  0.00    +0.000 A 
ATOM      6  C   UNL     1     104.607 123.350  81.033  0.00  0.00    +0.000 A 
ATOM      7  C   UNL     1     104.736 122.019  80.613  0.00  0.00    +0.000 A 
ATOM      8  C   UNL     1     104.714 120.982  81.549  0.00  0.00    +0.000 A 
ENDBRANCH   1   6
BRANCH   1   9
ATOM      9  O   UNL     1     103.450 125.163  80.123  0.00  0.00    +0.000 OA
BRANCH   9  10
ATOM     10  C   UNL     1     103.544 126.578  80.317  0.00  0.00    +0.000 C 
BRANCH  10  11
ATOM     11  C   UNL     1     102.795 126.957  81.568  0.00  0.00    +0.000 A 
ATOM     12  C   UNL     1     103.135 128.116  82.280  0.00  0.00    +0.000 A 
ATOM     13  C   UNL     1     102.453 128.451  83.450  0.00  0.00    +0.000 A 
ATOM     14  C   UNL     1     101.432 127.629  83.925  0.00  0.00    +0.000 A 
ATOM     15  C   UNL     1     101.096 126.467  83.233  0.00  0.00    +0.000 A 
ATOM     16  C   UNL     1     101.777 126.130  82.062  0.00  0.00    +0.000 A 
ENDBRANCH  10  11
ENDBRANCH   9  10
ENDBRANCH   1   9
TORSDOF 4
ENDMDL
