MODEL 1
REMARK VINA RESULT:      -4.3      0.000      0.000
REMARK  Name = *****
REMARK  4 active torsions:
REMARK  status: ('A' for Active; 'I' for Inactive)
REMARK    1  A    between atoms: C_1  and  C_2
REMARK    2  A    between atoms: C_3  and  C_16
REMARK    3  A    between atoms: C_7  and  C_8
REMARK    4  A    between atoms: C_8  and  C_10
REMARK                            x       y       z     vdW  Elec       q    Type
REMARK                         _______ _______ _______ _____ _____    ______ ____
ROOT
ATOM      1  C   UNL     1      87.160  65.827  88.025  0.00  0.00    +0.000 C 
ATOM      2  C   UNL     1      88.275  66.434  87.219  0.00  0.00    +0.000 C 
ATOM      3  C   UNL     1      89.173  65.726  86.498  0.00  0.00    +0.000 C 
ATOM      4  S   UNL     1      90.382  66.645  85.632  0.00  0.00    +0.000 S 
ATOM      5  S   UNL     1      89.460  68.446  85.888  0.00  0.00    +0.000 S 
ATOM      6  C   UNL     1      88.400  67.900  87.162  0.00  0.00    +0.000 C 
ATOM      7  C   UNL     1      87.715  68.743  87.957  0.00  0.00    +0.000 C 
ATOM      8  C   UNL     1      89.285  64.232  86.403  0.00  0.00    +0.000 C 
ENDROOT
BRANCH   7   9
ATOM      9  C   UNL     1      87.814  70.229  87.951  0.00  0.00    +0.000 C 
ATOM     10  O   UNL     1      88.717  70.831  88.519  0.00  0.00    +0.000 OA
BRANCH   9  11
ATOM     11  C   UNL     1      86.693  70.983  87.322  0.00  0.00    +0.000 A 
ATOM     12  C   UNL     1      86.597  71.164  85.936  0.00  0.00    +0.000 A 
ATOM     13  C   UNL     1      85.525  71.879  85.396  0.00  0.00    +0.000 A 
ATOM     14  C   UNL     1      84.551  72.420  86.234  0.00  0.00    +0.000 A 
ATOM     15  C   UNL     1      84.650  72.259  87.615  0.00  0.00    +0.000 A 
ATOM     16  C   UNL     1      85.720  71.546  88.159  0.00  0.00    +0.000 A 
ENDBRANCH   9  11
ENDBRANCH   7   9
TORSDOF 2
ENDMDL
