MODEL 1
REMARK VINA RESULT:      -4.7      0.000      0.000
REMARK  Name = *****
REMARK  4 active torsions:
REMARK  status: ('A' for Active; 'I' for Inactive)
REMARK    1  A    between atoms: C_1  and  N_2
REMARK    2  A    between atoms: N_2  and  C_3
REMARK    3  A    between atoms: N_2  and  C_9
REMARK    4  A    between atoms: C_9  and  C_11
REMARK                            x       y       z     vdW  Elec       q    Type
REMARK                         _______ _______ _______ _____ _____    ______ ____
ROOT
ATOM      1  C   UNL     1      88.752  70.033  86.819  0.00  0.00    +0.000 C 
ATOM      2  S   UNL     1      89.674  70.825  85.639  0.00  0.00    +0.000 S 
ENDROOT
BRANCH   1   3
ATOM      3  C   UNL     1      88.828  68.546  86.845  0.00  0.00    +0.000 A 
ATOM      4  C   UNL     1      89.958  67.913  86.313  0.00  0.00    +0.000 A 
ATOM      5  C   UNL     1      90.035  66.519  86.329  0.00  0.00    +0.000 A 
ATOM      6  C   UNL     1      88.989  65.772  86.876  0.00  0.00    +0.000 A 
ATOM      7  C   UNL     1      87.865  66.404  87.409  0.00  0.00    +0.000 A 
ATOM      8  C   UNL     1      87.781  67.798  87.396  0.00  0.00    +0.000 A 
ATOM      9 CL   UNL     1      89.088  64.054  86.891  0.00  0.00    +0.000 Cl
ENDBRANCH   1   3
BRANCH   1  11
ATOM     10  C   UNL     1      88.516  70.859  89.179  0.00  0.00    +0.000 C 
ATOM     11  N   UNL     1      87.965  70.638  87.833  0.00  0.00    +0.000 N 
BRANCH  11  12
ATOM     12  C   UNL     1      86.674  71.223  87.587  0.00  0.00    +0.000 A 
ATOM     13  C   UNL     1      86.237  71.480  86.278  0.00  0.00    +0.000 A 
ATOM     14  C   UNL     1      84.999  72.084  86.036  0.00  0.00    +0.000 A 
ATOM     15  C   UNL     1      84.184  72.456  87.102  0.00  0.00    +0.000 A 
ATOM     16  C   UNL     1      84.611  72.228  88.408  0.00  0.00    +0.000 A 
ATOM     17  C   UNL     1      85.848  71.622  88.647  0.00  0.00    +0.000 A 
ENDBRANCH  11  12
ENDBRANCH   1  11
TORSDOF 3
ENDMDL
