MODEL 1
REMARK VINA RESULT:      -4.6      0.000      0.000
REMARK  Name = *****
REMARK  4 active torsions:
REMARK  status: ('A' for Active; 'I' for Inactive)
REMARK    1  A    between atoms: C_4  and  N_7
REMARK    2  A    between atoms: N_7  and  C_8
REMARK    3  A    between atoms: C_8  and  C_9
REMARK    4  A    between atoms: C_11  and  C_15
REMARK                            x       y       z     vdW  Elec       q    Type
REMARK                         _______ _______ _______ _____ _____    ______ ____
ROOT
ATOM      1  C   UNL     1     103.897 124.958  80.921  0.00  0.00    +0.000 A 
ATOM      2  C   UNL     1     104.157 123.675  81.408  0.00  0.00    +0.000 A 
ATOM      3  C   UNL     1     105.170 122.886  80.835  0.00  0.00    +0.000 A 
ATOM      4  C   UNL     1     105.923 123.414  79.775  0.00  0.00    +0.000 A 
ATOM      5  C   UNL     1     105.663 124.697  79.288  0.00  0.00    +0.000 A 
ATOM      6  C   UNL     1     104.649 125.466  79.860  0.00  0.00    +0.000 A 
ENDROOT
BRANCH   3   7
ATOM      7  C   UNL     1     105.469 121.510  81.373  0.00  0.00    +0.000 C 
ATOM      8  F   UNL     1     106.585 120.949  80.829  0.00  0.00    +0.000 F 
ATOM      9  F   UNL     1     105.670 121.499  82.721  0.00  0.00    +0.000 F 
ATOM     10  F   UNL     1     104.456 120.630  81.138  0.00  0.00    +0.000 F 
ENDBRANCH   3   7
BRANCH   1  11
ATOM     11  C   UNL     1     102.860 125.749  81.507  0.00  0.00    +0.000 C 
BRANCH  11  12
ATOM     12  N   UNL     1     102.053 126.364  81.966  0.00  0.00    +0.000 NA
BRANCH  12  16
ATOM     13  C   UNL     1      99.044 128.660  83.674  0.00  0.00    +0.000 A 
ATOM     14  C   UNL     1      98.716 127.520  82.933  0.00  0.00    +0.000 A 
ATOM     15  C   UNL     1      99.724 126.748  82.359  0.00  0.00    +0.000 A 
ATOM     16  C   UNL     1     101.050 127.129  82.536  0.00  0.00    +0.000 A 
ATOM     17  C   UNL     1     101.394 128.260  83.270  0.00  0.00    +0.000 A 
ATOM     18  C   UNL     1     100.381 129.028  83.842  0.00  0.00    +0.000 A 
ENDBRANCH  12  16
ENDBRANCH  11  12
ENDBRANCH   1  11
TORSDOF 4
ENDMDL
