MODEL 1
REMARK VINA RESULT:      -4.5      0.000      0.000
REMARK  Name = *****
REMARK  3 active torsions:
REMARK  status: ('A' for Active; 'I' for Inactive)
REMARK    1  A    between atoms: C_7  and  C_9
REMARK    2  A    between atoms: C_9  and  C_10
REMARK    3  A    between atoms: C_10  and  C_11
REMARK                            x       y       z     vdW  Elec       q    Type
REMARK                         _______ _______ _______ _____ _____    ______ ____
ROOT
ATOM      1  C   UNL     1     104.826 123.730  83.183  0.00  0.00    +0.000 C 
ATOM      2  C   UNL     1     104.979 122.372  82.501  0.00  0.00    +0.000 C 
ATOM      3  C   UNL     1     104.627 122.349  81.025  0.00  0.00    +0.000 C 
ATOM      4  C   UNL     1     105.220 123.514  80.272  0.00  0.00    +0.000 C 
ATOM      5  O   UNL     1     106.206 123.393  79.547  0.00  0.00    +0.000 OA
ATOM      6  C   UNL     1     104.532 124.829  80.352  0.00  0.00    +0.000 C 
ATOM      7  C   UNL     1     103.778 125.257  81.383  0.00  0.00    +0.000 C 
ATOM      8  C   UNL     1     103.620 124.554  82.720  0.00  0.00    +0.000 C 
ENDROOT
BRANCH   7   9
ATOM      9  C   UNL     1     103.051 126.587  81.267  0.00  0.00    +0.000 C 
BRANCH   9  10
ATOM     10  C   UNL     1     102.744 127.204  82.637  0.00  0.00    +0.000 C 
BRANCH  10  11
ATOM     11  C   UNL     1     101.273 127.494  82.804  0.00  0.00    +0.000 A 
ATOM     12  C   UNL     1     100.849 128.662  83.454  0.00  0.00    +0.000 A 
ATOM     13  C   UNL     1      99.489 128.923  83.621  0.00  0.00    +0.000 A 
ATOM     14  C   UNL     1      98.541 128.019  83.146  0.00  0.00    +0.000 A 
ATOM     15  C   UNL     1      98.952 126.852  82.506  0.00  0.00    +0.000 A 
ATOM     16  C   UNL     1     100.311 126.588  82.336  0.00  0.00    +0.000 A 
ENDBRANCH  10  11
ENDBRANCH   9  10
ENDBRANCH   7   9
TORSDOF 3
ENDMDL
