MODEL 1
REMARK VINA RESULT:      -5.1      0.000      0.000
REMARK  Name = *****
REMARK  2 active torsions:
REMARK  status: ('A' for Active; 'I' for Inactive)
REMARK    1  A    between atoms: C_4  and  C_8
REMARK    2  A    between atoms: N_9  and  C_10
REMARK                            x       y       z     vdW  Elec       q    Type
REMARK                         _______ _______ _______ _____ _____    ______ ____
ROOT
ATOM      1  C   UNL     1     101.897 126.142  82.331  0.00  0.00    +0.000 C 
ATOM      2  N   UNL     1     102.789 126.355  81.417  0.00  0.00    +0.000 NA
ENDROOT
BRANCH   1   6
ATOM      3  C   UNL     1      99.090 129.143  83.519  0.00  0.00    +0.000 A 
ATOM      4  C   UNL     1     100.449 129.281  83.796  0.00  0.00    +0.000 A 
ATOM      5  C   UNL     1     101.341 128.286  83.396  0.00  0.00    +0.000 A 
ATOM      6  C   UNL     1     100.898 127.150  82.722  0.00  0.00    +0.000 A 
ATOM      7  C   UNL     1      99.538 127.018  82.449  0.00  0.00    +0.000 A 
ATOM      8  C   UNL     1      98.635 128.009  82.844  0.00  0.00    +0.000 A 
ATOM      9  F   UNL     1      99.046 125.949  81.808  0.00  0.00    +0.000 F 
ATOM     10  F   UNL     1     102.643 128.448  83.678  0.00  0.00    +0.000 F 
ENDBRANCH   1   6
BRANCH   2  11
ATOM     11  C   UNL     1     103.675 125.302  81.155  0.00  0.00    +0.000 A 
ATOM     12  C   UNL     1     104.381 125.251  79.953  0.00  0.00    +0.000 A 
ATOM     13  C   UNL     1     105.238 124.185  79.702  0.00  0.00    +0.000 A 
ATOM     14  C   UNL     1     105.389 123.166  80.635  0.00  0.00    +0.000 A 
ATOM     15  C   UNL     1     104.679 123.197  81.831  0.00  0.00    +0.000 A 
ATOM     16  C   UNL     1     103.816 124.265  82.086  0.00  0.00    +0.000 A 
ATOM     17  F   UNL     1     106.218 122.142  80.390  0.00  0.00    +0.000 F 
ATOM     18  F   UNL     1     105.921 124.147  78.549  0.00  0.00    +0.000 F 
ENDBRANCH   2  11
TORSDOF 2
ENDMDL
