MODEL 1
REMARK VINA RESULT:      -4.7      0.000      0.000
REMARK  Name = *****
REMARK  2 active torsions:
REMARK  status: ('A' for Active; 'I' for Inactive)
REMARK    1  A    between atoms: C_4  and  C_7
REMARK    2  A    between atoms: C_7  and  C_8
REMARK                            x       y       z     vdW  Elec       q    Type
REMARK                         _______ _______ _______ _____ _____    ______ ____
ROOT
ATOM      1  C   UNL     1      88.040  70.745  85.957  0.00  0.00    +0.000 A 
ATOM      2  C   UNL     1      88.186  70.786  84.583  0.00  0.00    +0.000 A 
ATOM      3  S   UNL     1      86.837  71.443  83.783  0.00  0.00    +0.000 S 
ATOM      4  C   UNL     1      86.010  71.730  85.263  0.00  0.00    +0.000 A 
ATOM      5  C   UNL     1      84.733  72.309  85.414  0.00  0.00    +0.000 A 
ATOM      6  C   UNL     1      84.209  72.475  86.696  0.00  0.00    +0.000 A 
ATOM      7  C   UNL     1      84.936  72.077  87.807  0.00  0.00    +0.000 A 
ATOM      8  C   UNL     1      86.202  71.504  87.652  0.00  0.00    +0.000 A 
ATOM      9  C   UNL     1      86.767  71.315  86.364  0.00  0.00    +0.000 A 
ENDROOT
BRANCH   1  10
ATOM     10  C   UNL     1      89.098  70.220  86.886  0.00  0.00    +0.000 C 
BRANCH  10  14
ATOM     11  C   UNL     1      88.837  65.904  86.901  0.00  0.00    +0.000 A 
ATOM     12  C   UNL     1      89.946  66.529  86.334  0.00  0.00    +0.000 A 
ATOM     13  C   UNL     1      90.033  67.923  86.323  0.00  0.00    +0.000 A 
ATOM     14  C   UNL     1      89.007  68.711  86.870  0.00  0.00    +0.000 A 
ATOM     15  C   UNL     1      87.904  68.064  87.448  0.00  0.00    +0.000 A 
ATOM     16  C   UNL     1      87.818  66.671  87.460  0.00  0.00    +0.000 A 
ENDBRANCH  10  14
ENDBRANCH   1  10
TORSDOF 2
ENDMDL
