MODEL 1
REMARK VINA RESULT:      -4.9      0.000      0.000
REMARK  Name = *****
REMARK  4 active torsions:
REMARK  status: ('A' for Active; 'I' for Inactive)
REMARK    1  A    between atoms: C_1  and  C_2
REMARK    2  A    between atoms: C_5  and  C_8
REMARK    3  A    between atoms: N_9  and  C_10
REMARK    4  A    between atoms: C_13  and  C_16
REMARK                            x       y       z     vdW  Elec       q    Type
REMARK                         _______ _______ _______ _____ _____    ______ ____
ROOT
ATOM      1  C   UNL     1      88.451  66.363  87.374  0.00  0.00    +0.000 A 
ATOM      2  C   UNL     1      89.600  66.545  86.601  0.00  0.00    +0.000 A 
ATOM      3  C   UNL     1      89.965  67.821  86.161  0.00  0.00    +0.000 A 
ATOM      4  C   UNL     1      89.177  68.937  86.486  0.00  0.00    +0.000 A 
ATOM      5  C   UNL     1      88.010  68.744  87.241  0.00  0.00    +0.000 A 
ATOM      6  C   UNL     1      87.652  67.467  87.678  0.00  0.00    +0.000 A 
ENDROOT
BRANCH   4   7
ATOM      7  C   UNL     1      89.557  70.310  85.989  0.00  0.00    +0.000 C 
ATOM      8  F   UNL     1      88.510  70.983  85.433  0.00  0.00    +0.000 F 
ATOM      9  F   UNL     1      90.028  71.111  86.985  0.00  0.00    +0.000 F 
ATOM     10  F   UNL     1      90.530  70.288  85.036  0.00  0.00    +0.000 F 
ENDBRANCH   4   7
BRANCH   1  12
ATOM     11  C   UNL     1      87.141  65.037  88.698  0.00  0.00    +0.000 C 
ATOM     12  N   UNL     1      88.075  65.084  87.801  0.00  0.00    +0.000 NA
BRANCH  11  17
ATOM     13  C   UNL     1      85.196  60.064  90.902  0.00  0.00    +0.000 C 
ATOM     14  C   UNL     1      85.676  61.359  90.315  0.00  0.00    +0.000 A 
ATOM     15  C   UNL     1      86.227  61.388  89.027  0.00  0.00    +0.000 A 
ATOM     16  C   UNL     1      86.704  62.586  88.490  0.00  0.00    +0.000 A 
ATOM     17  C   UNL     1      86.643  63.760  89.242  0.00  0.00    +0.000 A 
ATOM     18  C   UNL     1      86.109  63.740  90.534  0.00  0.00    +0.000 A 
ATOM     19  C   UNL     1      85.633  62.539  91.068  0.00  0.00    +0.000 A 
ENDBRANCH  11  17
ENDBRANCH   1  12
TORSDOF 3
ENDMDL
