REMARK  Name = *****
REMARK  5 active torsions:
REMARK  status: ('A' for Active; 'I' for Inactive)
REMARK    1  A    between atoms: C_1  and  C_2
REMARK    2  A    between atoms: C_5  and  C_8
REMARK    3  A    between atoms: C_8  and  S_10
REMARK    4  A    between atoms: S_10  and  C_11
REMARK    5  A    between atoms: C_16  and  C_17
REMARK                            x       y       z     vdW  Elec       q    Type
REMARK                         _______ _______ _______ _____ _____    ______ ____
ROOT
ATOM      1  C   UNL     1      -3.339   0.350  -0.040  0.00  0.00    +0.000 C 
ATOM      2  O   UNL     1      -4.019  -0.620   0.276  0.00  0.00    +0.000 OA
ENDROOT
BRANCH   1   7
ATOM      3  C   UNL     1       2.451  -0.197   0.143  0.00  0.00    +0.000 C 
ATOM      4  C   UNL     1       0.961  -0.034   0.076  0.00  0.00    +0.000 A 
ATOM      5  C   UNL     1       0.386   1.082  -0.541  0.00  0.00    +0.000 A 
ATOM      6  C   UNL     1      -1.005   1.229  -0.594  0.00  0.00    +0.000 A 
ATOM      7  C   UNL     1      -1.846   0.262  -0.025  0.00  0.00    +0.000 A 
ATOM      8  C   UNL     1      -1.264  -0.861   0.583  0.00  0.00    +0.000 A 
ATOM      9  C   UNL     1       0.125  -1.006   0.635  0.00  0.00    +0.000 A 
ENDBRANCH   1   7
BRANCH   1  10
ATOM     10  S   UNL     1      -4.066   1.896  -0.474  0.00  0.00    +0.000 S 
BRANCH  10  11
ATOM     11  C   UNL     1      -5.699   1.434  -1.045  0.00  0.00    +0.000 A 
ATOM     12  C   UNL     1      -5.823   0.488  -2.075  0.00  0.00    +0.000 A 
ATOM     13  C   UNL     1      -7.075   0.146  -2.588  0.00  0.00    +0.000 A 
ATOM     14  C   UNL     1      -8.219   0.755  -2.086  0.00  0.00    +0.000 A 
ATOM     15  C   UNL     1      -8.113   1.704  -1.070  0.00  0.00    +0.000 A 
ATOM     16  C   UNL     1      -6.859   2.058  -0.540  0.00  0.00    +0.000 A 
ATOM     17  C   UNL     1      -6.805   3.092   0.552  0.00  0.00    +0.000 C 
ENDBRANCH  10  11
ENDBRANCH   1  10
TORSDOF 3
