MODEL 1
REMARK VINA RESULT:      -4.2      0.000      0.000
REMARK  Name = *****
REMARK  3 active torsions:
REMARK  status: ('A' for Active; 'I' for Inactive)
REMARK    1  A    between atoms: C_4  and  C_6
REMARK    2  A    between atoms: C_6  and  N_8
REMARK    3  A    between atoms: N_8  and  C_9
REMARK                            x       y       z     vdW  Elec       q    Type
REMARK                         _______ _______ _______ _____ _____    ______ ____
ROOT
ATOM      1  N   UNL     1      89.207  63.758  87.869  0.00  0.00    +0.000 N 
ATOM      2  H   UNL     1      90.118  63.511  88.149  0.00  0.00    +0.000 HD
ENDROOT
BRANCH   1   3
ATOM      3  C   UNL     1      88.223  63.515  88.855  0.00  0.00    +0.000 A 
ATOM      4  C   UNL     1      88.140  64.155  90.091  0.00  0.00    +0.000 A 
ATOM      5  C   UNL     1      87.106  63.855  90.985  0.00  0.00    +0.000 A 
ATOM      6  C   UNL     1      86.134  62.917  90.648  0.00  0.00    +0.000 A 
ATOM      7  C   UNL     1      86.190  62.284  89.412  0.00  0.00    +0.000 A 
ATOM      8  C   UNL     1      87.223  62.587  88.521  0.00  0.00    +0.000 A 
ENDBRANCH   1   3
BRANCH   1   9
ATOM      9  C   UNL     1      89.142  64.280  86.580  0.00  0.00    +0.000 C 
ATOM     10  S   UNL     1      88.906  63.451  85.140  0.00  0.00    +0.000 S 
BRANCH   9  14
ATOM     11  C   UNL     1      88.499  68.029  86.690  0.00  0.00    +0.000 C 
ATOM     12  C   UNL     1      89.987  67.967  86.351  0.00  0.00    +0.000 C 
ATOM     13  C   UNL     1      90.224  66.507  86.159  0.00  0.00    +0.000 C 
ATOM     14  C   UNL     1      89.200  65.774  86.622  0.00  0.00    +0.000 C 
ATOM     15  C   UNL     1      88.114  66.635  87.187  0.00  0.00    +0.000 C 
ENDBRANCH   9  14
ENDBRANCH   1   9
TORSDOF 3
ENDMDL
