MODEL 1
REMARK VINA RESULT:      -4.7      0.000      0.000
REMARK  Name = *****
REMARK  5 active torsions:
REMARK  status: ('A' for Active; 'I' for Inactive)
REMARK    1  A    between atoms: C_1  and  C_2
REMARK    2  A    between atoms: C_4  and  C_17
REMARK    3  A    between atoms: C_6  and  C_8
REMARK    4  A    between atoms: C_8  and  S_10
REMARK    5  A    between atoms: S_10  and  C_11
REMARK                            x       y       z     vdW  Elec       q    Type
REMARK                         _______ _______ _______ _____ _____    ______ ____
ROOT
ATOM      1  C   UNL     1      87.866  70.691  85.824  0.00  0.00    +0.000 C 
ATOM      2  O   UNL     1      87.924  70.377  84.640  0.00  0.00    +0.000 OA
ENDROOT
BRANCH   1   8
ATOM      3  C   UNL     1      85.290  71.941  89.911  0.00  0.00    +0.000 C 
ATOM      4  C   UNL     1      85.381  71.881  88.415  0.00  0.00    +0.000 A 
ATOM      5  C   UNL     1      84.370  72.431  87.619  0.00  0.00    +0.000 A 
ATOM      6  C   UNL     1      84.457  72.395  86.222  0.00  0.00    +0.000 A 
ATOM      7  C   UNL     1      85.593  71.836  85.618  0.00  0.00    +0.000 A 
ATOM      8  C   UNL     1      86.629  71.301  86.399  0.00  0.00    +0.000 A 
ATOM      9  C   UNL     1      86.509  71.326  87.797  0.00  0.00    +0.000 A 
ATOM     10  C   UNL     1      83.375  73.002  85.378  0.00  0.00    +0.000 C 
ENDBRANCH   1   8
BRANCH   1  11
ATOM     11  S   UNL     1      89.228  70.366  86.884  0.00  0.00    +0.000 S 
BRANCH  11  12
ATOM     12  C   UNL     1      89.126  68.596  86.859  0.00  0.00    +0.000 A 
ATOM     13  C   UNL     1      87.995  67.945  87.339  0.00  0.00    +0.000 A 
ATOM     14  C   UNL     1      87.960  66.554  87.302  0.00  0.00    +0.000 A 
ATOM     15  C   UNL     1      89.051  65.859  86.792  0.00  0.00    +0.000 A 
ATOM     16  C   UNL     1      90.137  66.589  86.339  0.00  0.00    +0.000 A 
ATOM     17  N   UNL     1      90.199  67.939  86.362  0.00  0.00    +0.000 NA
ENDBRANCH  11  12
ENDBRANCH   1  11
TORSDOF 3
ENDMDL
