MODEL 1
REMARK VINA RESULT:      -5.3      0.000      0.000
REMARK  Name = *****
REMARK  5 active torsions:
REMARK  status: ('A' for Active; 'I' for Inactive)
REMARK    1  A    between atoms: C_1  and  C_2
REMARK    2  A    between atoms: C_5  and  C_8
REMARK    3  A    between atoms: C_8  and  O_10
REMARK    4  A    between atoms: O_10  and  C_11
REMARK    5  A    between atoms: C_15  and  C_17
REMARK                            x       y       z     vdW  Elec       q    Type
REMARK                         _______ _______ _______ _____ _____    ______ ____
ROOT
ATOM      1  O   UNL     1     102.741 126.985  82.893  0.00  0.00    +0.000 OA
ENDROOT
BRANCH   1   2
ATOM      2  C   UNL     1     101.421 127.446  82.896  0.00  0.00    +0.000 A 
ATOM      3  C   UNL     1     100.382 126.638  82.437  0.00  0.00    +0.000 A 
ATOM      4  C   UNL     1      99.073 127.109  82.504  0.00  0.00    +0.000 A 
ATOM      5  C   UNL     1      98.809 128.371  83.043  0.00  0.00    +0.000 A 
ATOM      6  C   UNL     1      99.853 129.174  83.535  0.00  0.00    +0.000 A 
ATOM      7  C   UNL     1     101.170 128.698  83.454  0.00  0.00    +0.000 A 
BRANCH   6   8
ATOM      8  C   UNL     1      99.569 130.541  84.105  0.00  0.00    +0.000 C 
ATOM      9  F   UNL     1      99.315 131.477  83.149  0.00  0.00    +0.000 F 
ATOM     10  F   UNL     1      98.487 130.557  84.934  0.00  0.00    +0.000 F 
ATOM     11  F   UNL     1     100.609 131.025  84.838  0.00  0.00    +0.000 F 
ENDBRANCH   6   8
ENDBRANCH   1   2
BRANCH   1  12
ATOM     12  C   UNL     1     103.234 126.645  81.646  0.00  0.00    +0.000 C 
ATOM     13  O   UNL     1     103.255 127.346  80.645  0.00  0.00    +0.000 OA
BRANCH  12  18
ATOM     14  C   UNL     1     105.305 121.223  81.581  0.00  0.00    +0.000 C 
ATOM     15  C   UNL     1     104.794 122.634  81.617  0.00  0.00    +0.000 A 
ATOM     16  C   UNL     1     104.350 123.194  82.821  0.00  0.00    +0.000 A 
ATOM     17  C   UNL     1     103.843 124.497  82.854  0.00  0.00    +0.000 A 
ATOM     18  C   UNL     1     103.764 125.253  81.677  0.00  0.00    +0.000 A 
ATOM     19  C   UNL     1     104.194 124.686  80.470  0.00  0.00    +0.000 A 
ATOM     20  C   UNL     1     104.700 123.384  80.440  0.00  0.00    +0.000 A 
ENDBRANCH  12  18
ENDBRANCH   1  12
TORSDOF 4
ENDMDL
