MODEL 1
REMARK VINA RESULT:      -4.9      0.000      0.000
REMARK  Name = *****
REMARK  4 active torsions:
REMARK  status: ('A' for Active; 'I' for Inactive)
REMARK    1  A    between atoms: C_1  and  C_2
REMARK    2  A    between atoms: C_2  and  C_4
REMARK    3  A    between atoms: C_7  and  C_10
REMARK    4  A    between atoms: C_11  and  C_12
REMARK                            x       y       z     vdW  Elec       q    Type
REMARK                         _______ _______ _______ _____ _____    ______ ____
ROOT
ATOM      1  C   UNL     1     105.949 122.544  81.107  0.00  0.00    +0.000 A 
ATOM      2  C   UNL     1     105.467 123.424  80.130  0.00  0.00    +0.000 A 
ATOM      3  C   UNL     1     104.457 124.342  80.448  0.00  0.00    +0.000 A 
ATOM      4  C   UNL     1     103.925 124.385  81.738  0.00  0.00    +0.000 A 
ATOM      5  C   UNL     1     104.403 123.511  82.715  0.00  0.00    +0.000 A 
ATOM      6  C   UNL     1     105.411 122.595  82.401  0.00  0.00    +0.000 A 
ENDROOT
BRANCH   1   8
ATOM      7  C   UNL     1     106.996 120.221  81.537  0.00  0.00    +0.000 C 
ATOM      8  C   UNL     1     107.022 121.545  80.822  0.00  0.00    +0.000 C 
ATOM      9  O   UNL     1     107.907 121.813  80.012  0.00  0.00    +0.000 OA
ENDBRANCH   1   8
BRANCH   4  10
ATOM     10  C   UNL     1     102.891 125.321  82.056  0.00  0.00    +0.000 C 
ATOM     11  C   UNL     1     102.023 126.106  82.326  0.00  0.00    +0.000 C 
BRANCH  11  12
ATOM     12  C   UNL     1     100.989 127.037  82.654  0.00  0.00    +0.000 A 
ATOM     13  C   UNL     1     101.304 128.233  83.305  0.00  0.00    +0.000 A 
ATOM     14  C   UNL     1     100.293 129.141  83.626  0.00  0.00    +0.000 A 
ATOM     15  C   UNL     1      98.969 128.856  83.297  0.00  0.00    +0.000 A 
ATOM     16  C   UNL     1      98.651 127.662  82.648  0.00  0.00    +0.000 A 
ATOM     17  C   UNL     1      99.661 126.753  82.325  0.00  0.00    +0.000 A 
ENDBRANCH  11  12
ENDBRANCH   4  10
TORSDOF 3
ENDMDL
