MODEL 1
REMARK VINA RESULT:      -3.8      0.000      0.000
REMARK  Name = *****
REMARK  4 active torsions:
REMARK  status: ('A' for Active; 'I' for Inactive)
REMARK    1  A    between atoms: C_4  and  C_7
REMARK    2  A    between atoms: C_7  and  S_8
REMARK    3  A    between atoms: S_8  and  S_9
REMARK    4  A    between atoms: S_9  and  C_12
REMARK                            x       y       z     vdW  Elec       q    Type
REMARK                         _______ _______ _______ _____ _____    ______ ____
ROOT
ATOM      1  S   UNL     1      88.170  65.362  87.218  0.00  0.00    +0.000 S 
ATOM      2  O   UNL     1      89.169  64.432  86.732  0.00  0.00    +0.000 OA
ATOM      3  O   UNL     1      88.366  66.793  87.105  0.00  0.00    +0.000 OA
ENDROOT
BRANCH   1   4
ATOM      4  C   UNL     1      87.847  64.981  88.921  0.00  0.00    +0.000 A 
ATOM      5  C   UNL     1      86.684  65.467  89.528  0.00  0.00    +0.000 A 
ATOM      6  C   UNL     1      86.423  65.150  90.860  0.00  0.00    +0.000 A 
ATOM      7  C   UNL     1      87.312  64.344  91.575  0.00  0.00    +0.000 A 
ATOM      8  C   UNL     1      88.463  63.850  90.960  0.00  0.00    +0.000 A 
ATOM      9  C   UNL     1      88.734  64.163  89.628  0.00  0.00    +0.000 A 
ENDBRANCH   1   4
BRANCH   1  10
ATOM     10  S   UNL     1      86.377  64.902  86.274  0.00  0.00    +0.000 S 
BRANCH  10  11
ATOM     11  C   UNL     1      86.425  63.101  86.417  0.00  0.00    +0.000 C 
BRANCH  11  15
ATOM     12  C   UNL     1      84.358  61.751  89.953  0.00  0.00    +0.000 A 
ATOM     13  C   UNL     1      83.718  62.600  89.054  0.00  0.00    +0.000 A 
ATOM     14  C   UNL     1      84.385  63.037  87.907  0.00  0.00    +0.000 A 
ATOM     15  C   UNL     1      85.699  62.620  87.647  0.00  0.00    +0.000 A 
ATOM     16  C   UNL     1      86.336  61.771  88.565  0.00  0.00    +0.000 A 
ATOM     17  C   UNL     1      85.666  61.338  89.710  0.00  0.00    +0.000 A 
ENDBRANCH  11  15
ENDBRANCH  10  11
ENDBRANCH   1  10
TORSDOF 4
ENDMDL
