MODEL 1
REMARK VINA RESULT:      -4.3      0.000      0.000
REMARK  Name = *****
REMARK  4 active torsions:
REMARK  status: ('A' for Active; 'I' for Inactive)
REMARK    1  A    between atoms: C_1  and  O_2
REMARK    2  A    between atoms: O_2  and  C_3
REMARK    3  A    between atoms: C_6  and  C_8
REMARK    4  A    between atoms: C_9  and  C_10
REMARK                            x       y       z     vdW  Elec       q    Type
REMARK                         _______ _______ _______ _____ _____    ______ ____
ROOT
ATOM      1  C   UNL     1     102.901 126.077  81.321  0.00  0.00    +0.000 C 
ATOM      2  C   UNL     1     102.062 125.941  82.361  0.00  0.00    +0.000 C 
ENDROOT
BRANCH   2   3
ATOM      3  C   UNL     1     101.046 126.942  82.718  0.00  0.00    +0.000 A 
ATOM      4  C   UNL     1     101.377 128.154  83.339  0.00  0.00    +0.000 A 
ATOM      5  C   UNL     1     100.387 129.095  83.635  0.00  0.00    +0.000 A 
ATOM      6  C   UNL     1      99.058 128.839  83.301  0.00  0.00    +0.000 A 
ATOM      7  C   UNL     1      98.720 127.645  82.668  0.00  0.00    +0.000 A 
ATOM      8  C   UNL     1      99.709 126.705  82.372  0.00  0.00    +0.000 A 
ENDBRANCH   2   3
BRANCH   1  12
ATOM      9  C   UNL     1     105.828 123.947  79.900  0.00  0.00    +0.000 A 
ATOM     10  C   UNL     1     105.213 123.169  80.860  0.00  0.00    +0.000 A 
ATOM     11  C   UNL     1     104.106 123.820  81.481  0.00  0.00    +0.000 A 
ATOM     12  C   UNL     1     103.882 125.094  80.992  0.00  0.00    +0.000 A 
ATOM     13  S   UNL     1     105.045 125.466  79.775  0.00  0.00    +0.000 S 
BRANCH   9  15
ATOM     14  C   UNL     1     107.097 124.632  78.046  0.00  0.00    +0.000 C 
ATOM     15  O   UNL     1     106.878 123.709  79.103  0.00  0.00    +0.000 OA
ENDBRANCH   9  15
ENDBRANCH   1  12
TORSDOF 3
ENDMDL
