MODEL 1
REMARK VINA RESULT:      -4.4      0.000      0.000
REMARK  Name = *****
REMARK  6 active torsions:
REMARK  status: ('A' for Active; 'I' for Inactive)
REMARK    1  A    between atoms: C_1  and  N_2
REMARK    2  A    between atoms: N_2  and  C_3
REMARK    3  A    between atoms: N_2  and  C_4
REMARK    4  A    between atoms: C_9  and  C_10
REMARK    5  A    between atoms: C_10  and  C_11
REMARK    6  A    between atoms: C_11  and  C_12
REMARK                            x       y       z     vdW  Elec       q    Type
REMARK                         _______ _______ _______ _____ _____    ______ ____
ROOT
ATOM      1  C   UNL     1      89.705  69.639  84.864  0.00  0.00    +0.000 A 
ATOM      2  C   UNL     1      89.906  68.504  84.060  0.00  0.00    +0.000 A 
ATOM      3  C   UNL     1      89.932  67.221  84.612  0.00  0.00    +0.000 A 
ATOM      4  C   UNL     1      89.760  67.051  85.981  0.00  0.00    +0.000 A 
ATOM      5  C   UNL     1      89.566  68.162  86.798  0.00  0.00    +0.000 A 
ATOM      6  C   UNL     1      89.543  69.460  86.256  0.00  0.00    +0.000 A 
ENDROOT
BRANCH   1   8
ATOM      7  C   UNL     1      88.588  71.186  83.388  0.00  0.00    +0.000 C 
ATOM      8  N   UNL     1      89.688  70.946  84.325  0.00  0.00    +0.000 N 
ATOM      9  C   UNL     1      91.008  71.317  83.807  0.00  0.00    +0.000 C 
ENDBRANCH   1   8
BRANCH   6  10
ATOM     10  C   UNL     1      89.302  70.634  87.182  0.00  0.00    +0.000 C 
BRANCH  10  11
ATOM     11  C   UNL     1      88.197  70.337  88.200  0.00  0.00    +0.000 C 
BRANCH  11  12
ATOM     12  C   UNL     1      86.908  71.041  87.847  0.00  0.00    +0.000 A 
ATOM     13  C   UNL     1      86.577  71.274  86.505  0.00  0.00    +0.000 A 
ATOM     14  C   UNL     1      85.395  71.938  86.174  0.00  0.00    +0.000 A 
ATOM     15  C   UNL     1      84.537  72.379  87.180  0.00  0.00    +0.000 A 
ATOM     16  C   UNL     1      84.860  72.156  88.517  0.00  0.00    +0.000 A 
ATOM     17  C   UNL     1      86.042  71.492  88.851  0.00  0.00    +0.000 A 
ENDBRANCH  11  12
ENDBRANCH  10  11
ENDBRANCH   6  10
TORSDOF 4
ENDMDL
