MODEL 1
REMARK VINA RESULT:      -5.0      0.000      0.000
REMARK  Name = *****
REMARK  2 active torsions:
REMARK  status: ('A' for Active; 'I' for Inactive)
REMARK    1  A    between atoms: C_3  and  C_8
REMARK    2  A    between atoms: C_9  and  C_10
REMARK                            x       y       z     vdW  Elec       q    Type
REMARK                         _______ _______ _______ _____ _____    ______ ____
ROOT
ATOM      1  C   UNL     1     102.956 125.705  81.739  0.00  0.00    +0.000 C 
ATOM      2  C   UNL     1     102.171 126.479  82.215  0.00  0.00    +0.000 C 
ENDROOT
BRANCH   2   3
ATOM      3  C   UNL     1     101.241 127.405  82.784  0.00  0.00    +0.000 A 
ATOM      4  C   UNL     1      99.865 127.232  82.609  0.00  0.00    +0.000 A 
ATOM      5  C   UNL     1      98.954 128.128  83.158  0.00  0.00    +0.000 A 
ATOM      6  C   UNL     1      99.433 129.206  83.890  0.00  0.00    +0.000 A 
ATOM      7  C   UNL     1     100.798 129.400  84.079  0.00  0.00    +0.000 A 
ATOM      8  C   UNL     1     101.708 128.496  83.524  0.00  0.00    +0.000 A 
ATOM      9  F   UNL     1      98.565 130.076  84.424  0.00  0.00    +0.000 F 
ATOM     10  F   UNL     1      99.396 126.193  81.901  0.00  0.00    +0.000 F 
ENDBRANCH   2   3
BRANCH   1  13
ATOM     11  C   UNL     1     105.090 122.685  81.262  0.00  0.00    +0.000 A 
ATOM     12  C   UNL     1     104.168 123.578  81.812  0.00  0.00    +0.000 A 
ATOM     13  C   UNL     1     103.899 124.791  81.172  0.00  0.00    +0.000 A 
ATOM     14  C   UNL     1     104.551 125.112  79.980  0.00  0.00    +0.000 A 
ATOM     15  C   UNL     1     105.470 124.216  79.435  0.00  0.00    +0.000 A 
ATOM     16  C   UNL     1     105.744 123.004  80.072  0.00  0.00    +0.000 A 
ATOM     17 CL   UNL     1     106.277 124.607  77.967  0.00  0.00    +0.000 Cl
ENDBRANCH   1  13
TORSDOF 2
ENDMDL
