MODEL 1
REMARK VINA RESULT:      -4.2      0.000      0.000
REMARK  Name = *****
REMARK  5 active torsions:
REMARK  status: ('A' for Active; 'I' for Inactive)
REMARK    1  A    between atoms: C_1  and  O_2
REMARK    2  A    between atoms: O_2  and  C_3
REMARK    3  A    between atoms: C_8  and  O_9
REMARK    4  A    between atoms: O_9  and  P_10
REMARK    5  A    between atoms: P_10  and  C_11
REMARK                            x       y       z     vdW  Elec       q    Type
REMARK                         _______ _______ _______ _____ _____    ______ ____
ROOT
ATOM      1  O   UNL     1      87.897  68.817  87.688  0.00  0.00    +0.000 OA
ENDROOT
BRANCH   1   7
ATOM      2  C   UNL     1      88.074  66.340  87.395  0.00  0.00    +0.000 A 
ATOM      3  C   UNL     1      88.817  65.314  86.790  0.00  0.00    +0.000 A 
ATOM      4  C   UNL     1      89.947  65.598  86.017  0.00  0.00    +0.000 A 
ATOM      5  C   UNL     1      90.346  66.915  85.829  0.00  0.00    +0.000 A 
ATOM      6  C   UNL     1      89.612  67.944  86.413  0.00  0.00    +0.000 A 
ATOM      7  C   UNL     1      88.475  67.674  87.193  0.00  0.00    +0.000 A 
BRANCH   2   9
ATOM      8  C   UNL     1      87.068  65.165  89.216  0.00  0.00    +0.000 C 
ATOM      9  O   UNL     1      86.960  66.101  88.153  0.00  0.00    +0.000 OA
ENDBRANCH   2   9
ENDBRANCH   1   7
BRANCH   1  10
ATOM     10  P   UNL     1      88.385  70.346  87.561  0.00  0.00    +0.000 P 
ATOM     11 BR   UNL     1      88.362  70.859  89.685  0.00  0.00    +0.000 Br
BRANCH  10  12
ATOM     12  C   UNL     1      86.821  71.160  87.068  0.00  0.00    +0.000 A 
ATOM     13  C   UNL     1      86.483  71.425  85.732  0.00  0.00    +0.000 A 
ATOM     14  C   UNL     1      85.279  72.058  85.407  0.00  0.00    +0.000 A 
ATOM     15  C   UNL     1      84.395  72.437  86.414  0.00  0.00    +0.000 A 
ATOM     16  C   UNL     1      84.713  72.184  87.746  0.00  0.00    +0.000 A 
ATOM     17  C   UNL     1      85.916  71.553  88.071  0.00  0.00    +0.000 A 
ENDBRANCH  10  12
ENDBRANCH   1  10
TORSDOF 4
ENDMDL
