MODEL 1
REMARK VINA RESULT:      -4.5      0.000      0.000
REMARK  Name = *****
REMARK  4 active torsions:
REMARK  status: ('A' for Active; 'I' for Inactive)
REMARK    1  A    between atoms: C_1  and  N_2
REMARK    2  A    between atoms: N_2  and  C_3
REMARK    3  A    between atoms: N_2  and  C_10
REMARK    4  A    between atoms: C_3  and  C_4
REMARK                            x       y       z     vdW  Elec       q    Type
REMARK                         _______ _______ _______ _____ _____    ______ ____
ROOT
ATOM      1  C   UNL     1     103.668 127.400  80.531  0.00  0.00    +0.000 C 
ATOM      2  N   UNL     1     103.287 126.490  81.607  0.00  0.00    +0.000 N 
ENDROOT
BRANCH   2   3
ATOM      3  C   UNL     1     103.778 125.183  81.629  0.00  0.00    +0.000 A 
ATOM      4  C   UNL     1     103.871 124.432  82.814  0.00  0.00    +0.000 A 
ATOM      5  C   UNL     1     104.378 123.127  82.821  0.00  0.00    +0.000 A 
ATOM      6  C   UNL     1     104.820 122.530  81.649  0.00  0.00    +0.000 A 
ATOM      7  C   UNL     1     104.758 123.249  80.463  0.00  0.00    +0.000 A 
ATOM      8  C   UNL     1     104.248 124.554  80.460  0.00  0.00    +0.000 A 
ATOM      9 CL   UNL     1     104.452 122.250  84.302  0.00  0.00    +0.000 Cl
ENDBRANCH   2   3
BRANCH   2  10
ATOM     10  C   UNL     1     102.868 127.131  82.865  0.00  0.00    +0.000 C 
BRANCH  10  11
ATOM     11  C   UNL     1     101.386 127.451  82.919  0.00  0.00    +0.000 A 
ATOM     12  C   UNL     1     100.974 128.676  83.468  0.00  0.00    +0.000 A 
ATOM     13  C   UNL     1      99.621 129.024  83.508  0.00  0.00    +0.000 A 
ATOM     14  C   UNL     1      98.663 128.155  82.991  0.00  0.00    +0.000 A 
ATOM     15  C   UNL     1      99.056 126.942  82.432  0.00  0.00    +0.000 A 
ATOM     16  C   UNL     1     100.408 126.594  82.392  0.00  0.00    +0.000 A 
ENDBRANCH  10  11
ENDBRANCH   2  10
TORSDOF 3
ENDMDL
