MODEL 1
REMARK VINA RESULT:      -4.3      0.000      0.000
REMARK  Name = *****
REMARK  5 active torsions:
REMARK  status: ('A' for Active; 'I' for Inactive)
REMARK    1  A    between atoms: C_1  and  O_2
REMARK    2  A    between atoms: O_2  and  C_3
REMARK    3  A    between atoms: C_6  and  C_9
REMARK    4  A    between atoms: C_9  and  S_10
REMARK    5  A    between atoms: S_10  and  C_11
REMARK                            x       y       z     vdW  Elec       q    Type
REMARK                         _______ _______ _______ _____ _____    ______ ____
ROOT
ATOM      1  C   UNL     1     103.475 127.472  81.464  0.00  0.00    +0.000 C 
ENDROOT
BRANCH   1   5
ATOM      2  C   UNL     1     104.938 123.477  80.661  0.00  0.00    +0.000 A 
ATOM      3  C   UNL     1     105.076 124.482  79.704  0.00  0.00    +0.000 A 
ATOM      4  C   UNL     1     104.606 125.774  79.966  0.00  0.00    +0.000 A 
ATOM      5  C   UNL     1     103.994 126.080  81.189  0.00  0.00    +0.000 A 
ATOM      6  C   UNL     1     103.849 125.065  82.142  0.00  0.00    +0.000 A 
ATOM      7  C   UNL     1     104.321 123.777  81.878  0.00  0.00    +0.000 A 
BRANCH   2   9
ATOM      8  C   UNL     1     104.507 121.180  81.091  0.00  0.00    +0.000 C 
ATOM      9  O   UNL     1     105.351 122.180  80.534  0.00  0.00    +0.000 OA
ENDBRANCH   2   9
ENDBRANCH   1   5
BRANCH   1  10
ATOM     10  S   UNL     1     103.004 127.663  83.216  0.00  0.00    +0.000 S 
BRANCH  10  11
ATOM     11  C   UNL     1     101.224 127.803  83.107  0.00  0.00    +0.000 A 
ATOM     12  C   UNL     1     100.531 126.725  82.538  0.00  0.00    +0.000 A 
ATOM     13  C   UNL     1      99.140 126.759  82.403  0.00  0.00    +0.000 A 
ATOM     14  C   UNL     1      98.423 127.876  82.827  0.00  0.00    +0.000 A 
ATOM     15  C   UNL     1      99.099 128.960  83.381  0.00  0.00    +0.000 A 
ATOM     16  C   UNL     1     100.487 128.921  83.512  0.00  0.00    +0.000 A 
ATOM     17  F   UNL     1     101.094 129.998  84.032  0.00  0.00    +0.000 F 
ENDBRANCH  10  11
ENDBRANCH   1  10
TORSDOF 4
ENDMDL
