MODEL 1
REMARK VINA RESULT:      -4.4      0.000      0.000
REMARK  Name = *****
REMARK  2 active torsions:
REMARK  status: ('A' for Active; 'I' for Inactive)
REMARK    1  A    between atoms: N_6  and  C_9
REMARK    2  A    between atoms: C_10  and  C_11
REMARK                            x       y       z     vdW  Elec       q    Type
REMARK                         _______ _______ _______ _____ _____    ______ ____
ROOT
ATOM      1  C   UNL     1      98.519 128.266  83.023  0.00  0.00    +0.000 C 
ATOM      2  C   UNL     1      99.474 129.433  83.265  0.00  0.00    +0.000 C 
ATOM      3  C   UNL     1     100.552 129.133  84.309  0.00  0.00    +0.000 C 
ATOM      4  C   UNL     1     101.786 128.469  83.684  0.00  0.00    +0.000 C 
ATOM      5  S   UNL     1     103.249 129.314  83.790  0.00  0.00    +0.000 S 
ATOM      6  N   UNL     1     101.583 127.224  83.046  0.00  0.00    +0.000 N 
ATOM      7  C   UNL     1     100.326 126.491  83.285  0.00  0.00    +0.000 C 
ATOM      8  C   UNL     1      99.177 127.022  82.432  0.00  0.00    +0.000 C 
ENDROOT
BRANCH   6   9
ATOM      9  C   UNL     1     102.538 126.684  82.170  0.00  0.00    +0.000 C 
ATOM     10  C   UNL     1     102.954 125.408  82.108  0.00  0.00    +0.000 C 
BRANCH  10  11
ATOM     11  C   UNL     1     103.956 124.935  81.137  0.00  0.00    +0.000 A 
ATOM     12  C   UNL     1     104.565 125.794  80.211  0.00  0.00    +0.000 A 
ATOM     13  C   UNL     1     105.536 125.314  79.329  0.00  0.00    +0.000 A 
ATOM     14  C   UNL     1     105.917 123.976  79.370  0.00  0.00    +0.000 A 
ATOM     15  C   UNL     1     105.332 123.115  80.297  0.00  0.00    +0.000 A 
ATOM     16  C   UNL     1     104.361 123.595  81.180  0.00  0.00    +0.000 A 
ENDBRANCH  10  11
ENDBRANCH   6   9
TORSDOF 2
ENDMDL
