MODEL 1
REMARK VINA RESULT:      -4.7      0.000      0.000
REMARK  Name = *****
REMARK  2 active torsions:
REMARK  status: ('A' for Active; 'I' for Inactive)
REMARK    1  A    between atoms: C_4  and  C_7
REMARK    2  A    between atoms: C_7  and  N_8
REMARK                            x       y       z     vdW  Elec       q    Type
REMARK                         _______ _______ _______ _____ _____    ______ ____
ROOT
ATOM      1  N   UNL     1      88.142  65.139  86.759  0.00  0.00    +0.000 N 
ATOM      2  C   UNL     1      89.336  64.794  86.124  0.00  0.00    +0.000 A 
ATOM      3  C   UNL     1      89.708  63.539  85.658  0.00  0.00    +0.000 A 
ATOM      4  C   UNL     1      90.946  63.369  85.018  0.00  0.00    +0.000 A 
ATOM      5  C   UNL     1      91.815  64.451  84.833  0.00  0.00    +0.000 A 
ATOM      6  C   UNL     1      91.455  65.719  85.279  0.00  0.00    +0.000 A 
ATOM      7  C   UNL     1      90.224  65.861  85.909  0.00  0.00    +0.000 A 
ATOM      8  C   UNL     1      89.688  67.117  86.439  0.00  0.00    +0.000 A 
ATOM      9  O   UNL     1      90.232  68.207  86.399  0.00  0.00    +0.000 OA
ATOM     10  S   UNL     1      88.105  66.783  87.150  0.00  0.00    +0.000 S 
ENDROOT
BRANCH   1  11
ATOM     11  C   UNL     1      87.320  64.183  87.498  0.00  0.00    +0.000 C 
BRANCH  11  15
ATOM     12  C   UNL     1      88.062  64.234  91.761  0.00  0.00    +0.000 A 
ATOM     13  C   UNL     1      86.816  64.608  91.263  0.00  0.00    +0.000 A 
ATOM     14  C   UNL     1      86.579  64.589  89.888  0.00  0.00    +0.000 A 
ATOM     15  C   UNL     1      87.585  64.194  88.992  0.00  0.00    +0.000 A 
ATOM     16  C   UNL     1      88.833  63.819  89.508  0.00  0.00    +0.000 A 
ATOM     17  C   UNL     1      89.070  63.839  90.884  0.00  0.00    +0.000 A 
ENDBRANCH  11  15
ENDBRANCH   1  11
TORSDOF 2
ENDMDL
