REMARK  Name = *****
REMARK  7 active torsions:
REMARK  status: ('A' for Active; 'I' for Inactive)
REMARK    1  A    between atoms: C_1  and  C_2
REMARK    2  A    between atoms: C_2  and  O_3
REMARK    3  A    between atoms: O_3  and  P_4
REMARK    4  A    between atoms: P_4  and  O_5
REMARK    5  A    between atoms: P_4  and  O_12
REMARK    6  A    between atoms: O_5  and  C_6
REMARK    7  A    between atoms: O_12  and  C_13
REMARK                            x       y       z     vdW  Elec       q    Type
REMARK                         _______ _______ _______ _____ _____    ______ ____
ROOT
ATOM      1  P   UNL     1       4.460   0.068   1.022  0.00  0.00    +0.000 P 
ENDROOT
BRANCH   1   2
ATOM      2  O   UNL     1       2.939   0.622   1.025  0.00  0.00    +0.000 OA
BRANCH   2   4
ATOM      3  C   UNL     1       0.677   0.655   0.280  0.00  0.00    +0.000 C 
ATOM      4  C   UNL     1       2.045   0.027   0.090  0.00  0.00    +0.000 C 
ENDBRANCH   2   4
ENDBRANCH   1   2
BRANCH   1   5
ATOM      5  O   UNL     1       4.980   0.872  -0.284  0.00  0.00    +0.000 OA
BRANCH   5   6
ATOM      6  C   UNL     1       6.369   0.790  -0.609  0.00  0.00    +0.000 C 
ATOM      7  C   UNL     1       6.804   2.169  -1.119  0.00  0.00    +0.000 C 
ATOM      8  C   UNL     1       8.244   2.159  -1.622  0.00  0.00    +0.000 C 
ATOM      9  C   UNL     1       8.458   1.087  -2.687  0.00  0.00    +0.000 C 
ATOM     10  C   UNL     1       8.019  -0.290  -2.197  0.00  0.00    +0.000 C 
ATOM     11  C   UNL     1       6.580  -0.274  -1.693  0.00  0.00    +0.000 C 
ENDBRANCH   5   6
ENDBRANCH   1   5
BRANCH   1  12
ATOM     12  O   UNL     1       5.056   1.073   2.143  0.00  0.00    +0.000 OA
BRANCH  12  13
ATOM     13  C   UNL     1       4.768   0.789   3.513  0.00  0.00    +0.000 C 
ATOM     14  C   UNL     1       4.573   2.130   4.229  0.00  0.00    +0.000 C 
ATOM     15  C   UNL     1       4.389   1.950   5.732  0.00  0.00    +0.000 C 
ATOM     16  C   UNL     1       5.544   1.163   6.347  0.00  0.00    +0.000 C 
ATOM     17  C   UNL     1       5.758  -0.171   5.637  0.00  0.00    +0.000 C 
ATOM     18  C   UNL     1       5.938   0.015   4.134  0.00  0.00    +0.000 C 
ENDBRANCH  12  13
ENDBRANCH   1  12
TORSDOF 6
