MODEL 1
REMARK VINA RESULT:      -4.7      0.000      0.000
REMARK  Name = *****
REMARK  7 active torsions:
REMARK  status: ('A' for Active; 'I' for Inactive)
REMARK    1  A    between atoms: C_1  and  C_2
REMARK    2  A    between atoms: C_4  and  C_17
REMARK    3  A    between atoms: C_5  and  C_9
REMARK    4  A    between atoms: C_7  and  C_8
REMARK    5  A    between atoms: C_10  and  C_11
REMARK    6  A    between atoms: C_17  and  O_18
REMARK    7  A    between atoms: O_18  and  C_19
REMARK                            x       y       z     vdW  Elec       q    Type
REMARK                         _______ _______ _______ _____ _____    ______ ____
ROOT
ATOM      1  C   UNL     1      89.674  70.756  85.664  0.00  0.00    +0.000 C 
ATOM      2  C   UNL     1      89.154  69.499  86.307  0.00  0.00    +0.000 A 
ATOM      3  C   UNL     1      89.725  68.263  85.956  0.00  0.00    +0.000 A 
ATOM      4  C   UNL     1      89.292  67.054  86.532  0.00  0.00    +0.000 A 
ATOM      5  C   UNL     1      88.235  67.100  87.455  0.00  0.00    +0.000 A 
ATOM      6  C   UNL     1      87.666  68.328  87.817  0.00  0.00    +0.000 A 
ATOM      7  C   UNL     1      88.122  69.534  87.260  0.00  0.00    +0.000 A 
ATOM      8  C   UNL     1      87.484  70.829  87.683  0.00  0.00    +0.000 C 
ENDROOT
BRANCH   5   9
ATOM      9  C   UNL     1      87.703  65.907  88.050  0.00  0.00    +0.000 C 
ATOM     10  C   UNL     1      87.253  64.917  88.560  0.00  0.00    +0.000 C 
BRANCH  10  11
ATOM     11  C   UNL     1      86.707  63.751  89.182  0.00  0.00    +0.000 A 
ATOM     12  C   UNL     1      86.197  63.827  90.481  0.00  0.00    +0.000 A 
ATOM     13  C   UNL     1      85.662  62.689  91.089  0.00  0.00    +0.000 A 
ATOM     14  C   UNL     1      85.635  61.477  90.400  0.00  0.00    +0.000 A 
ATOM     15  C   UNL     1      86.144  61.399  89.103  0.00  0.00    +0.000 A 
ATOM     16  C   UNL     1      86.679  62.536  88.493  0.00  0.00    +0.000 A 
ENDBRANCH  10  11
ENDBRANCH   5   9
BRANCH   4  17
ATOM     17  C   UNL     1      89.912  65.744  86.096  0.00  0.00    +0.000 C 
BRANCH  17  18
ATOM     18  O   UNL     1      91.250  65.945  85.634  0.00  0.00    +0.000 OA
ATOM     19  C   UNL     1      91.756  64.786  84.985  0.00  0.00    +0.000 C 
ENDBRANCH  17  18
ENDBRANCH   4  17
TORSDOF 4
ENDMDL
