MODEL 1
REMARK VINA RESULT:      -4.5      0.000      0.000
REMARK  Name = *****
REMARK  5 active torsions:
REMARK  status: ('A' for Active; 'I' for Inactive)
REMARK    1  A    between atoms: C_1  and  C_2
REMARK    2  A    between atoms: C_3  and  O_9
REMARK    3  A    between atoms: C_4  and  C_8
REMARK    4  A    between atoms: O_9  and  C_10
REMARK    5  A    between atoms: C_10  and  C_12
REMARK                            x       y       z     vdW  Elec       q    Type
REMARK                         _______ _______ _______ _____ _____    ______ ____
ROOT
ATOM      1  O   UNL     1     101.790 126.875  82.327  0.00  0.00    +0.000 OA
ENDROOT
BRANCH   1   4
ATOM      2  C   UNL     1     103.426 128.861  83.605  0.00  0.00    +0.000 C 
ATOM      3  C   UNL     1     101.928 128.875  83.679  0.00  0.00    +0.000 A 
ATOM      4  C   UNL     1     101.152 127.874  83.075  0.00  0.00    +0.000 A 
ATOM      5  C   UNL     1      99.749 127.887  83.126  0.00  0.00    +0.000 A 
ATOM      6  C   UNL     1      99.121 128.903  83.857  0.00  0.00    +0.000 A 
ATOM      7  C   UNL     1      99.878 129.888  84.493  0.00  0.00    +0.000 A 
ATOM      8  C   UNL     1     101.271 129.875  84.405  0.00  0.00    +0.000 A 
ATOM      9  C   UNL     1      98.931 126.824  82.455  0.00  0.00    +0.000 C 
ENDBRANCH   1   4
BRANCH   1  10
ATOM     10  C   UNL     1     102.354 125.869  83.109  0.00  0.00    +0.000 C 
ATOM     11  O   UNL     1     101.944 125.465  84.188  0.00  0.00    +0.000 OA
BRANCH  10  12
ATOM     12  C   UNL     1     103.574 125.325  82.383  0.00  0.00    +0.000 C 
ATOM     13  C   UNL     1     103.336 125.368  80.871  0.00  0.00    +0.000 C 
ATOM     14  C   UNL     1     104.508 124.768  80.098  0.00  0.00    +0.000 C 
ATOM     15  C   UNL     1     104.837 123.356  80.576  0.00  0.00    +0.000 C 
ATOM     16  C   UNL     1     105.078 123.313  82.082  0.00  0.00    +0.000 C 
ATOM     17  C   UNL     1     103.900 123.902  82.854  0.00  0.00    +0.000 C 
ENDBRANCH  10  12
ENDBRANCH   1  10
TORSDOF 3
ENDMDL
