MODEL 1
REMARK VINA RESULT:      -4.6      0.000      0.000
REMARK  Name = *****
REMARK  2 active torsions:
REMARK  status: ('A' for Active; 'I' for Inactive)
REMARK    1  A    between atoms: C_4  and  C_7
REMARK    2  A    between atoms: C_8  and  C_9
REMARK                            x       y       z     vdW  Elec       q    Type
REMARK                         _______ _______ _______ _____ _____    ______ ____
ROOT
ATOM      1  C   UNL     1     102.131 126.292  81.920  0.00  0.00    +0.000 C 
ATOM      2  C   UNL     1     103.005 125.636  81.422  0.00  0.00    +0.000 C 
ENDROOT
BRANCH   1   6
ATOM      3  C   UNL     1      99.051 128.857  83.562  0.00  0.00    +0.000 C 
ATOM      4  C   UNL     1      98.673 127.484  82.976  0.00  0.00    +0.000 C 
ATOM      5  C   UNL     1      99.808 126.713  82.362  0.00  0.00    +0.000 C 
ATOM      6  C   UNL     1     101.094 127.070  82.509  0.00  0.00    +0.000 C 
ATOM      7  C   UNL     1     101.449 128.234  83.293  0.00  0.00    +0.000 C 
ATOM      8  C   UNL     1     100.521 129.069  83.783  0.00  0.00    +0.000 C 
ENDBRANCH   1   6
BRANCH   2   9
ATOM      9  C   UNL     1     104.047 124.856  80.828  0.00  0.00    +0.000 A 
ATOM     10  C   UNL     1     104.801 125.381  79.776  0.00  0.00    +0.000 A 
ATOM     11  C   UNL     1     105.817 124.619  79.196  0.00  0.00    +0.000 A 
ATOM     12  C   UNL     1     106.080 123.332  79.667  0.00  0.00    +0.000 A 
ATOM     13  C   UNL     1     105.328 122.806  80.717  0.00  0.00    +0.000 A 
ATOM     14  C   UNL     1     104.311 123.568  81.299  0.00  0.00    +0.000 A 
ENDBRANCH   2   9
TORSDOF 2
ENDMDL
