MODEL 1
REMARK VINA RESULT:      -4.5      0.000      0.000
REMARK  Name = *****
REMARK  4 active torsions:
REMARK  status: ('A' for Active; 'I' for Inactive)
REMARK    1  A    between atoms: C_5  and  C_7
REMARK    2  A    between atoms: C_5  and  S_16
REMARK    3  A    between atoms: C_7  and  C_8
REMARK    4  A    between atoms: C_9  and  C_10
REMARK                            x       y       z     vdW  Elec       q    Type
REMARK                         _______ _______ _______ _____ _____    ______ ____
ROOT
ATOM      1  C   UNL     1      88.911  64.662  87.190  0.00  0.00    +0.000 C 
ENDROOT
BRANCH   1   6
ATOM      2  C   UNL     1      86.292  65.069  90.085  0.00  0.00    +0.000 C 
ATOM      3  C   UNL     1      87.296  64.786  91.204  0.00  0.00    +0.000 C 
ATOM      4  C   UNL     1      88.414  63.883  90.779  0.00  0.00    +0.000 C 
ATOM      5  C   UNL     1      88.694  63.604  89.497  0.00  0.00    +0.000 C 
ATOM      6  C   UNL     1      87.945  64.197  88.318  0.00  0.00    +0.000 C 
ATOM      7  C   UNL     1      86.998  65.345  88.756  0.00  0.00    +0.000 C 
BRANCH   6   8
ATOM      8  S   UNL     1      86.933  62.810  87.617  0.00  0.00    +0.000 S 
ATOM      9  H   UNL     1      86.585  63.103  86.336  0.00  0.00    +0.000 HD
ENDBRANCH   6   8
ENDBRANCH   1   6
BRANCH   1  10
ATOM     10  C   UNL     1      88.900  66.149  86.921  0.00  0.00    +0.000 C 
ATOM     11  C   UNL     1      89.862  66.792  86.243  0.00  0.00    +0.000 C 
BRANCH  11  12
ATOM     12  C   UNL     1      89.800  68.234  86.008  0.00  0.00    +0.000 A 
ATOM     13  C   UNL     1      89.545  69.103  87.074  0.00  0.00    +0.000 A 
ATOM     14  C   UNL     1      89.480  70.481  86.856  0.00  0.00    +0.000 A 
ATOM     15  C   UNL     1      89.673  70.995  85.574  0.00  0.00    +0.000 A 
ATOM     16  C   UNL     1      89.930  70.134  84.509  0.00  0.00    +0.000 A 
ATOM     17  C   UNL     1      89.991  68.756  84.723  0.00  0.00    +0.000 A 
ENDBRANCH  11  12
ENDBRANCH   1  10
TORSDOF 4
ENDMDL
