REMARK  Name = *****
REMARK  2 active torsions:
REMARK  status: ('A' for Active; 'I' for Inactive)
REMARK    1  A    between atoms: C_4  and  P_7
REMARK    2  A    between atoms: P_7  and  C_8
REMARK                            x       y       z     vdW  Elec       q    Type
REMARK                         _______ _______ _______ _____ _____    ______ ____
ROOT
ATOM      1  P   UNL     1       3.053  -0.791  -1.013  0.00  0.00    +0.000 P 
ATOM      2  H   UNL     1       3.978   0.214  -0.815  0.00  0.00    +0.000 HD
ENDROOT
BRANCH   1   6
ATOM      3  C   UNL     1      -1.359   0.381   0.068  0.00  0.00    +0.000 C 
ATOM      4  C   UNL     1      -0.969  -1.088   0.197  0.00  0.00    +0.000 C 
ATOM      5  C   UNL     1       0.339  -1.392  -0.531  0.00  0.00    +0.000 C 
ATOM      6  C   UNL     1       1.476  -0.475  -0.056  0.00  0.00    +0.000 C 
ATOM      7  C   UNL     1       1.074   1.002  -0.196  0.00  0.00    +0.000 C 
ATOM      8  C   UNL     1      -0.234   1.300   0.534  0.00  0.00    +0.000 C 
ENDBRANCH   1   6
BRANCH   1   9
ATOM      9  C   UNL     1       3.593  -2.357  -0.262  0.00  0.00    +0.000 A 
ATOM     10  C   UNL     1       3.332  -3.571  -0.909  0.00  0.00    +0.000 A 
ATOM     11  C   UNL     1       3.744  -4.781  -0.344  0.00  0.00    +0.000 A 
ATOM     12  C   UNL     1       4.424  -4.787   0.871  0.00  0.00    +0.000 A 
ATOM     13  C   UNL     1       4.695  -3.585   1.521  0.00  0.00    +0.000 A 
ATOM     14  C   UNL     1       4.284  -2.375   0.957  0.00  0.00    +0.000 A 
ENDBRANCH   1   9
TORSDOF 2
