MODEL 1
REMARK VINA RESULT:      -4.4      0.000      0.000
REMARK  Name = *****
REMARK  3 active torsions:
REMARK  status: ('A' for Active; 'I' for Inactive)
REMARK    1  A    between atoms: C_5  and  C_8
REMARK    2  A    between atoms: C_8  and  O_9
REMARK    3  A    between atoms: O_9  and  C_10
REMARK                            x       y       z     vdW  Elec       q    Type
REMARK                         _______ _______ _______ _____ _____    ______ ____
ROOT
ATOM      1  C   UNL     1      89.698  68.902  85.464  0.00  0.00    +0.000 C 
ENDROOT
BRANCH   1   6
ATOM      2  C   UNL     1      85.889  71.688  87.321  0.00  0.00    +0.000 C 
ATOM      3  C   UNL     1      86.891  70.942  86.832  0.00  0.00    +0.000 C 
ATOM      4  C   UNL     1      87.745  70.062  87.711  0.00  0.00    +0.000 C 
ATOM      5  C   UNL     1      89.230  70.371  87.511  0.00  0.00    +0.000 C 
ATOM      6  C   UNL     1      89.659  70.334  86.030  0.00  0.00    +0.000 C 
ATOM      7  C   UNL     1      88.751  71.247  85.187  0.00  0.00    +0.000 C 
ATOM      8  C   UNL     1      87.262  70.946  85.370  0.00  0.00    +0.000 C 
ENDBRANCH   1   6
BRANCH   1   9
ATOM      9  O   UNL     1      90.322  68.048  86.424  0.00  0.00    +0.000 OA
BRANCH   9  10
ATOM     10  C   UNL     1      90.208  66.700  86.229  0.00  0.00    +0.000 A 
ATOM     11  C   UNL     1      91.066  65.902  85.470  0.00  0.00    +0.000 A 
ATOM     12  C   UNL     1      90.830  64.529  85.354  0.00  0.00    +0.000 A 
ATOM     13  C   UNL     1      89.738  63.947  85.996  0.00  0.00    +0.000 A 
ATOM     14  C   UNL     1      88.879  64.738  86.755  0.00  0.00    +0.000 A 
ATOM     15  C   UNL     1      89.115  66.110  86.869  0.00  0.00    +0.000 A 
ENDBRANCH   9  10
ENDBRANCH   1   9
TORSDOF 3
ENDMDL
