MODEL 1
REMARK VINA RESULT:      -4.9      0.000      0.000
REMARK  Name = *****
REMARK  5 active torsions:
REMARK  status: ('A' for Active; 'I' for Inactive)
REMARK    1  A    between atoms: C_1  and  C_2
REMARK    2  A    between atoms: C_3  and  C_18
REMARK    3  A    between atoms: C_5  and  O_8
REMARK    4  A    between atoms: O_8  and  C_9
REMARK    5  A    between atoms: C_9  and  C_11
REMARK                            x       y       z     vdW  Elec       q    Type
REMARK                         _______ _______ _______ _____ _____    ______ ____
ROOT
ATOM      1  O   UNL     1      88.635  69.870  86.887  0.00  0.00    +0.000 OA
ENDROOT
BRANCH   1   6
ATOM      2  C   UNL     1      89.085  64.191  86.760  0.00  0.00    +0.000 C 
ATOM      3  C   UNL     1      88.985  65.692  86.795  0.00  0.00    +0.000 A 
ATOM      4  C   UNL     1      89.966  66.508  86.192  0.00  0.00    +0.000 A 
ATOM      5  C   UNL     1      89.832  67.903  86.255  0.00  0.00    +0.000 A 
ATOM      6  C   UNL     1      88.745  68.472  86.914  0.00  0.00    +0.000 A 
ATOM      7  C   UNL     1      87.758  67.678  87.487  0.00  0.00    +0.000 A 
ATOM      8  C   UNL     1      87.885  66.291  87.433  0.00  0.00    +0.000 A 
ATOM      9  C   UNL     1      91.156  65.914  85.488  0.00  0.00    +0.000 C 
ENDBRANCH   1   6
BRANCH   1  10
ATOM     10  C   UNL     1      88.158  70.471  88.037  0.00  0.00    +0.000 C 
ATOM     11  O   UNL     1      88.679  70.478  89.142  0.00  0.00    +0.000 OA
BRANCH  10  12
ATOM     12  C   UNL     1      86.863  71.149  87.748  0.00  0.00    +0.000 A 
ATOM     13  C   UNL     1      85.984  71.570  88.761  0.00  0.00    +0.000 A 
ATOM     14  C   UNL     1      84.782  72.200  88.427  0.00  0.00    +0.000 A 
ATOM     15  C   UNL     1      84.460  72.409  87.091  0.00  0.00    +0.000 A 
ATOM     16  C   UNL     1      85.317  72.001  86.077  0.00  0.00    +0.000 A 
ATOM     17  C   UNL     1      86.519  71.369  86.404  0.00  0.00    +0.000 A 
ATOM     18  F   UNL     1      83.307  73.014  86.777  0.00  0.00    +0.000 F 
ENDBRANCH  10  12
ENDBRANCH   1  10
TORSDOF 3
ENDMDL
