REMARK  Name = *****
REMARK  5 active torsions:
REMARK  status: ('A' for Active; 'I' for Inactive)
REMARK    1  A    between atoms: C_1  and  S_2
REMARK    2  A    between atoms: S_2  and  C_3
REMARK    3  A    between atoms: C_4  and  C_5
REMARK    4  A    between atoms: C_4  and  C_11
REMARK    5  A    between atoms: C_11  and  C_13
REMARK                            x       y       z     vdW  Elec       q    Type
REMARK                         _______ _______ _______ _____ _____    ______ ____
ROOT
ATOM      1  C   UNL     1       2.561   0.316   1.052  0.00  0.00    +0.000 C 
ATOM      2  C   UNL     1       3.552   1.232   1.068  0.00  0.00    +0.000 C 
ENDROOT
BRANCH   2   3
ATOM      3  C   UNL     1       4.873   1.051   0.428  0.00  0.00    +0.000 A 
ATOM      4  C   UNL     1       5.001   0.943  -0.965  0.00  0.00    +0.000 A 
ATOM      5  C   UNL     1       6.260   0.800  -1.552  0.00  0.00    +0.000 A 
ATOM      6  C   UNL     1       7.402   0.766  -0.754  0.00  0.00    +0.000 A 
ATOM      7  C   UNL     1       7.287   0.870   0.631  0.00  0.00    +0.000 A 
ATOM      8  C   UNL     1       6.029   1.012   1.220  0.00  0.00    +0.000 A 
ENDBRANCH   2   3
BRANCH   1  10
ATOM      9  C   UNL     1       1.086  -1.964   0.848  0.00  0.00    +0.000 C 
ATOM     10  S   UNL     1       2.627  -1.227   0.257  0.00  0.00    +0.000 S 
ENDBRANCH   1  10
BRANCH   2  11
ATOM     11  C   UNL     1       3.257   2.445   1.912  0.00  0.00    +0.000 C 
ATOM     12  O   UNL     1       2.488   2.397   2.870  0.00  0.00    +0.000 OA
BRANCH  11  13
ATOM     13  C   UNL     1       3.934   3.730   1.604  0.00  0.00    +0.000 A 
ATOM     14  C   UNL     1       4.375   4.520   2.673  0.00  0.00    +0.000 A 
ATOM     15  C   UNL     1       5.001   5.743   2.428  0.00  0.00    +0.000 A 
ATOM     16  C   UNL     1       5.174   6.186   1.117  0.00  0.00    +0.000 A 
ATOM     17  C   UNL     1       4.714   5.413   0.050  0.00  0.00    +0.000 A 
ATOM     18  C   UNL     1       4.086   4.189   0.291  0.00  0.00    +0.000 A 
ENDBRANCH  11  13
ENDBRANCH   2  11
TORSDOF 4
