MODEL 1
REMARK VINA RESULT:      -4.9      0.000      0.000
REMARK  Name = *****
REMARK  4 active torsions:
REMARK  status: ('A' for Active; 'I' for Inactive)
REMARK    1  A    between atoms: C_1  and  C_2
REMARK    2  A    between atoms: C_4  and  O_8
REMARK    3  A    between atoms: O_8  and  C_9
REMARK    4  A    between atoms: C_9  and  C_11
REMARK                            x       y       z     vdW  Elec       q    Type
REMARK                         _______ _______ _______ _____ _____    ______ ____
ROOT
ATOM      1  O   UNL     1     102.748 126.936  82.921  0.00  0.00    +0.000 OA
ENDROOT
BRANCH   1   5
ATOM      2  C   UNL     1      99.416 130.443  83.953  0.00  0.00    +0.000 C 
ATOM      3  C   UNL     1      99.780 129.074  83.461  0.00  0.00    +0.000 A 
ATOM      4  C   UNL     1     101.116 128.652  83.456  0.00  0.00    +0.000 A 
ATOM      5  C   UNL     1     101.449 127.382  82.977  0.00  0.00    +0.000 A 
ATOM      6  C   UNL     1     100.465 126.547  82.451  0.00  0.00    +0.000 A 
ATOM      7  C   UNL     1      99.135 126.967  82.439  0.00  0.00    +0.000 A 
ATOM      8  C   UNL     1      98.795 128.225  82.941  0.00  0.00    +0.000 A 
ENDBRANCH   1   5
BRANCH   1   9
ATOM      9  C   UNL     1     103.280 126.549  81.696  0.00  0.00    +0.000 C 
ATOM     10  C   UNL     1     103.384 127.361  80.630  0.00  0.00    +0.000 C 
BRANCH   9  11
ATOM     11  C   UNL     1     103.800 125.164  81.679  0.00  0.00    +0.000 A 
ATOM     12  C   UNL     1     104.270 124.564  80.501  0.00  0.00    +0.000 A 
ATOM     13  C   UNL     1     104.766 123.257  80.511  0.00  0.00    +0.000 A 
ATOM     14  C   UNL     1     104.806 122.535  81.701  0.00  0.00    +0.000 A 
ATOM     15  C   UNL     1     104.356 123.119  82.882  0.00  0.00    +0.000 A 
ATOM     16  C   UNL     1     103.860 124.426  82.871  0.00  0.00    +0.000 A 
ENDBRANCH   9  11
ENDBRANCH   1   9
TORSDOF 3
ENDMDL
