MODEL 1
REMARK VINA RESULT:      -4.8      0.000      0.000
REMARK  Name = *****
REMARK  4 active torsions:
REMARK  status: ('A' for Active; 'I' for Inactive)
REMARK    1  A    between atoms: C_3  and  C_8
REMARK    2  A    between atoms: C_8  and  O_9
REMARK    3  A    between atoms: O_9  and  C_10
REMARK    4  A    between atoms: C_14  and  C_16
REMARK                            x       y       z     vdW  Elec       q    Type
REMARK                         _______ _______ _______ _____ _____    ______ ____
ROOT
ATOM      1  O   UNL     1     102.692 125.494  82.605  0.00  0.00    +0.000 OA
ENDROOT
BRANCH   1   2
ATOM      2  C   UNL     1     103.575 125.145  81.622  0.00  0.00    +0.000 A 
ATOM      3  C   UNL     1     104.004 125.961  80.576  0.00  0.00    +0.000 A 
ATOM      4  C   UNL     1     104.915 125.473  79.636  0.00  0.00    +0.000 A 
ATOM      5  C   UNL     1     105.402 124.169  79.734  0.00  0.00    +0.000 A 
ATOM      6  C   UNL     1     104.980 123.338  80.780  0.00  0.00    +0.000 A 
ATOM      7  C   UNL     1     104.064 123.838  81.717  0.00  0.00    +0.000 A 
BRANCH   6   8
ATOM      8  C   UNL     1     105.475 121.930  80.928  0.00  0.00    +0.000 C 
ATOM      9  O   UNL     1     106.668 121.723  80.709  0.00  0.00    +0.000 OA
ATOM     10 CL   UNL     1     104.364 120.659  81.400  0.00  0.00    +0.000 Cl
ENDBRANCH   6   8
ENDBRANCH   1   2
BRANCH   1  11
ATOM     11  C   UNL     1     102.690 126.856  83.031  0.00  0.00    +0.000 C 
BRANCH  11  14
ATOM     12  C   UNL     1      98.927 127.092  82.425  0.00  0.00    +0.000 A 
ATOM     13  C   UNL     1     100.234 126.602  82.463  0.00  0.00    +0.000 A 
ATOM     14  C   UNL     1     101.269 127.372  83.015  0.00  0.00    +0.000 A 
ATOM     15  C   UNL     1     100.970 128.650  83.515  0.00  0.00    +0.000 A 
ATOM     16  C   UNL     1      99.663 129.133  83.474  0.00  0.00    +0.000 A 
ATOM     17  C   UNL     1      98.640 128.359  82.931  0.00  0.00    +0.000 A 
ATOM     18 CL   UNL     1      99.311 130.700  84.093  0.00  0.00    +0.000 Cl
ENDBRANCH  11  14
ENDBRANCH   1  11
TORSDOF 4
ENDMDL
