MODEL 1
REMARK VINA RESULT:      -3.9      0.000      0.000
REMARK  Name = *****
REMARK  3 active torsions:
REMARK  status: ('A' for Active; 'I' for Inactive)
REMARK    1  A    between atoms: C_3  and  C_5
REMARK    2  A    between atoms: C_5  and  O_7
REMARK    3  A    between atoms: O_7  and  C_8
REMARK                            x       y       z     vdW  Elec       q    Type
REMARK                         _______ _______ _______ _____ _____    ______ ____
ROOT
ATOM      1  C   UNL     1      89.566  66.737  86.529  0.00  0.00    +0.000 A 
ATOM      2  C   UNL     1      88.339  66.784  87.194  0.00  0.00    +0.000 A 
ATOM      3  C   UNL     1      87.612  65.605  87.373  0.00  0.00    +0.000 A 
ATOM      4  C   UNL     1      88.125  64.388  86.899  0.00  0.00    +0.000 A 
ATOM      5  C   UNL     1      89.366  64.350  86.251  0.00  0.00    +0.000 A 
ATOM      6  C   UNL     1      90.092  65.527  86.071  0.00  0.00    +0.000 A 
ATOM      7 CL   UNL     1      91.630  65.451  85.298  0.00  0.00    +0.000 Cl
ATOM      8 CL   UNL     1      87.279  62.893  87.092  0.00  0.00    +0.000 Cl
ATOM      9 CL   UNL     1      86.096  65.714  88.192  0.00  0.00    +0.000 Cl
ENDROOT
BRANCH   1  10
ATOM     10  O   UNL     1      90.283  67.928  86.385  0.00  0.00    +0.000 OA
BRANCH  10  11
ATOM     11  C   UNL     1      89.789  68.737  85.358  0.00  0.00    +0.000 C 
ATOM     12  O   UNL     1      89.522  68.325  84.231  0.00  0.00    +0.000 OA
BRANCH  11  15
ATOM     13  C   UNL     1      87.857  70.490  87.040  0.00  0.00    +0.000 C 
ATOM     14  C   UNL     1      89.358  70.401  87.373  0.00  0.00    +0.000 C 
ATOM     15  C   UNL     1      89.625  70.201  85.857  0.00  0.00    +0.000 C 
ATOM     16  C   UNL     1      88.261  70.903  85.614  0.00  0.00    +0.000 C 
ENDBRANCH  11  15
ENDBRANCH  10  11
ENDBRANCH   1  10
TORSDOF 3
ENDMDL
