MODEL 1
REMARK VINA RESULT:      -4.5      0.000      0.000
REMARK  Name = *****
REMARK  4 active torsions:
REMARK  status: ('A' for Active; 'I' for Inactive)
REMARK    1  A    between atoms: C_1  and  C_2
REMARK    2  A    between atoms: C_6  and  C_7
REMARK    3  A    between atoms: C_7  and  C_8
REMARK    4  A    between atoms: C_9  and  C_10
REMARK                            x       y       z     vdW  Elec       q    Type
REMARK                         _______ _______ _______ _____ _____    ______ ____
ROOT
ATOM      1  C   UNL     1     102.790 125.353  82.510  0.00  0.00    +0.000 C 
ATOM      2  C   UNL     1     101.925 126.169  82.673  0.00  0.00    +0.000 C 
ENDROOT
BRANCH   2   3
ATOM      3  C   UNL     1     100.890 127.138  82.866  0.00  0.00    +0.000 A 
ATOM      4  C   UNL     1      99.584 126.859  82.456  0.00  0.00    +0.000 A 
ATOM      5  C   UNL     1      98.574 127.805  82.646  0.00  0.00    +0.000 A 
ATOM      6  C   UNL     1      98.869 129.030  83.244  0.00  0.00    +0.000 A 
ATOM      7  C   UNL     1     100.173 129.311  83.655  0.00  0.00    +0.000 A 
ATOM      8  C   UNL     1     101.183 128.366  83.466  0.00  0.00    +0.000 A 
ENDBRANCH   2   3
BRANCH   1   9
ATOM      9  C   UNL     1     103.847 124.351  82.308  0.00  0.00    +0.000 C 
BRANCH   9  15
ATOM     10  C   UNL     1     105.172 121.905  80.657  0.00  0.00    +0.000 C 
ATOM     11  C   UNL     1     105.527 123.386  80.627  0.00  0.00    +0.000 C 
ATOM     12  C   UNL     1     106.037 123.830  79.256  0.00  0.00    +0.000 C 
ATOM     13  C   UNL     1     105.856 125.346  79.242  0.00  0.00    +0.000 C 
ATOM     14  C   UNL     1     104.874 125.673  80.369  0.00  0.00    +0.000 C 
ATOM     15  C   UNL     1     104.332 124.323  80.855  0.00  0.00    +0.000 C 
ENDBRANCH   9  15
ENDBRANCH   1   9
TORSDOF 3
ENDMDL
