MODEL 1
REMARK VINA RESULT:      -4.9      0.000      0.000
REMARK  Name = *****
REMARK  5 active torsions:
REMARK  status: ('A' for Active; 'I' for Inactive)
REMARK    1  A    between atoms: C_1  and  C_2
REMARK    2  A    between atoms: C_4  and  O_9
REMARK    3  A    between atoms: C_5  and  C_8
REMARK    4  A    between atoms: O_9  and  C_10
REMARK    5  A    between atoms: C_10  and  C_12
REMARK                            x       y       z     vdW  Elec       q    Type
REMARK                         _______ _______ _______ _____ _____    ______ ____
ROOT
ATOM      1  O   UNL     1     102.247 125.907  81.242  0.00  0.00    +0.000 OA
ENDROOT
BRANCH   1   5
ATOM      2  C   UNL     1     105.754 122.539  80.399  0.00  0.00    +0.000 C 
ATOM      3  C   UNL     1     105.295 123.965  80.466  0.00  0.00    +0.000 A 
ATOM      4  C   UNL     1     103.987 124.274  80.855  0.00  0.00    +0.000 A 
ATOM      5  C   UNL     1     103.572 125.607  80.900  0.00  0.00    +0.000 A 
ATOM      6  C   UNL     1     104.420 126.653  80.518  0.00  0.00    +0.000 A 
ATOM      7  C   UNL     1     105.721 126.335  80.111  0.00  0.00    +0.000 A 
ATOM      8  C   UNL     1     106.153 125.004  80.084  0.00  0.00    +0.000 A 
ATOM      9  C   UNL     1     103.948 128.077  80.525  0.00  0.00    +0.000 C 
ENDBRANCH   1   5
BRANCH   1  10
ATOM     10  C   UNL     1     102.006 125.968  82.599  0.00  0.00    +0.000 C 
ATOM     11  O   UNL     1     102.428 125.221  83.471  0.00  0.00    +0.000 OA
BRANCH  10  12
ATOM     12  C   UNL     1     101.049 127.057  82.886  0.00  0.00    +0.000 A 
ATOM     13  C   UNL     1     101.526 128.204  83.538  0.00  0.00    +0.000 A 
ATOM     14  C   UNL     1     100.660 129.262  83.824  0.00  0.00    +0.000 A 
ATOM     15  C   UNL     1      99.317 129.185  83.453  0.00  0.00    +0.000 A 
ATOM     16  C   UNL     1      98.843 128.052  82.790  0.00  0.00    +0.000 A 
ATOM     17  C   UNL     1      99.709 126.998  82.506  0.00  0.00    +0.000 A 
ATOM     18  F   UNL     1      99.220 125.946  81.833  0.00  0.00    +0.000 F 
ENDBRANCH  10  12
ENDBRANCH   1  10
TORSDOF 3
ENDMDL
