REMARK  Name = *****
REMARK  3 active torsions:
REMARK  status: ('A' for Active; 'I' for Inactive)
REMARK    1  A    between atoms: C_4  and  C_7
REMARK    2  A    between atoms: C_7  and  S_8
REMARK    3  A    between atoms: S_8  and  C_10
REMARK                            x       y       z     vdW  Elec       q    Type
REMARK                         _______ _______ _______ _____ _____    ______ ____
ROOT
ATOM      1  S   UNL     1      -3.723  -1.422  -0.206  0.00  0.00    +0.000 S 
ATOM      2  O   UNL     1      -3.636  -2.252   1.043  0.00  0.00    +0.000 OA
ENDROOT
BRANCH   1   3
ATOM      3  C   UNL     1      -5.429  -0.822  -0.267  0.00  0.00    +0.000 A 
ATOM      4  C   UNL     1      -5.904  -0.209  -1.433  0.00  0.00    +0.000 A 
ATOM      5  C   UNL     1      -7.221   0.257  -1.494  0.00  0.00    +0.000 A 
ATOM      6  C   UNL     1      -8.063   0.104  -0.394  0.00  0.00    +0.000 A 
ATOM      7  C   UNL     1      -7.602  -0.514   0.767  0.00  0.00    +0.000 A 
ATOM      8  C   UNL     1      -6.286  -0.980   0.828  0.00  0.00    +0.000 A 
ATOM      9 CL   UNL     1      -9.682   0.678  -0.471  0.00  0.00    +0.000 Cl
ENDBRANCH   1   3
BRANCH   1  10
ATOM     10  C   UNL     1      -2.938   0.191   0.145  0.00  0.00    +0.000 C 
BRANCH  10  14
ATOM     11  C   UNL     1       1.365  -0.074   0.019  0.00  0.00    +0.000 A 
ATOM     12  C   UNL     1       0.670   0.480  -1.055  0.00  0.00    +0.000 A 
ATOM     13  C   UNL     1      -0.723   0.568  -1.016  0.00  0.00    +0.000 A 
ATOM     14  C   UNL     1      -1.434   0.105   0.100  0.00  0.00    +0.000 A 
ATOM     15  C   UNL     1      -0.723  -0.456   1.172  0.00  0.00    +0.000 A 
ATOM     16  C   UNL     1       0.669  -0.543   1.131  0.00  0.00    +0.000 A 
ENDBRANCH  10  14
ENDBRANCH   1  10
TORSDOF 3
