MODEL 1
REMARK VINA RESULT:      -4.0      0.000      0.000
REMARK  Name = *****
REMARK  3 active torsions:
REMARK  status: ('A' for Active; 'I' for Inactive)
REMARK    1  A    between atoms: C_4  and  C_7
REMARK    2  A    between atoms: C_7  and  C_8
REMARK    3  A    between atoms: C_9  and  C_10
REMARK                            x       y       z     vdW  Elec       q    Type
REMARK                         _______ _______ _______ _____ _____    ______ ____
ROOT
ATOM      1  C   UNL     1      84.802  61.968  89.559  0.00  0.00    +0.000 C 
ENDROOT
BRANCH   1   5
ATOM      2  C   UNL     1      88.707  63.849  90.217  0.00  0.00    +0.000 C 
ATOM      3  C   UNL     1      88.279  63.577  88.780  0.00  0.00    +0.000 C 
ATOM      4  C   UNL     1      87.131  62.571  88.713  0.00  0.00    +0.000 C 
ATOM      5  C   UNL     1      85.930  63.015  89.569  0.00  0.00    +0.000 C 
ATOM      6  C   UNL     1      86.380  63.285  91.015  0.00  0.00    +0.000 C 
ATOM      7  C   UNL     1      87.528  64.289  91.078  0.00  0.00    +0.000 C 
ENDBRANCH   1   5
BRANCH   1   8
ATOM      8  C   UNL     1      85.209  60.705  90.193  0.00  0.00    +0.000 C 
ATOM      9  C   UNL     1      85.539  59.675  90.714  0.00  0.00    +0.000 C 
BRANCH   9  10
ATOM     10  C   UNL     1      85.927  58.452  91.342  0.00  0.00    +0.000 A 
ATOM     11  C   UNL     1      85.677  58.176  92.668  0.00  0.00    +0.000 A 
ATOM     12  S   UNL     1      86.262  56.632  93.125  0.00  0.00    +0.000 S 
ATOM     13  C   UNL     1      86.854  56.330  91.546  0.00  0.00    +0.000 A 
ATOM     14  C   UNL     1      86.609  57.384  90.692  0.00  0.00    +0.000 A 
ENDBRANCH   9  10
ENDBRANCH   1   8
TORSDOF 3
ENDMDL
