REMARK  Name = *****
REMARK  6 active torsions:
REMARK  status: ('A' for Active; 'I' for Inactive)
REMARK    1  A    between atoms: C_1  and  C_2
REMARK    2  A    between atoms: C_5  and  C_8
REMARK    3  A    between atoms: C_9  and  C_10
REMARK    4  A    between atoms: C_9  and  C_16
REMARK    5  A    between atoms: C_16  and  O_18
REMARK    6  A    between atoms: O_18  and  C_19
REMARK                            x       y       z     vdW  Elec       q    Type
REMARK                         _______ _______ _______ _____ _____    ______ ____
ROOT
ATOM      1  C   UNL     1      -3.370   0.281   0.302  0.00  0.00    +0.000 C 
ATOM      2  C   UNL     1      -4.169   1.228  -0.230  0.00  0.00    +0.000 C 
ENDROOT
BRANCH   1   7
ATOM      3  C   UNL     1       2.408   0.236   0.273  0.00  0.00    +0.000 C 
ATOM      4  C   UNL     1       0.909   0.281   0.269  0.00  0.00    +0.000 A 
ATOM      5  C   UNL     1       0.203   0.444   1.467  0.00  0.00    +0.000 A 
ATOM      6  C   UNL     1      -1.195   0.451   1.471  0.00  0.00    +0.000 A 
ATOM      7  C   UNL     1      -1.904   0.290   0.278  0.00  0.00    +0.000 A 
ATOM      8  C   UNL     1      -1.202   0.111  -0.918  0.00  0.00    +0.000 A 
ATOM      9  C   UNL     1       0.195   0.103  -0.921  0.00  0.00    +0.000 A 
ENDBRANCH   1   7
BRANCH   2  10
ATOM     10  C   UNL     1      -5.639   1.103  -0.173  0.00  0.00    +0.000 A 
ATOM     11  C   UNL     1      -6.297   0.840   1.039  0.00  0.00    +0.000 A 
ATOM     12  C   UNL     1      -7.690   0.743   1.087  0.00  0.00    +0.000 A 
ATOM     13  C   UNL     1      -8.441   0.913  -0.073  0.00  0.00    +0.000 A 
ATOM     14  C   UNL     1      -7.802   1.181  -1.282  0.00  0.00    +0.000 A 
ATOM     15  C   UNL     1      -6.410   1.278  -1.331  0.00  0.00    +0.000 A 
ENDBRANCH   2  10
BRANCH   2  16
ATOM     16  C   UNL     1      -3.562   2.400  -0.910  0.00  0.00    +0.000 C 
ATOM     17  O   UNL     1      -3.413   2.494  -2.119  0.00  0.00    +0.000 OA
BRANCH  16  18
ATOM     18  O   UNL     1      -3.263   3.339   0.024  0.00  0.00    +0.000 OA
ATOM     19  C   UNL     1      -2.700   4.530  -0.522  0.00  0.00    +0.000 C 
ENDBRANCH  16  18
ENDBRANCH   2  16
TORSDOF 4
