REMARK  Name = *****
REMARK  5 active torsions:
REMARK  status: ('A' for Active; 'I' for Inactive)
REMARK    1  A    between atoms: C_1  and  C_2
REMARK    2  A    between atoms: C_5  and  C_8
REMARK    3  A    between atoms: C_8  and  O_9
REMARK    4  A    between atoms: O_9  and  C_10
REMARK    5  A    between atoms: C_10  and  C_12
REMARK                            x       y       z     vdW  Elec       q    Type
REMARK                         _______ _______ _______ _____ _____    ______ ____
ROOT
ATOM      1  O   UNL     1      -3.883   1.265   0.274  0.00  0.00    +0.000 OA
ENDROOT
BRANCH   1   2
ATOM      2  C   UNL     1      -4.302   2.111  -0.696  0.00  0.00    +0.000 C 
ATOM      3  O   UNL     1      -4.321   1.885  -1.895  0.00  0.00    +0.000 OA
BRANCH   2   4
ATOM      4  C   UNL     1      -4.773   3.391  -0.098  0.00  0.00    +0.000 A 
ATOM      5  C   UNL     1      -5.413   4.316  -0.934  0.00  0.00    +0.000 A 
ATOM      6  C   UNL     1      -5.869   5.532  -0.420  0.00  0.00    +0.000 A 
ATOM      7  C   UNL     1      -5.685   5.831   0.929  0.00  0.00    +0.000 A 
ATOM      8  C   UNL     1      -5.044   4.918   1.767  0.00  0.00    +0.000 A 
ATOM      9  C   UNL     1      -4.588   3.700   1.257  0.00  0.00    +0.000 A 
ENDBRANCH   2   4
ENDBRANCH   1   2
BRANCH   1  10
ATOM     10  C   UNL     1      -3.364   0.008  -0.174  0.00  0.00    +0.000 C 
BRANCH  10  15
ATOM     11  C   UNL     1       2.447   0.264   0.098  0.00  0.00    +0.000 C 
ATOM     12  C   UNL     1       0.953   0.165   0.024  0.00  0.00    +0.000 A 
ATOM     13  C   UNL     1       0.207  -0.233   1.138  0.00  0.00    +0.000 A 
ATOM     14  C   UNL     1      -1.187  -0.293   1.074  0.00  0.00    +0.000 A 
ATOM     15  C   UNL     1      -1.860   0.046  -0.107  0.00  0.00    +0.000 A 
ATOM     16  C   UNL     1      -1.113   0.471  -1.214  0.00  0.00    +0.000 A 
ATOM     17  C   UNL     1       0.280   0.530  -1.148  0.00  0.00    +0.000 A 
ENDBRANCH  10  15
ENDBRANCH   1  10
TORSDOF 4
