REMARK  Name = *****
REMARK  1 active torsions:
REMARK  status: ('A' for Active; 'I' for Inactive)
REMARK    1  A    between atoms: C_10  and  C_12
REMARK                            x       y       z     vdW  Elec       q    Type
REMARK                         _______ _______ _______ _____ _____    ______ ____
ROOT
ATOM      1  C   UNL     1       1.289   1.436  -0.044  0.00  0.00    +0.000 C 
ATOM      2  C   UNL     1      -0.005   0.693  -0.014  0.00  0.00    +0.000 A 
ATOM      3  C   UNL     1       0.030  -0.695   0.068  0.00  0.00    +0.000 A 
ATOM      4  C   UNL     1      -1.167  -1.413   0.113  0.00  0.00    +0.000 A 
ATOM      5  C   UNL     1      -2.396  -0.751   0.078  0.00  0.00    +0.000 A 
ATOM      6  C   UNL     1      -2.424   0.639   0.000  0.00  0.00    +0.000 A 
ATOM      7  C   UNL     1      -1.235   1.366  -0.044  0.00  0.00    +0.000 A 
ATOM      8 CL   UNL     1      -3.932   1.465  -0.040  0.00  0.00    +0.000 Cl
ATOM      9  N   UNL     1       1.237  -1.388   0.103  0.00  0.00    +0.000 NA
ATOM     10  C   UNL     1       2.342  -0.730  -0.022  0.00  0.00    +0.000 C 
ATOM     11  O   UNL     1       2.459   0.610  -0.159  0.00  0.00    +0.000 OA
ENDROOT
BRANCH  10  12
ATOM     12  C   UNL     1       3.676  -1.385  -0.023  0.00  0.00    +0.000 A 
ATOM     13  C   UNL     1       4.844  -0.689  -0.368  0.00  0.00    +0.000 A 
ATOM     14  C   UNL     1       6.080  -1.340  -0.359  0.00  0.00    +0.000 A 
ATOM     15  C   UNL     1       6.159  -2.686  -0.007  0.00  0.00    +0.000 A 
ATOM     16  C   UNL     1       5.003  -3.386   0.336  0.00  0.00    +0.000 A 
ATOM     17  C   UNL     1       3.766  -2.739   0.326  0.00  0.00    +0.000 A 
ENDBRANCH  10  12
TORSDOF 1
