REMARK  Name = *****
REMARK  3 active torsions:
REMARK  status: ('A' for Active; 'I' for Inactive)
REMARK    1  A    between atoms: C_1  and  C_2
REMARK    2  A    between atoms: N_8  and  C_9
REMARK    3  A    between atoms: C_9  and  C_10
REMARK                            x       y       z     vdW  Elec       q    Type
REMARK                         _______ _______ _______ _____ _____    ______ ____
ROOT
ATOM      1  C   UNL     1       1.036  -0.094   0.349  0.00  0.00    +0.000 C 
ATOM      2  C   UNL     1       2.526   0.024   0.032  0.00  0.00    +0.000 C 
ATOM      3  C   UNL     1       2.818   1.070  -1.052  0.00  0.00    +0.000 C 
ATOM      4  C   UNL     1       2.408   0.626  -2.456  0.00  0.00    +0.000 C 
ATOM      5  C   UNL     1       3.054  -0.707  -2.822  0.00  0.00    +0.000 C 
ATOM      6  C   UNL     1       2.711  -1.791  -1.811  0.00  0.00    +0.000 C 
ATOM      7  C   UNL     1       3.071  -1.333  -0.408  0.00  0.00    +0.000 C 
ATOM      8  N   UNL     1       3.767  -2.142   0.315  0.00  0.00    +0.000 NA
ENDROOT
BRANCH   8   9
ATOM      9  C   UNL     1       4.122  -1.776   1.685  0.00  0.00    +0.000 C 
BRANCH   9  10
ATOM     10  C   UNL     1       4.882  -2.873   2.400  0.00  0.00    +0.000 A 
ATOM     11  C   UNL     1       5.859  -2.544   3.352  0.00  0.00    +0.000 A 
ATOM     12  C   UNL     1       6.539  -3.545   4.048  0.00  0.00    +0.000 A 
ATOM     13  C   UNL     1       6.244  -4.886   3.810  0.00  0.00    +0.000 A 
ATOM     14  C   UNL     1       5.266  -5.226   2.878  0.00  0.00    +0.000 A 
ATOM     15  C   UNL     1       4.585  -4.226   2.182  0.00  0.00    +0.000 A 
ENDBRANCH   9  10
ENDBRANCH   8   9
TORSDOF 2
