REMARK  Name = *****
REMARK  4 active torsions:
REMARK  status: ('A' for Active; 'I' for Inactive)
REMARK    1  A    between atoms: C_1  and  C_2
REMARK    2  A    between atoms: C_2  and  O_3
REMARK    3  A    between atoms: O_3  and  C_4
REMARK    4  A    between atoms: C_6  and  C_14
REMARK                            x       y       z     vdW  Elec       q    Type
REMARK                         _______ _______ _______ _____ _____    ______ ____
ROOT
ATOM      1  C   UNL     1       4.434  -0.930   1.442  0.00  0.00    +0.000 A 
ATOM      2  N   UNL     1       4.909  -2.197   1.482  0.00  0.00    +0.000 NA
ATOM      3  C   UNL     1       6.251  -2.373   1.494  0.00  0.00    +0.000 A 
ATOM      4  C   UNL     1       7.133  -1.295   1.451  0.00  0.00    +0.000 A 
ATOM      5  C   UNL     1       6.635   0.014   1.404  0.00  0.00    +0.000 A 
ATOM      6  C   UNL     1       7.497   1.124   1.358  0.00  0.00    +0.000 A 
ATOM      7  C   UNL     1       6.989   2.423   1.311  0.00  0.00    +0.000 A 
ATOM      8  C   UNL     1       5.614   2.632   1.308  0.00  0.00    +0.000 A 
ATOM      9  C   UNL     1       4.746   1.541   1.351  0.00  0.00    +0.000 A 
ATOM     10  C   UNL     1       5.242   0.218   1.399  0.00  0.00    +0.000 A 
ENDROOT
BRANCH   3  11
ATOM     11  C   UNL     1       6.706  -3.779   1.542  0.00  0.00    +0.000 A 
ATOM     12  C   UNL     1       5.975  -4.790   0.884  0.00  0.00    +0.000 A 
ATOM     13  C   UNL     1       6.389  -6.124   0.913  0.00  0.00    +0.000 A 
ATOM     14  C   UNL     1       7.540  -6.467   1.608  0.00  0.00    +0.000 A 
ATOM     15  C   UNL     1       8.280  -5.501   2.276  0.00  0.00    +0.000 A 
ATOM     16  C   UNL     1       7.864  -4.166   2.244  0.00  0.00    +0.000 A 
ATOM     17  F   UNL     1       7.939  -7.744   1.639  0.00  0.00    +0.000 F 
ENDBRANCH   3  11
BRANCH   1  18
ATOM     18  O   UNL     1       3.062  -0.738   1.434  0.00  0.00    +0.000 OA
BRANCH  18  20
ATOM     19  C   UNL     1       0.840  -1.587   1.561  0.00  0.00    +0.000 C 
ATOM     20  C   UNL     1       2.315  -1.949   1.553  0.00  0.00    +0.000 C 
ENDBRANCH  18  20
ENDBRANCH   1  18
TORSDOF 3
