REMARK  Name = *****
REMARK  4 active torsions:
REMARK  status: ('A' for Active; 'I' for Inactive)
REMARK    1  A    between atoms: C_4  and  C_7
REMARK    2  A    between atoms: C_7  and  N_8
REMARK    3  A    between atoms: N_8  and  C_9
REMARK    4  A    between atoms: C_9  and  C_10
REMARK                            x       y       z     vdW  Elec       q    Type
REMARK                         _______ _______ _______ _____ _____    ______ ____
ROOT
ATOM      1  N   UNL     1      -3.502  -0.664  -0.662  0.00  0.00    +0.000 NA
ENDROOT
BRANCH   1   2
ATOM      2  C   UNL     1      -2.753   0.326  -0.314  0.00  0.00    +0.000 C 
BRANCH   2   6
ATOM      3  C   UNL     1       1.454  -0.072   0.252  0.00  0.00    +0.000 A 
ATOM      4  C   UNL     1       0.699  -1.188  -0.111  0.00  0.00    +0.000 A 
ATOM      5  C   UNL     1      -0.679  -1.067  -0.298  0.00  0.00    +0.000 A 
ATOM      6  C   UNL     1      -1.298   0.173  -0.120  0.00  0.00    +0.000 A 
ATOM      7  C   UNL     1      -0.544   1.292   0.244  0.00  0.00    +0.000 A 
ATOM      8  C   UNL     1       0.835   1.167   0.429  0.00  0.00    +0.000 A 
ENDBRANCH   2   6
ENDBRANCH   1   2
BRANCH   1   9
ATOM      9  C   UNL     1      -4.917  -0.306  -0.814  0.00  0.00    +0.000 C 
BRANCH   9  10
ATOM     10  C   UNL     1      -5.700  -1.417  -1.477  0.00  0.00    +0.000 A 
ATOM     11  C   UNL     1      -5.670  -2.717  -0.948  0.00  0.00    +0.000 A 
ATOM     12  C   UNL     1      -6.403  -3.745  -1.544  0.00  0.00    +0.000 A 
ATOM     13  C   UNL     1      -7.174  -3.477  -2.673  0.00  0.00    +0.000 A 
ATOM     14  C   UNL     1      -7.219  -2.192  -3.208  0.00  0.00    +0.000 A 
ATOM     15  C   UNL     1      -6.485  -1.164  -2.611  0.00  0.00    +0.000 A 
ATOM     16 CL   UNL     1      -8.078  -4.742  -3.411  0.00  0.00    +0.000 Cl
ENDBRANCH   9  10
ENDBRANCH   1   9
TORSDOF 4
