REMARK  Name = *****
REMARK  4 active torsions:
REMARK  status: ('A' for Active; 'I' for Inactive)
REMARK    1  A    between atoms: C_4  and  C_7
REMARK    2  A    between atoms: C_7  and  C_8
REMARK    3  A    between atoms: C_8  and  C_9
REMARK    4  A    between atoms: C_13  and  C_15
REMARK                            x       y       z     vdW  Elec       q    Type
REMARK                         _______ _______ _______ _____ _____    ______ ____
ROOT
ATOM      1  C   UNL     1      -3.635  -0.793  -0.368  0.00  0.00    +0.000 C 
ATOM      2  F   UNL     1      -3.635  -1.569   0.755  0.00  0.00    +0.000 F 
ATOM      3  F   UNL     1      -4.925  -0.377  -0.529  0.00  0.00    +0.000 F 
ENDROOT
BRANCH   1   4
ATOM      4  C   UNL     1      -3.151  -1.576  -1.577  0.00  0.00    +0.000 A 
ATOM      5  C   UNL     1      -3.643  -1.285  -2.859  0.00  0.00    +0.000 A 
ATOM      6  C   UNL     1      -3.189  -1.995  -3.972  0.00  0.00    +0.000 A 
ATOM      7  C   UNL     1      -2.238  -3.004  -3.816  0.00  0.00    +0.000 A 
ATOM      8  C   UNL     1      -1.740  -3.309  -2.546  0.00  0.00    +0.000 A 
ATOM      9  C   UNL     1      -2.196  -2.596  -1.431  0.00  0.00    +0.000 A 
BRANCH   8  10
ATOM     10  C   UNL     1      -0.763  -4.347  -2.387  0.00  0.00    +0.000 C 
ATOM     11  N   UNL     1       0.032  -5.182  -2.258  0.00  0.00    +0.000 NA
ENDBRANCH   8  10
ENDBRANCH   1   4
BRANCH   1  12
ATOM     12  C   UNL     1      -2.737   0.433  -0.132  0.00  0.00    +0.000 C 
BRANCH  12  16
ATOM     13  C   UNL     1      -3.935   2.817   3.261  0.00  0.00    +0.000 A 
ATOM     14  C   UNL     1      -3.059   1.747   3.434  0.00  0.00    +0.000 A 
ATOM     15  C   UNL     1      -2.670   0.977   2.338  0.00  0.00    +0.000 A 
ATOM     16  C   UNL     1      -3.152   1.272   1.055  0.00  0.00    +0.000 A 
ATOM     17  C   UNL     1      -4.039   2.345   0.893  0.00  0.00    +0.000 A 
ATOM     18  C   UNL     1      -4.426   3.114   1.991  0.00  0.00    +0.000 A 
ENDBRANCH  12  16
ENDBRANCH   1  12
TORSDOF 4
