MODEL 1
REMARK VINA RESULT:      -5.1      0.000      0.000
REMARK  Name = *****
REMARK  2 active torsions:
REMARK  status: ('A' for Active; 'I' for Inactive)
REMARK    1  A    between atoms: C_1  and  C_2
REMARK    2  A    between atoms: C_7  and  C_8
REMARK                            x       y       z     vdW  Elec       q    Type
REMARK                         _______ _______ _______ _____ _____    ______ ____
ROOT
ATOM      1  C   UNL     1     102.125 126.053  82.484  0.00  0.00    +0.000 A 
ATOM      2  N   UNL     1     102.661 125.136  83.272  0.00  0.00    +0.000 NA
ATOM      3  C   UNL     1     103.583 124.504  82.478  0.00  0.00    +0.000 A 
ATOM      4  C   UNL     1     103.574 125.068  81.215  0.00  0.00    +0.000 A 
ATOM      5  O   UNL     1     102.643 126.061  81.208  0.00  0.00    +0.000 OA
ATOM      6  C   UNL     1     104.387 124.667  80.161  0.00  0.00    +0.000 A 
ATOM      7  C   UNL     1     105.262 123.611  80.444  0.00  0.00    +0.000 A 
ATOM      8  C   UNL     1     105.296 123.017  81.713  0.00  0.00    +0.000 A 
ATOM      9  C   UNL     1     104.461 123.449  82.751  0.00  0.00    +0.000 A 
ATOM     10 CL   UNL     1     106.394 121.720  82.004  0.00  0.00    +0.000 Cl
ENDROOT
BRANCH   1  17
ATOM     11  C   UNL     1     102.755 128.705  83.769  0.00  0.00    +0.000 C 
ATOM     12  C   UNL     1     101.360 128.295  83.371  0.00  0.00    +0.000 A 
ATOM     13  C   UNL     1     100.310 129.202  83.617  0.00  0.00    +0.000 A 
ATOM     14  C   UNL     1      98.996 128.892  83.274  0.00  0.00    +0.000 A 
ATOM     15  C   UNL     1      98.708 127.671  82.681  0.00  0.00    +0.000 A 
ATOM     16  C   UNL     1      99.738 126.760  82.430  0.00  0.00    +0.000 A 
ATOM     17  C   UNL     1     101.077 127.047  82.766  0.00  0.00    +0.000 A 
ENDBRANCH   1  17
TORSDOF 1
ENDMDL
