MODEL 1
REMARK VINA RESULT:      -4.3      0.000      0.000
REMARK  Name = *****
REMARK  6 active torsions:
REMARK  status: ('A' for Active; 'I' for Inactive)
REMARK    1  A    between atoms: C_1  and  O_2
REMARK    2  A    between atoms: O_2  and  P_3
REMARK    3  A    between atoms: P_3  and  C_5
REMARK    4  A    between atoms: P_3  and  O_11
REMARK    5  A    between atoms: O_11  and  C_12
REMARK    6  A    between atoms: C_15  and  C_18
REMARK                            x       y       z     vdW  Elec       q    Type
REMARK                         _______ _______ _______ _____ _____    ______ ____
ROOT
ATOM      1  P   UNL     1     103.078 126.952  82.284  0.00  0.00    +0.000 P 
ATOM      2  S   UNL     1     104.564 127.357  83.495  0.00  0.00    +0.000 S 
ENDROOT
BRANCH   1   3
ATOM      3  C   UNL     1     101.395 127.425  82.699  0.00  0.00    +0.000 A 
ATOM      4  C   UNL     1     100.323 126.603  82.312  0.00  0.00    +0.000 A 
ATOM      5  C   UNL     1      99.008 126.951  82.620  0.00  0.00    +0.000 A 
ATOM      6  C   UNL     1      98.746 128.124  83.325  0.00  0.00    +0.000 A 
ATOM      7  C   UNL     1      99.798 128.947  83.720  0.00  0.00    +0.000 A 
ATOM      8  C   UNL     1     101.115 128.600  83.410  0.00  0.00    +0.000 A 
ENDBRANCH   1   3
BRANCH   1  10
ATOM      9  C   UNL     1     104.421 128.339  80.508  0.00  0.00    +0.000 C 
ATOM     10  O   UNL     1     103.275 127.553  80.780  0.00  0.00    +0.000 OA
ENDBRANCH   1  10
BRANCH   1  11
ATOM     11  O   UNL     1     102.902 125.371  81.956  0.00  0.00    +0.000 OA
BRANCH  11  12
ATOM     12  C   UNL     1     103.877 124.473  81.630  0.00  0.00    +0.000 A 
ATOM     13  C   UNL     1     104.438 124.328  80.364  0.00  0.00    +0.000 A 
ATOM     14  C   UNL     1     105.430 123.366  80.145  0.00  0.00    +0.000 A 
ATOM     15  C   UNL     1     105.861 122.543  81.190  0.00  0.00    +0.000 A 
ATOM     16  C   UNL     1     105.293 122.685  82.459  0.00  0.00    +0.000 A 
ATOM     17  C   UNL     1     104.302 123.647  82.674  0.00  0.00    +0.000 A 
BRANCH  15  18
ATOM     18  C   UNL     1     106.877 121.557  80.961  0.00  0.00    +0.000 C 
ATOM     19  N   UNL     1     107.696 120.755  80.778  0.00  0.00    +0.000 NA
ENDBRANCH  15  18
ENDBRANCH  11  12
ENDBRANCH   1  11
TORSDOF 5
ENDMDL
