REMARK  Name = *****
REMARK  4 active torsions:
REMARK  status: ('A' for Active; 'I' for Inactive)
REMARK    1  A    between atoms: C_4  and  C_7
REMARK    2  A    between atoms: C_8  and  C_9
REMARK    3  A    between atoms: C_10  and  C_11
REMARK    4  A    between atoms: C_10  and  C_14
REMARK                            x       y       z     vdW  Elec       q    Type
REMARK                         _______ _______ _______ _____ _____    ______ ____
ROOT
ATOM      1  C   UNL     1      -2.805   0.336  -0.238  0.00  0.00    +0.000 C 
ATOM      2  C   UNL     1      -3.668  -0.682  -0.385  0.00  0.00    +0.000 C 
ENDROOT
BRANCH   1   6
ATOM      3  C   UNL     1       1.451   0.000   0.080  0.00  0.00    +0.000 A 
ATOM      4  C   UNL     1       0.753  -0.889  -0.734  0.00  0.00    +0.000 A 
ATOM      5  C   UNL     1      -0.637  -0.797  -0.845  0.00  0.00    +0.000 A 
ATOM      6  C   UNL     1      -1.346   0.179  -0.131  0.00  0.00    +0.000 A 
ATOM      7  C   UNL     1      -0.630   1.078   0.671  0.00  0.00    +0.000 A 
ATOM      8  C   UNL     1       0.760   0.986   0.780  0.00  0.00    +0.000 A 
ENDBRANCH   1   6
BRANCH   2   9
ATOM      9  C   UNL     1      -5.102  -0.471  -0.472  0.00  0.00    +0.000 C 
ATOM     10  C   UNL     1      -6.058  -1.415  -0.581  0.00  0.00    +0.000 C 
BRANCH  10  11
ATOM     11  C   UNL     1      -5.725  -2.858  -0.608  0.00  0.00    +0.000 C 
ATOM     12  O   UNL     1      -5.813  -3.454  -1.680  0.00  0.00    +0.000 OA
ATOM     13 CL   UNL     1      -5.262  -3.596   0.907  0.00  0.00    +0.000 Cl
ENDBRANCH  10  11
BRANCH  10  14
ATOM     14  C   UNL     1      -7.490  -1.001  -0.702  0.00  0.00    +0.000 C 
ATOM     15  O   UNL     1      -7.759   0.194  -0.833  0.00  0.00    +0.000 OA
ATOM     16 CL   UNL     1      -8.724  -2.242  -0.601  0.00  0.00    +0.000 Cl
ENDBRANCH  10  14
ENDBRANCH   2   9
TORSDOF 4
