MODEL 1
REMARK VINA RESULT:      -3.9      0.000      0.000
REMARK  Name = *****
REMARK  3 active torsions:
REMARK  status: ('A' for Active; 'I' for Inactive)
REMARK    1  A    between atoms: C_4  and  S_7
REMARK    2  A    between atoms: S_7  and  C_8
REMARK    3  A    between atoms: C_9  and  C_10
REMARK                            x       y       z     vdW  Elec       q    Type
REMARK                         _______ _______ _______ _____ _____    ______ ____
ROOT
ATOM      1  S   UNL     1      89.335  70.440  86.773  0.00  0.00    +0.000 S 
ENDROOT
BRANCH   1   5
ATOM      2  C   UNL     1      84.999  71.878  87.111  0.00  0.00    +0.000 A 
ATOM      3  C   UNL     1      85.718  71.558  88.262  0.00  0.00    +0.000 A 
ATOM      4  C   UNL     1      87.040  71.122  88.160  0.00  0.00    +0.000 A 
ATOM      5  C   UNL     1      87.646  70.997  86.906  0.00  0.00    +0.000 A 
ATOM      6  C   UNL     1      86.922  71.325  85.756  0.00  0.00    +0.000 A 
ATOM      7  C   UNL     1      85.600  71.763  85.859  0.00  0.00    +0.000 A 
ENDBRANCH   1   5
BRANCH   1   8
ATOM      8  C   UNL     1      89.057  68.727  86.734  0.00  0.00    +0.000 C 
ATOM      9  C   UNL     1      90.025  67.882  86.349  0.00  0.00    +0.000 C 
BRANCH   9  10
ATOM     10  C   UNL     1      89.841  66.467  86.304  0.00  0.00    +0.000 A 
ATOM     11  C   UNL     1      88.930  65.641  86.947  0.00  0.00    +0.000 A 
ATOM     12  C   UNL     1      89.090  64.262  86.622  0.00  0.00    +0.000 A 
ATOM     13  C   UNL     1      90.120  64.061  85.735  0.00  0.00    +0.000 A 
ATOM     14  S   UNL     1      90.885  65.523  85.301  0.00  0.00    +0.000 S 
ENDBRANCH   9  10
ENDBRANCH   1   8
TORSDOF 3
ENDMDL
