REMARK  Name = *****
REMARK  2 active torsions:
REMARK  status: ('A' for Active; 'I' for Inactive)
REMARK    1  A    between atoms: N_4  and  C_5
REMARK    2  A    between atoms: C_5  and  C_6
REMARK                            x       y       z     vdW  Elec       q    Type
REMARK                         _______ _______ _______ _____ _____    ______ ____
ROOT
ATOM      1  C   UNL     1      -2.239  -3.855  -1.299  0.00  0.00    +0.000 A 
ATOM      2  C   UNL     1      -2.829  -4.152  -2.538  0.00  0.00    +0.000 A 
ATOM      3  C   UNL     1      -2.968  -5.477  -2.963  0.00  0.00    +0.000 A 
ATOM      4  C   UNL     1      -2.530  -6.515  -2.146  0.00  0.00    +0.000 A 
ATOM      5  C   UNL     1      -1.959  -6.244  -0.906  0.00  0.00    +0.000 A 
ATOM      6  C   UNL     1      -1.820  -4.921  -0.482  0.00  0.00    +0.000 A 
ATOM      7 CL   UNL     1      -2.701  -8.145  -2.668  0.00  0.00    +0.000 Cl
ATOM      8 CL   UNL     1      -3.410  -2.914  -3.596  0.00  0.00    +0.000 Cl
ENDROOT
BRANCH   1   9
ATOM      9  C   UNL     1      -2.091  -2.443  -0.780  0.00  0.00    +0.000 C 
BRANCH   9  13
ATOM     10  C   UNL     1      -3.188   0.949   1.795  0.00  0.00    +0.000 C 
ATOM     11  S   UNL     1      -2.311   0.514   0.265  0.00  0.00    +0.000 S 
ATOM     12  C   UNL     1      -3.318  -0.857   0.410  0.00  0.00    +0.000 C 
ATOM     13  N   UNL     1      -3.263  -2.062   0.002  0.00  0.00    +0.000 NA
ATOM     14  S   UNL     1      -4.573  -0.114   1.303  0.00  0.00    +0.000 S 
ENDBRANCH   9  13
ENDBRANCH   1   9
TORSDOF 2
