MODEL 1
REMARK VINA RESULT:      -4.4      0.000      0.000
REMARK  Name = *****
REMARK  2 active torsions:
REMARK  status: ('A' for Active; 'I' for Inactive)
REMARK    1  A    between atoms: C_1  and  N_2
REMARK    2  A    between atoms: C_3  and  C_11
REMARK                            x       y       z     vdW  Elec       q    Type
REMARK                         _______ _______ _______ _____ _____    ______ ____
ROOT
ATOM      1  C   UNL     1     104.018 128.279  83.331  0.00  0.00    +0.000 C 
ATOM      2  N   UNL     1     102.607 127.937  83.184  0.00  0.00    +0.000 N 
ATOM      3  C   UNL     1     102.198 126.813  82.617  0.00  0.00    +0.000 C 
ATOM      4  S   UNL     1     100.489 126.736  82.548  0.00  0.00    +0.000 S 
ATOM      5  C   UNL     1     100.325 128.250  83.354  0.00  0.00    +0.000 A 
ATOM      6  C   UNL     1      99.153 128.933  83.710  0.00  0.00    +0.000 A 
ATOM      7  C   UNL     1      99.281 130.155  84.375  0.00  0.00    +0.000 A 
ATOM      8  C   UNL     1     100.534 130.680  84.675  0.00  0.00    +0.000 A 
ATOM      9  C   UNL     1     101.702 129.997  84.313  0.00  0.00    +0.000 A 
ATOM     10  C   UNL     1     101.589 128.765  83.637  0.00  0.00    +0.000 A 
ENDROOT
BRANCH   3  11
ATOM     11  C   UNL     1     103.021 125.726  82.106  0.00  0.00    +0.000 A 
ATOM     12  C   UNL     1     103.486 124.725  82.973  0.00  0.00    +0.000 A 
ATOM     13  C   UNL     1     104.296 123.695  82.490  0.00  0.00    +0.000 A 
ATOM     14  C   UNL     1     104.644 123.658  81.141  0.00  0.00    +0.000 A 
ATOM     15  C   UNL     1     104.183 124.643  80.271  0.00  0.00    +0.000 A 
ATOM     16  C   UNL     1     103.373 125.675  80.750  0.00  0.00    +0.000 A 
ENDBRANCH   3  11
TORSDOF 1
ENDMDL
