REMARK  Name = *****
REMARK  5 active torsions:
REMARK  status: ('A' for Active; 'I' for Inactive)
REMARK    1  A    between atoms: C_1  and  C_2
REMARK    2  A    between atoms: C_5  and  C_8
REMARK    3  A    between atoms: C_10  and  C_11
REMARK    4  A    between atoms: C_14  and  O_17
REMARK    5  A    between atoms: O_17  and  C_18
REMARK                            x       y       z     vdW  Elec       q    Type
REMARK                         _______ _______ _______ _____ _____    ______ ____
ROOT
ATOM      1  C   UNL     1      -3.172  -0.070  -0.626  0.00  0.00    +0.000 C 
ATOM      2  C   UNL     1      -4.302   0.877  -0.938  0.00  0.00    +0.000 C 
ATOM      3  C   UNL     1      -3.402   1.164   0.236  0.00  0.00    +0.000 C 
ENDROOT
BRANCH   1   8
ATOM      4  C   UNL     1      -4.269  -5.397   1.528  0.00  0.00    +0.000 C 
ATOM      5  C   UNL     1      -3.970  -4.041   0.961  0.00  0.00    +0.000 A 
ATOM      6  C   UNL     1      -4.572  -3.616  -0.225  0.00  0.00    +0.000 A 
ATOM      7  C   UNL     1      -4.313  -2.338  -0.732  0.00  0.00    +0.000 A 
ATOM      8  C   UNL     1      -3.464  -1.442  -0.065  0.00  0.00    +0.000 A 
ATOM      9  C   UNL     1      -2.872  -1.884   1.128  0.00  0.00    +0.000 A 
ATOM     10  C   UNL     1      -3.126  -3.161   1.641  0.00  0.00    +0.000 A 
ENDBRANCH   1   8
BRANCH   3  11
ATOM     11  C   UNL     1      -2.419   2.309   0.179  0.00  0.00    +0.000 A 
ATOM     12  C   UNL     1      -2.838   3.620  -0.097  0.00  0.00    +0.000 A 
ATOM     13  C   UNL     1      -1.934   4.690  -0.137  0.00  0.00    +0.000 A 
ATOM     14  C   UNL     1      -0.580   4.471   0.107  0.00  0.00    +0.000 A 
ATOM     15  C   UNL     1      -0.147   3.177   0.394  0.00  0.00    +0.000 A 
ATOM     16  C   UNL     1      -1.054   2.113   0.433  0.00  0.00    +0.000 A 
BRANCH  14  17
ATOM     17  O   UNL     1       0.405   5.418   0.099  0.00  0.00    +0.000 OA
ATOM     18  C   UNL     1       0.013   6.750  -0.210  0.00  0.00    +0.000 C 
ENDBRANCH  14  17
ENDBRANCH   3  11
TORSDOF 3
