MODEL 1
REMARK VINA RESULT:      -4.9      0.000      0.000
REMARK  Name = *****
REMARK  4 active torsions:
REMARK  status: ('A' for Active; 'I' for Inactive)
REMARK    1  A    between atoms: C_1  and  C_2
REMARK    2  A    between atoms: C_4  and  N_8
REMARK    3  A    between atoms: C_9  and  O_18
REMARK    4  A    between atoms: O_18  and  O_19
REMARK                            x       y       z     vdW  Elec       q    Type
REMARK                         _______ _______ _______ _____ _____    ______ ____
ROOT
ATOM      1  N   UNL     1     102.254 127.008  83.109  0.00  0.00    +0.000 N 
ATOM      2  C   UNL     1     100.932 127.464  82.682  0.00  0.00    +0.000 C 
ATOM      3  C   UNL     1     100.680 128.731  83.438  0.00  0.00    +0.000 C 
ATOM      4  C   UNL     1     101.706 129.171  84.173  0.00  0.00    +0.000 C 
ATOM      5  S   UNL     1     103.144 128.154  83.977  0.00  0.00    +0.000 S 
ATOM      6  O   UNL     1     103.484 127.645  85.345  0.00  0.00    +0.000 OA
ATOM      7  C   UNL     1     101.649 130.368  85.065  0.00  0.00    +0.000 C 
ATOM      8  C   UNL     1     100.209 130.846  85.293  0.00  0.00    +0.000 C 
ATOM      9  C   UNL     1      99.395 130.821  83.999  0.00  0.00    +0.000 C 
ATOM     10  C   UNL     1      99.350 129.416  83.383  0.00  0.00    +0.000 C 
ENDROOT
BRANCH   1  14
ATOM     11  C   UNL     1     104.702 122.657  83.145  0.00  0.00    +0.000 C 
ATOM     12  C   UNL     1     104.139 123.833  82.400  0.00  0.00    +0.000 A 
ATOM     13  C   UNL     1     103.456 124.849  83.092  0.00  0.00    +0.000 A 
ATOM     14  C   UNL     1     102.940 125.983  82.438  0.00  0.00    +0.000 A 
ATOM     15  C   UNL     1     103.149 126.058  81.049  0.00  0.00    +0.000 A 
ATOM     16  C   UNL     1     103.839 125.064  80.349  0.00  0.00    +0.000 A 
ATOM     17  C   UNL     1     104.337 123.956  81.025  0.00  0.00    +0.000 A 
ENDBRANCH   1  14
BRANCH   2  18
ATOM     18  O   UNL     1      99.907 126.536  83.075  0.00  0.00    +0.000 OA
BRANCH  18  19
ATOM     19  O   UNL     1      99.255 126.057  81.859  0.00  0.00    +0.000 OA
ATOM     20  H   UNL     1      98.571 125.410  82.092  0.00  0.00    +0.000 HD
ENDBRANCH  18  19
ENDBRANCH   2  18
TORSDOF 3
ENDMDL
