MODEL 1
REMARK VINA RESULT:      -3.9      0.000      0.000
REMARK  Name = *****
REMARK  2 active torsions:
REMARK  status: ('A' for Active; 'I' for Inactive)
REMARK    1  A    between atoms: C_5  and  C_6
REMARK    2  A    between atoms: C_7  and  C_8
REMARK                            x       y       z     vdW  Elec       q    Type
REMARK                         _______ _______ _______ _____ _____    ______ ____
ROOT
ATOM      1  C   UNL     1     102.586 125.979  81.573  0.00  0.00    +0.000 C 
ATOM      2  C   UNL     1     101.728 126.018  82.609  0.00  0.00    +0.000 C 
ENDROOT
BRANCH   2   3
ATOM      3  C   UNL     1     100.684 126.990  82.798  0.00  0.00    +0.000 A 
ATOM      4  C   UNL     1     100.858 128.226  83.391  0.00  0.00    +0.000 A 
ATOM      5  S   UNL     1      99.426 129.141  83.478  0.00  0.00    +0.000 S 
ATOM      6  C   UNL     1      98.525 127.900  82.728  0.00  0.00    +0.000 A 
ATOM      7  C   UNL     1      99.310 126.811  82.418  0.00  0.00    +0.000 A 
ATOM      8 BR   UNL     1     102.481 128.924  84.043  0.00  0.00    +0.000 Br
ENDBRANCH   2   3
BRANCH   1  13
ATOM      9  C   UNL     1     104.143 124.083  82.329  0.00  0.00    +0.000 A 
ATOM     10  C   UNL     1     105.147 123.293  81.807  0.00  0.00    +0.000 A 
ATOM     11  S   UNL     1     105.472 123.666  80.171  0.00  0.00    +0.000 S 
ATOM     12  C   UNL     1     104.269 124.884  80.157  0.00  0.00    +0.000 A 
ATOM     13  C   UNL     1     103.629 125.013  81.373  0.00  0.00    +0.000 A 
ENDBRANCH   1  13
TORSDOF 2
ENDMDL
