MODEL 1
REMARK VINA RESULT:      -4.2      0.000      0.000
REMARK  Name = *****
REMARK  3 active torsions:
REMARK  status: ('A' for Active; 'I' for Inactive)
REMARK    1  A    between atoms: C_3  and  N_4
REMARK    2  A    between atoms: N_4  and  C_5
REMARK    3  A    between atoms: C_12  and  C_14
REMARK                            x       y       z     vdW  Elec       q    Type
REMARK                         _______ _______ _______ _____ _____    ______ ____
ROOT
ATOM      1  N   UNL     1      87.563  68.791  86.217  0.00  0.00    +0.000 N 
ATOM      2  C   UNL     1      87.849  69.097  84.872  0.00  0.00    +0.000 C 
ATOM      3  O   UNL     1      87.592  68.347  83.927  0.00  0.00    +0.000 OA
ENDROOT
BRANCH   1   4
ATOM      4  C   UNL     1      87.505  69.756  87.278  0.00  0.00    +0.000 A 
ATOM      5  C   UNL     1      86.293  70.377  87.623  0.00  0.00    +0.000 A 
ATOM      6  C   UNL     1      86.231  71.298  88.674  0.00  0.00    +0.000 A 
ATOM      7  C   UNL     1      87.374  71.607  89.406  0.00  0.00    +0.000 A 
ATOM      8  C   UNL     1      88.581  70.989  89.091  0.00  0.00    +0.000 A 
ATOM      9  C   UNL     1      88.639  70.070  88.043  0.00  0.00    +0.000 A 
ATOM     10  F   UNL     1      89.836  69.538  87.752  0.00  0.00    +0.000 F 
ENDBRANCH   1   4
BRANCH   2  11
ATOM     11  C   UNL     1      88.595  70.338  84.535  0.00  0.00    +0.000 A 
ATOM     12  C   UNL     1      89.995  70.352  84.481  0.00  0.00    +0.000 A 
ATOM     13  C   UNL     1      90.663  71.529  84.138  0.00  0.00    +0.000 A 
ATOM     14  C   UNL     1      89.938  72.681  83.829  0.00  0.00    +0.000 A 
ATOM     15  C   UNL     1      88.542  72.659  83.850  0.00  0.00    +0.000 A 
ATOM     16  C   UNL     1      87.869  71.485  84.193  0.00  0.00    +0.000 A 
ENDBRANCH   2  11
BRANCH   1  19
ATOM     17  C   UNL     1      87.312  66.902  87.973  0.00  0.00    +0.000 C 
ATOM     18  C   UNL     1      88.370  66.451  87.020  0.00  0.00    +0.000 C 
ATOM     19  C   UNL     1      87.291  67.399  86.546  0.00  0.00    +0.000 C 
ENDBRANCH   1  19
TORSDOF 3
ENDMDL
