MODEL 1
REMARK VINA RESULT:      -4.8      0.000      0.000
REMARK  Name = *****
REMARK  3 active torsions:
REMARK  status: ('A' for Active; 'I' for Inactive)
REMARK    1  A    between atoms: C_2  and  C_3
REMARK    2  A    between atoms: C_8  and  C_9
REMARK    3  A    between atoms: C_10  and  C_11
REMARK                            x       y       z     vdW  Elec       q    Type
REMARK                         _______ _______ _______ _____ _____    ______ ____
ROOT
ATOM      1  C   UNL     1     101.404 128.154  83.350  0.00  0.00    +0.000 A 
ATOM      2  C   UNL     1     100.381 129.082  83.613  0.00  0.00    +0.000 A 
ATOM      3  C   UNL     1      99.058 128.813  83.258  0.00  0.00    +0.000 A 
ATOM      4  C   UNL     1      98.738 127.616  82.627  0.00  0.00    +0.000 A 
ATOM      5  C   UNL     1      99.742 126.689  82.346  0.00  0.00    +0.000 A 
ATOM      6  C   UNL     1     101.081 126.949  82.689  0.00  0.00    +0.000 A 
ENDROOT
BRANCH   1   8
ATOM      7  C   UNL     1     103.211 129.727  84.009  0.00  0.00    +0.000 C 
ATOM      8  C   UNL     1     102.796 128.491  83.701  0.00  0.00    +0.000 C 
ENDBRANCH   1   8
BRANCH   6   9
ATOM      9  C   UNL     1     102.101 125.924  82.404  0.00  0.00    +0.000 C 
ATOM     10  C   UNL     1     102.839 125.922  81.283  0.00  0.00    +0.000 C 
BRANCH  10  11
ATOM     11  C   UNL     1     103.877 124.924  80.993  0.00  0.00    +0.000 A 
ATOM     12  C   UNL     1     104.076 123.798  81.802  0.00  0.00    +0.000 A 
ATOM     13  C   UNL     1     105.052 122.853  81.477  0.00  0.00    +0.000 A 
ATOM     14  C   UNL     1     105.833 123.018  80.334  0.00  0.00    +0.000 A 
ATOM     15  C   UNL     1     105.632 124.126  79.513  0.00  0.00    +0.000 A 
ATOM     16  C   UNL     1     104.655 125.071  79.837  0.00  0.00    +0.000 A 
ENDBRANCH  10  11
ENDBRANCH   6   9
TORSDOF 3
ENDMDL
