MODEL 1
REMARK VINA RESULT:      -4.8      0.000      0.000
REMARK  Name = *****
REMARK  4 active torsions:
REMARK  status: ('A' for Active; 'I' for Inactive)
REMARK    1  A    between atoms: C_1  and  C_2
REMARK    2  A    between atoms: C_3  and  C_12
REMARK    3  A    between atoms: C_4  and  C_11
REMARK    4  A    between atoms: N_13  and  C_14
REMARK                            x       y       z     vdW  Elec       q    Type
REMARK                         _______ _______ _______ _____ _____    ______ ____
ROOT
ATOM      1  C   UNL     1     103.013 125.019  84.698  0.00  0.00    +0.000 C 
ATOM      2  C   UNL     1     103.398 125.071  83.244  0.00  0.00    +0.000 A 
ATOM      3  C   UNL     1     103.247 126.226  82.438  0.00  0.00    +0.000 A 
ATOM      4  C   UNL     1     103.650 126.209  81.079  0.00  0.00    +0.000 A 
ATOM      5  C   UNL     1     104.195 125.030  80.556  0.00  0.00    +0.000 A 
ATOM      6  C   UNL     1     104.331 123.890  81.333  0.00  0.00    +0.000 A 
ATOM      7  C   UNL     1     103.932 123.913  82.660  0.00  0.00    +0.000 A 
ATOM      8  F   UNL     1     104.076 122.800  83.395  0.00  0.00    +0.000 F 
ATOM      9  F   UNL     1     104.849 122.773  80.804  0.00  0.00    +0.000 F 
ATOM     10  F   UNL     1     104.592 124.992  79.274  0.00  0.00    +0.000 F 
ATOM     11  C   UNL     1     103.513 127.403  80.173  0.00  0.00    +0.000 C 
ENDROOT
BRANCH   3  12
ATOM     12  C   UNL     1     102.675 127.489  82.978  0.00  0.00    +0.000 C 
ATOM     13  N   UNL     1     101.400 127.686  83.107  0.00  0.00    +0.000 NA
BRANCH  13  14
ATOM     14  C   UNL     1     101.021 128.933  83.622  0.00  0.00    +0.000 A 
ATOM     15  C   UNL     1     101.960 129.735  84.273  0.00  0.00    +0.000 A 
ATOM     16  C   UNL     1     101.595 130.984  84.779  0.00  0.00    +0.000 A 
ATOM     17  C   UNL     1     100.286 131.441  84.624  0.00  0.00    +0.000 A 
ATOM     18  C   UNL     1      99.347 130.654  83.960  0.00  0.00    +0.000 A 
ATOM     19  C   UNL     1      99.717 129.405  83.455  0.00  0.00    +0.000 A 
ENDBRANCH  13  14
ENDBRANCH   3  12
TORSDOF 2
ENDMDL
