MODEL 1
REMARK VINA RESULT:      -4.6      0.000      0.000
REMARK  Name = *****
REMARK  3 active torsions:
REMARK  status: ('A' for Active; 'I' for Inactive)
REMARK    1  A    between atoms: C_5  and  O_7
REMARK    2  A    between atoms: O_7  and  C_8
REMARK    3  A    between atoms: C_8  and  C_9
REMARK                            x       y       z     vdW  Elec       q    Type
REMARK                         _______ _______ _______ _____ _____    ______ ____
ROOT
ATOM      1  O   UNL     1     101.513 125.943  82.576  0.00  0.00    +0.000 OA
ENDROOT
BRANCH   1   6
ATOM      2  C   UNL     1     100.642 129.249  83.781  0.00  0.00    +0.000 A 
ATOM      3  C   UNL     1      99.281 129.346  83.495  0.00  0.00    +0.000 A 
ATOM      4  C   UNL     1      98.627 128.281  82.881  0.00  0.00    +0.000 A 
ATOM      5  C   UNL     1      99.334 127.123  82.555  0.00  0.00    +0.000 A 
ATOM      6  C   UNL     1     100.697 127.010  82.837  0.00  0.00    +0.000 A 
ATOM      7  C   UNL     1     101.344 128.087  83.451  0.00  0.00    +0.000 A 
ATOM      8  F   UNL     1      98.654 126.129  81.963  0.00  0.00    +0.000 F 
ENDBRANCH   1   6
BRANCH   1   9
ATOM      9  C   UNL     1     102.593 126.152  81.665  0.00  0.00    +0.000 C 
BRANCH   9  10
ATOM     10  C   UNL     1     103.530 124.968  81.738  0.00  0.00    +0.000 A 
ATOM     11  C   UNL     1     104.157 124.484  80.582  0.00  0.00    +0.000 A 
ATOM     12  C   UNL     1     104.995 123.376  80.657  0.00  0.00    +0.000 A 
ATOM     13  C   UNL     1     105.220 122.726  81.864  0.00  0.00    +0.000 A 
ATOM     14  C   UNL     1     104.595 123.190  83.019  0.00  0.00    +0.000 A 
ATOM     15  C   UNL     1     103.752 124.302  82.956  0.00  0.00    +0.000 A 
ATOM     16  F   UNL     1     105.590 122.925  79.545  0.00  0.00    +0.000 F 
ENDBRANCH   9  10
ENDBRANCH   1   9
TORSDOF 3
ENDMDL
