MODEL 1
REMARK VINA RESULT:      -4.8      0.000      0.000
REMARK  Name = *****
REMARK  5 active torsions:
REMARK  status: ('A' for Active; 'I' for Inactive)
REMARK    1  A    between atoms: C_1  and  C_2
REMARK    2  A    between atoms: C_4  and  O_9
REMARK    3  A    between atoms: C_5  and  C_8
REMARK    4  A    between atoms: O_9  and  C_10
REMARK    5  A    between atoms: C_10  and  C_12
REMARK                            x       y       z     vdW  Elec       q    Type
REMARK                         _______ _______ _______ _____ _____    ______ ____
ROOT
ATOM      1  O   UNL     1     103.377 126.466  82.012  0.00  0.00    +0.000 OA
ENDROOT
BRANCH   1   5
ATOM      2  C   UNL     1      98.478 126.638  82.555  0.00  0.00    +0.000 C 
ATOM      3  C   UNL     1      99.840 127.230  82.762  0.00  0.00    +0.000 A 
ATOM      4  C   UNL     1     100.977 126.585  82.264  0.00  0.00    +0.000 A 
ATOM      5  C   UNL     1     102.240 127.142  82.475  0.00  0.00    +0.000 A 
ATOM      6  C   UNL     1     102.412 128.315  83.221  0.00  0.00    +0.000 A 
ATOM      7  C   UNL     1     101.271 128.943  83.731  0.00  0.00    +0.000 A 
ATOM      8  C   UNL     1      99.999 128.406  83.507  0.00  0.00    +0.000 A 
ATOM      9  C   UNL     1     103.776 128.885  83.469  0.00  0.00    +0.000 C 
ENDBRANCH   1   5
BRANCH   1  10
ATOM     10  C   UNL     1     103.591 126.564  80.641  0.00  0.00    +0.000 C 
ATOM     11  O   UNL     1     103.422 127.553  79.942  0.00  0.00    +0.000 OA
BRANCH  10  12
ATOM     12  C   UNL     1     104.117 125.232  80.134  0.00  0.00    +0.000 C 
ATOM     13  C   UNL     1     104.116 124.215  81.278  0.00  0.00    +0.000 C 
ATOM     14  C   UNL     1     104.717 122.880  80.843  0.00  0.00    +0.000 C 
ATOM     15  C   UNL     1     106.109 123.056  80.242  0.00  0.00    +0.000 C 
ATOM     16  C   UNL     1     106.106 124.066  79.098  0.00  0.00    +0.000 C 
ATOM     17  C   UNL     1     105.517 125.405  79.535  0.00  0.00    +0.000 C 
ENDBRANCH  10  12
ENDBRANCH   1  10
TORSDOF 3
ENDMDL
