REMARK  Name = *****
REMARK  3 active torsions:
REMARK  status: ('A' for Active; 'I' for Inactive)
REMARK    1  A    between atoms: N_2  and  C_3
REMARK    2  A    between atoms: C_8  and  C_9
REMARK    3  A    between atoms: C_10  and  C_11
REMARK                            x       y       z     vdW  Elec       q    Type
REMARK                         _______ _______ _______ _____ _____    ______ ____
ROOT
ATOM      1  C   UNL     1       3.670  -0.180   0.086  0.00  0.00    +0.000 A 
ATOM      2  C   UNL     1       4.503   0.938   0.176  0.00  0.00    +0.000 A 
ATOM      3  C   UNL     1       5.885   0.772   0.089  0.00  0.00    +0.000 A 
ATOM      4  C   UNL     1       6.423  -0.505  -0.086  0.00  0.00    +0.000 A 
ATOM      5  C   UNL     1       5.582  -1.619  -0.175  0.00  0.00    +0.000 A 
ATOM      6  C   UNL     1       4.195  -1.464  -0.090  0.00  0.00    +0.000 A 
ENDROOT
BRANCH   1   8
ATOM      7  C   UNL     1       1.144   0.214   0.257  0.00  0.00    +0.000 C 
ATOM      8  N   UNL     1       2.297   0.019   0.177  0.00  0.00    +0.000 NA
ENDBRANCH   1   8
BRANCH   6   9
ATOM      9  C   UNL     1       3.356  -2.619  -0.184  0.00  0.00    +0.000 C 
ATOM     10  C   UNL     1       2.648  -3.587  -0.260  0.00  0.00    +0.000 C 
BRANCH  10  11
ATOM     11  C   UNL     1       1.766  -4.768  -0.351  0.00  0.00    +0.000 C 
ATOM     12  C   UNL     1       1.258  -5.184   1.037  0.00  0.00    +0.000 C 
ATOM     13  C   UNL     1       2.337  -5.846   1.895  0.00  0.00    +0.000 C 
ATOM     14  C   UNL     1       2.997  -7.013   1.168  0.00  0.00    +0.000 C 
ATOM     15  C   UNL     1       3.549  -6.592  -0.190  0.00  0.00    +0.000 C 
ATOM     16  C   UNL     1       2.474  -5.933  -1.056  0.00  0.00    +0.000 C 
ENDBRANCH  10  11
ENDBRANCH   6   9
TORSDOF 3
