MODEL 1
REMARK VINA RESULT:      -5.0      0.000      0.000
REMARK  Name = *****
REMARK  2 active torsions:
REMARK  status: ('A' for Active; 'I' for Inactive)
REMARK    1  A    between atoms: C_1  and  C_2
REMARK    2  A    between atoms: C_3  and  C_11
REMARK                            x       y       z     vdW  Elec       q    Type
REMARK                         _______ _______ _______ _____ _____    ______ ____
ROOT
ATOM      1  C   UNL     1      99.611 126.784  82.388  0.00  0.00    +0.000 C 
ATOM      2  C   UNL     1     100.303 127.301  83.642  0.00  0.00    +0.000 C 
ATOM      3  C   UNL     1     101.819 126.954  83.786  0.00  0.00    +0.000 C 
ATOM      4  C   UNL     1     102.413 128.074  84.683  0.00  0.00    +0.000 C 
ATOM      5  C   UNL     1     101.489 129.225  84.420  0.00  0.00    +0.000 A 
ATOM      6  C   UNL     1     101.698 130.560  84.731  0.00  0.00    +0.000 A 
ATOM      7  C   UNL     1     100.696 131.478  84.418  0.00  0.00    +0.000 A 
ATOM      8  C   UNL     1      99.504 131.055  83.813  0.00  0.00    +0.000 A 
ATOM      9  C   UNL     1      99.297 129.706  83.513  0.00  0.00    +0.000 A 
ATOM     10  C   UNL     1     100.301 128.798  83.816  0.00  0.00    +0.000 A 
ENDROOT
BRANCH   3  11
ATOM     11  C   UNL     1     102.587 126.769  82.482  0.00  0.00    +0.000 A 
ATOM     12  C   UNL     1     103.086 127.850  81.739  0.00  0.00    +0.000 A 
ATOM     13  C   UNL     1     103.777 127.638  80.544  0.00  0.00    +0.000 A 
ATOM     14  C   UNL     1     103.981 126.344  80.072  0.00  0.00    +0.000 A 
ATOM     15  C   UNL     1     103.489 125.260  80.794  0.00  0.00    +0.000 A 
ATOM     16  C   UNL     1     102.797 125.470  81.989  0.00  0.00    +0.000 A 
ENDBRANCH   3  11
TORSDOF 1
ENDMDL
