MODEL 1
REMARK VINA RESULT:      -3.7      0.000      0.000
REMARK  Name = *****
REMARK  6 active torsions:
REMARK  status: ('A' for Active; 'I' for Inactive)
REMARK    1  A    between atoms: C_1  and  C_2
REMARK    2  A    between atoms: C_3  and  C_16
REMARK    3  A    between atoms: C_7  and  S_8
REMARK    4  A    between atoms: S_8  and  C_9
REMARK    5  A    between atoms: C_9  and  C_10
REMARK    6  A    between atoms: C_16  and  C_17
REMARK                            x       y       z     vdW  Elec       q    Type
REMARK                         _______ _______ _______ _____ _____    ______ ____
ROOT
ATOM      1  C   UNL     1      85.918  66.469  88.932  0.00  0.00    +0.000 C 
ATOM      2  C   UNL     1      86.816  65.393  89.503  0.00  0.00    +0.000 C 
ATOM      3  C   UNL     1      86.652  64.876  90.748  0.00  0.00    +0.000 C 
ATOM      4  C   UNL     1      87.669  63.925  91.352  0.00  0.00    +0.000 C 
ATOM      5  C   UNL     1      89.022  63.956  90.647  0.00  0.00    +0.000 C 
ATOM      6  C   UNL     1      88.824  63.815  89.148  0.00  0.00    +0.000 C 
ATOM      7  C   UNL     1      87.978  64.973  88.596  0.00  0.00    +0.000 C 
ENDROOT
BRANCH   7   8
ATOM      8  S   UNL     1      87.341  64.459  86.947  0.00  0.00    +0.000 S 
BRANCH   8   9
ATOM      9  C   UNL     1      87.062  62.687  87.247  0.00  0.00    +0.000 C 
BRANCH   9  10
ATOM     10  C   UNL     1      85.878  62.388  88.131  0.00  0.00    +0.000 A 
ATOM     11  C   UNL     1      85.997  61.502  89.213  0.00  0.00    +0.000 A 
ATOM     12  C   UNL     1      84.900  61.230  90.031  0.00  0.00    +0.000 A 
ATOM     13  C   UNL     1      83.674  61.842  89.781  0.00  0.00    +0.000 A 
ATOM     14  C   UNL     1      83.543  62.728  88.715  0.00  0.00    +0.000 A 
ATOM     15  C   UNL     1      84.639  63.002  87.895  0.00  0.00    +0.000 A 
ENDBRANCH   9  10
ENDBRANCH   8   9
ENDBRANCH   7   8
BRANCH   3  16
ATOM     16  C   UNL     1      85.495  65.197  91.674  0.00  0.00    +0.000 C 
BRANCH  16  17
ATOM     17  C   UNL     1      85.344  64.226  92.835  0.00  0.00    +0.000 C 
ATOM     18  O   UNL     1      84.519  63.322  92.918  0.00  0.00    +0.000 OA
ENDBRANCH  16  17
ENDBRANCH   3  16
TORSDOF 5
ENDMDL
