MODEL 1
REMARK VINA RESULT:      -4.4      0.000      0.000
REMARK  Name = *****
REMARK  4 active torsions:
REMARK  status: ('A' for Active; 'I' for Inactive)
REMARK    1  A    between atoms: C_4  and  C_7
REMARK    2  A    between atoms: C_7  and  C_8
REMARK    3  A    between atoms: C_8  and  C_9
REMARK    4  A    between atoms: C_9  and  C_10
REMARK                            x       y       z     vdW  Elec       q    Type
REMARK                         _______ _______ _______ _____ _____    ______ ____
ROOT
ATOM      1  C   UNL     1      87.175  69.919  88.406  0.00  0.00    +0.000 C 
ENDROOT
BRANCH   1   2
ATOM      2  C   UNL     1      88.700  70.021  88.334  0.00  0.00    +0.000 C 
ATOM      3  F   UNL     1      89.058  71.252  88.809  0.00  0.00    +0.000 F 
BRANCH   2   4
ATOM      4  C   UNL     1      89.205  69.780  86.930  0.00  0.00    +0.000 A 
ATOM      5  C   UNL     1      89.240  68.483  86.399  0.00  0.00    +0.000 A 
ATOM      6  C   UNL     1      89.718  68.258  85.107  0.00  0.00    +0.000 A 
ATOM      7  C   UNL     1      90.166  69.325  84.332  0.00  0.00    +0.000 A 
ATOM      8  C   UNL     1      90.139  70.619  84.848  0.00  0.00    +0.000 A 
ATOM      9  C   UNL     1      89.662  70.848  86.140  0.00  0.00    +0.000 A 
ENDBRANCH   2   4
ENDBRANCH   1   2
BRANCH   1  10
ATOM     10  C   UNL     1      86.549  71.288  88.675  0.00  0.00    +0.000 C 
BRANCH  10  14
ATOM     11  C   UNL     1      84.046  72.592  85.414  0.00  0.00    +0.000 A 
ATOM     12  C   UNL     1      85.281  72.000  85.152  0.00  0.00    +0.000 A 
ATOM     13  C   UNL     1      86.090  71.573  86.206  0.00  0.00    +0.000 A 
ATOM     14  C   UNL     1      85.668  71.729  87.533  0.00  0.00    +0.000 A 
ATOM     15  C   UNL     1      84.428  72.331  87.786  0.00  0.00    +0.000 A 
ATOM     16  C   UNL     1      83.620  72.758  86.730  0.00  0.00    +0.000 A 
ENDBRANCH  10  14
ENDBRANCH   1  10
TORSDOF 4
ENDMDL
