REMARK  Name = *****
REMARK  2 active torsions:
REMARK  status: ('A' for Active; 'I' for Inactive)
REMARK    1  A    between atoms: C_6  and  N_7
REMARK    2  A    between atoms: C_8  and  C_9
REMARK                            x       y       z     vdW  Elec       q    Type
REMARK                         _______ _______ _______ _____ _____    ______ ____
ROOT
ATOM      1  C   UNL     1       6.018   1.023  -0.025  0.00  0.00    +0.000 A 
ATOM      2  C   UNL     1       6.667   2.171  -0.479  0.00  0.00    +0.000 A 
ATOM      3  C   UNL     1       8.053   2.271  -0.413  0.00  0.00    +0.000 A 
ATOM      4  C   UNL     1       8.802   1.225   0.105  0.00  0.00    +0.000 A 
ATOM      5  C   UNL     1       8.165   0.078   0.558  0.00  0.00    +0.000 A 
ATOM      6  C   UNL     1       6.777  -0.027   0.495  0.00  0.00    +0.000 A 
ATOM      7  F   UNL     1       6.205  -1.155   0.939  0.00  0.00    +0.000 F 
ATOM      8  F   UNL     1       8.889  -0.934   1.056  0.00  0.00    +0.000 F 
ATOM      9  F   UNL     1      10.137   1.321   0.167  0.00  0.00    +0.000 F 
ATOM     10  F   UNL     1       8.664   3.380  -0.851  0.00  0.00    +0.000 F 
ATOM     11  F   UNL     1       5.962   3.195  -0.982  0.00  0.00    +0.000 F 
ENDROOT
BRANCH   1  13
ATOM     12  N   UNL     1       3.859  -0.023   0.318  0.00  0.00    +0.000 NA
ATOM     13  C   UNL     1       4.551   0.979  -0.119  0.00  0.00    +0.000 C 
BRANCH  12  19
ATOM     14  C   UNL     1       1.691   0.746   1.105  0.00  0.00    +0.000 A 
ATOM     15  C   UNL     1       0.304   0.822   0.953  0.00  0.00    +0.000 A 
ATOM     16  C   UNL     1      -0.305   0.206  -0.139  0.00  0.00    +0.000 A 
ATOM     17  C   UNL     1       0.459  -0.487  -1.076  0.00  0.00    +0.000 A 
ATOM     18  C   UNL     1       1.846  -0.559  -0.920  0.00  0.00    +0.000 A 
ATOM     19  C   UNL     1       2.470   0.068   0.162  0.00  0.00    +0.000 A 
ATOM     20 CL   UNL     1      -2.013   0.297  -0.328  0.00  0.00    +0.000 Cl
ENDBRANCH  12  19
ENDBRANCH   1  13
TORSDOF 2
