MODEL 1
REMARK VINA RESULT:      -4.4      0.000      0.000
REMARK  Name = *****
REMARK  3 active torsions:
REMARK  status: ('A' for Active; 'I' for Inactive)
REMARK    1  A    between atoms: C_3  and  S_8
REMARK    2  A    between atoms: S_8  and  S_9
REMARK    3  A    between atoms: S_9  and  C_11
REMARK                            x       y       z     vdW  Elec       q    Type
REMARK                         _______ _______ _______ _____ _____    ______ ____
ROOT
ATOM      1  S   UNL     1     103.717 127.564  82.370  0.00  0.00    +0.000 S 
ATOM      2  O   UNL     1     104.180 128.991  82.304  0.00  0.00    +0.000 OA
ENDROOT
BRANCH   1   3
ATOM      3  C   UNL     1     101.943 127.637  82.727  0.00  0.00    +0.000 A 
ATOM      4  C   UNL     1     101.429 128.707  83.476  0.00  0.00    +0.000 A 
ATOM      5  C   UNL     1     100.059 128.780  83.746  0.00  0.00    +0.000 A 
ATOM      6  C   UNL     1      99.211 127.791  83.262  0.00  0.00    +0.000 A 
ATOM      7  C   UNL     1      99.702 126.730  82.512  0.00  0.00    +0.000 A 
ATOM      8  C   UNL     1     101.070 126.653  82.242  0.00  0.00    +0.000 A 
ATOM      9  F   UNL     1      97.899 127.864  83.522  0.00  0.00    +0.000 F 
ENDBRANCH   1   3
BRANCH   1  10
ATOM     10  S   UNL     1     103.674 127.123  80.389  0.00  0.00    +0.000 S 
BRANCH  10  13
ATOM     11  C   UNL     1     106.012 123.936  79.444  0.00  0.00    +0.000 A 
ATOM     12  C   UNL     1     105.429 125.205  79.460  0.00  0.00    +0.000 A 
ATOM     13  C   UNL     1     104.394 125.493  80.360  0.00  0.00    +0.000 A 
ATOM     14  C   UNL     1     103.962 124.504  81.252  0.00  0.00    +0.000 A 
ATOM     15  C   UNL     1     104.546 123.235  81.236  0.00  0.00    +0.000 A 
ATOM     16  C   UNL     1     105.564 122.964  80.331  0.00  0.00    +0.000 A 
ATOM     17  F   UNL     1     106.126 121.747  80.314  0.00  0.00    +0.000 F 
ENDBRANCH  10  13
ENDBRANCH   1  10
TORSDOF 3
ENDMDL
