MODEL 1
REMARK VINA RESULT:      -5.1      0.000      0.000
REMARK  Name = *****
REMARK  4 active torsions:
REMARK  status: ('A' for Active; 'I' for Inactive)
REMARK    1  A    between atoms: C_6  and  C_7
REMARK    2  A    between atoms: C_8  and  C_9
REMARK    3  A    between atoms: C_8  and  C_11
REMARK    4  A    between atoms: C_9  and  O_10
REMARK                            x       y       z     vdW  Elec       q    Type
REMARK                         _______ _______ _______ _____ _____    ______ ____
ROOT
ATOM      1  C   UNL     1     101.599 127.760  83.208  0.00  0.00    +0.000 C 
ATOM      2  C   UNL     1     100.252 127.765  83.247  0.00  0.00    +0.000 C 
ENDROOT
BRANCH   1   8
ATOM      3  C   UNL     1     102.808 127.121  81.139  0.00  0.00    +0.000 A 
ATOM      4  C   UNL     1     103.580 126.215  80.408  0.00  0.00    +0.000 A 
ATOM      5  C   UNL     1     103.937 124.993  80.976  0.00  0.00    +0.000 A 
ATOM      6  C   UNL     1     103.529 124.670  82.270  0.00  0.00    +0.000 A 
ATOM      7  C   UNL     1     102.759 125.577  83.002  0.00  0.00    +0.000 A 
ATOM      8  C   UNL     1     102.398 126.806  82.440  0.00  0.00    +0.000 A 
ATOM      9 CL   UNL     1     104.886 123.877  80.075  0.00  0.00    +0.000 Cl
ENDBRANCH   1   8
BRANCH   2  10
ATOM     10  C   UNL     1      99.582 128.779  84.086  0.00  0.00    +0.000 A 
ATOM     11  C   UNL     1      99.736 130.147  83.810  0.00  0.00    +0.000 A 
ATOM     12  C   UNL     1      99.101 131.103  84.606  0.00  0.00    +0.000 A 
ATOM     13  C   UNL     1      98.320 130.692  85.680  0.00  0.00    +0.000 A 
ATOM     14  C   UNL     1      98.156 129.342  85.970  0.00  0.00    +0.000 A 
ATOM     15  C   UNL     1      98.784 128.385  85.170  0.00  0.00    +0.000 A 
ATOM     16  F   UNL     1      97.716 131.609  86.446  0.00  0.00    +0.000 F 
ENDBRANCH   2  10
BRANCH   2  17
ATOM     17  C   UNL     1      99.347 126.830  82.488  0.00  0.00    +0.000 C 
BRANCH  17  18
ATOM     18  O   UNL     1      98.277 127.562  81.902  0.00  0.00    +0.000 OA
ATOM     19  H   UNL     1      97.449 127.338  82.352  0.00  0.00    +0.000 HD
ENDBRANCH  17  18
ENDBRANCH   2  17
TORSDOF 4
ENDMDL
