REMARK  Name = *****
REMARK  3 active torsions:
REMARK  status: ('A' for Active; 'I' for Inactive)
REMARK    1  A    between atoms: C_6  and  O_7
REMARK    2  A    between atoms: O_7  and  C_8
REMARK    3  A    between atoms: C_8  and  C_10
REMARK                            x       y       z     vdW  Elec       q    Type
REMARK                         _______ _______ _______ _____ _____    ______ ____
ROOT
ATOM      1  O   UNL     1      -1.671   1.538  -1.099  0.00  0.00    +0.000 OA
ENDROOT
BRANCH   1   7
ATOM      2  C   UNL     1       0.151   1.366   0.516  0.00  0.00    +0.000 C 
ATOM      3  C   UNL     1       1.201   0.658  -0.341  0.00  0.00    +0.000 C 
ATOM      4  C   UNL     1       1.110  -0.860  -0.185  0.00  0.00    +0.000 C 
ATOM      5  C   UNL     1      -0.302  -1.362  -0.220  0.00  0.00    +0.000 C 
ATOM      6  C   UNL     1      -1.371  -0.560  -0.092  0.00  0.00    +0.000 C 
ATOM      7  C   UNL     1      -1.275   0.926   0.138  0.00  0.00    +0.000 C 
ATOM      8  F   UNL     1       1.831  -1.434  -1.187  0.00  0.00    +0.000 F 
ENDBRANCH   1   7
BRANCH   1   9
ATOM      9  C   UNL     1      -2.160   2.798  -1.003  0.00  0.00    +0.000 C 
ATOM     10  O   UNL     1      -2.291   3.438   0.028  0.00  0.00    +0.000 OA
BRANCH   9  11
ATOM     11  C   UNL     1      -2.527   3.318  -2.349  0.00  0.00    +0.000 A 
ATOM     12  C   UNL     1      -3.108   4.591  -2.430  0.00  0.00    +0.000 A 
ATOM     13  C   UNL     1      -3.468   5.123  -3.670  0.00  0.00    +0.000 A 
ATOM     14  C   UNL     1      -3.250   4.388  -4.834  0.00  0.00    +0.000 A 
ATOM     15  C   UNL     1      -2.671   3.121  -4.762  0.00  0.00    +0.000 A 
ATOM     16  C   UNL     1      -2.310   2.585  -3.523  0.00  0.00    +0.000 A 
ENDBRANCH   9  11
ENDBRANCH   1   9
TORSDOF 3
