MODEL 1
REMARK VINA RESULT:      -4.6      0.000      0.000
REMARK  Name = *****
REMARK  5 active torsions:
REMARK  status: ('A' for Active; 'I' for Inactive)
REMARK    1  A    between atoms: C_1  and  N_2
REMARK    2  A    between atoms: N_2  and  C_3
REMARK    3  A    between atoms: C_6  and  S_11
REMARK    4  A    between atoms: S_11  and  C_12
REMARK    5  A    between atoms: C_12  and  C_13
REMARK                            x       y       z     vdW  Elec       q    Type
REMARK                         _______ _______ _______ _____ _____    ______ ____
ROOT
ATOM      1  C   UNL     1      87.322  64.056  87.560  0.00  0.00    +0.000 C 
ATOM      2  N   UNL     1      87.097  65.482  87.380  0.00  0.00    +0.000 N 
ATOM      3  C   UNL     1      86.220  66.136  88.341  0.00  0.00    +0.000 C 
ATOM      4  C   UNL     1      88.222  66.220  87.010  0.00  0.00    +0.000 C 
ATOM      5  N   UNL     1      88.220  67.535  87.205  0.00  0.00    +0.000 NA
ATOM      6  C   UNL     1      89.294  68.213  86.805  0.00  0.00    +0.000 C 
ATOM      7  N   UNL     1      90.361  67.679  86.238  0.00  0.00    +0.000 NA
ATOM      8  C   UNL     1      90.253  66.371  86.097  0.00  0.00    +0.000 C 
ATOM      9  N   UNL     1      89.243  65.589  86.448  0.00  0.00    +0.000 NA
ATOM     10 CL   UNL     1      91.588  65.587  85.373  0.00  0.00    +0.000 Cl
ENDROOT
BRANCH   6  11
ATOM     11  S   UNL     1      89.270  69.962  87.108  0.00  0.00    +0.000 S 
BRANCH  11  12
ATOM     12  C   UNL     1      87.882  70.053  88.278  0.00  0.00    +0.000 C 
BRANCH  12  13
ATOM     13  C   UNL     1      86.749  70.881  87.723  0.00  0.00    +0.000 A 
ATOM     14  C   UNL     1      85.785  71.435  88.578  0.00  0.00    +0.000 A 
ATOM     15  C   UNL     1      84.732  72.192  88.062  0.00  0.00    +0.000 A 
ATOM     16  C   UNL     1      84.629  72.400  86.688  0.00  0.00    +0.000 A 
ATOM     17  C   UNL     1      85.576  71.847  85.827  0.00  0.00    +0.000 A 
ATOM     18  C   UNL     1      86.630  71.091  86.341  0.00  0.00    +0.000 A 
ENDBRANCH  12  13
ENDBRANCH  11  12
ENDBRANCH   6  11
TORSDOF 3
ENDMDL
