MODEL 1
REMARK VINA RESULT:      -5.3      0.000      0.000
REMARK  Name = *****
REMARK  4 active torsions:
REMARK  status: ('A' for Active; 'I' for Inactive)
REMARK    1  A    between atoms: C_1  and  C_2
REMARK    2  A    between atoms: C_5  and  C_8
REMARK    3  A    between atoms: C_9  and  C_10
REMARK    4  A    between atoms: C_15  and  C_16
REMARK                            x       y       z     vdW  Elec       q    Type
REMARK                         _______ _______ _______ _____ _____    ______ ____
ROOT
ATOM      1  C   UNL     1     102.522 127.384  82.140  0.00  0.00    +0.000 C 
ATOM      2  C   UNL     1     101.720 127.466  83.214  0.00  0.00    +0.000 C 
ENDROOT
BRANCH   1   7
ATOM      3  C   UNL     1     105.155 122.472  80.573  0.00  0.00    +0.000 C 
ATOM      4  C   UNL     1     104.495 123.758  80.973  0.00  0.00    +0.000 A 
ATOM      5  C   UNL     1     104.292 124.775  80.035  0.00  0.00    +0.000 A 
ATOM      6  C   UNL     1     103.647 125.960  80.402  0.00  0.00    +0.000 A 
ATOM      7  C   UNL     1     103.176 126.141  81.708  0.00  0.00    +0.000 A 
ATOM      8  C   UNL     1     103.383 125.123  82.645  0.00  0.00    +0.000 A 
ATOM      9  C   UNL     1     104.027 123.937  82.278  0.00  0.00    +0.000 A 
ENDBRANCH   1   7
BRANCH   2  10
ATOM     10  C   UNL     1     101.062 128.718  83.624  0.00  0.00    +0.000 A 
ATOM     11  C   UNL     1     101.807 129.707  84.286  0.00  0.00    +0.000 A 
ATOM     12  C   UNL     1     101.205 130.894  84.707  0.00  0.00    +0.000 A 
ATOM     13  C   UNL     1      99.848 131.109  84.477  0.00  0.00    +0.000 A 
ATOM     14  C   UNL     1      99.092 130.132  83.831  0.00  0.00    +0.000 A 
ATOM     15  C   UNL     1      99.688 128.935  83.405  0.00  0.00    +0.000 A 
BRANCH  15  16
ATOM     16  C   UNL     1      98.869 127.961  82.741  0.00  0.00    +0.000 C 
ATOM     17  N   UNL     1      98.212 127.161  82.214  0.00  0.00    +0.000 NA
ENDBRANCH  15  16
ENDBRANCH   2  10
TORSDOF 3
ENDMDL
