MODEL 1
REMARK VINA RESULT:      -4.4      0.000      0.000
REMARK  Name = *****
REMARK  3 active torsions:
REMARK  status: ('A' for Active; 'I' for Inactive)
REMARK    1  A    between atoms: C_4  and  N_7
REMARK    2  A    between atoms: N_7  and  C_8
REMARK    3  A    between atoms: C_8  and  C_10
REMARK                            x       y       z     vdW  Elec       q    Type
REMARK                         _______ _______ _______ _____ _____    ______ ____
ROOT
ATOM      1  C   UNL     1      87.768  63.626  86.617  0.00  0.00    +0.000 C 
ATOM      2  S   UNL     1      86.471  63.585  85.551  0.00  0.00    +0.000 S 
ENDROOT
BRANCH   1   3
ATOM      3  C   UNL     1      88.958  64.453  86.264  0.00  0.00    +0.000 A 
ATOM      4  C   UNL     1      89.977  63.855  85.506  0.00  0.00    +0.000 A 
ATOM      5  C   UNL     1      91.100  64.596  85.138  0.00  0.00    +0.000 A 
ATOM      6  C   UNL     1      91.208  65.934  85.518  0.00  0.00    +0.000 A 
ATOM      7  C   UNL     1      90.193  66.535  86.264  0.00  0.00    +0.000 A 
ATOM      8  C   UNL     1      89.064  65.799  86.639  0.00  0.00    +0.000 A 
ATOM      9 CL   UNL     1      87.841  66.605  87.552  0.00  0.00    +0.000 Cl
ENDBRANCH   1   3
BRANCH   1  10
ATOM     10  N   UNL     1      87.937  62.961  87.826  0.00  0.00    +0.000 N 
ATOM     11  H   UNL     1      88.157  62.006  87.725  0.00  0.00    +0.000 HD
BRANCH  10  15
ATOM     12  C   UNL     1      87.936  64.279  91.844  0.00  0.00    +0.000 A 
ATOM     13  C   UNL     1      86.717  64.079  91.203  0.00  0.00    +0.000 A 
ATOM     14  C   UNL     1      86.678  63.639  89.874  0.00  0.00    +0.000 A 
ATOM     15  C   UNL     1      87.856  63.387  89.172  0.00  0.00    +0.000 A 
ATOM     16  C   UNL     1      89.078  63.612  89.826  0.00  0.00    +0.000 A 
ATOM     17  C   UNL     1      89.119  64.048  91.153  0.00  0.00    +0.000 A 
ENDBRANCH  10  15
ENDBRANCH   1  10
TORSDOF 3
ENDMDL
