MODEL 1
REMARK VINA RESULT:      -4.5      0.000      0.000
REMARK  Name = *****
REMARK  4 active torsions:
REMARK  status: ('A' for Active; 'I' for Inactive)
REMARK    1  A    between atoms: C_4  and  C_7
REMARK    2  A    between atoms: C_7  and  C_9
REMARK    3  A    between atoms: C_9  and  S_10
REMARK    4  A    between atoms: S_10  and  C_11
REMARK                            x       y       z     vdW  Elec       q    Type
REMARK                         _______ _______ _______ _____ _____    ______ ____
ROOT
ATOM      1  C   UNL     1      99.317 127.437  82.861  0.00  0.00    +0.000 C 
ATOM      2  O   UNL     1      98.461 127.158  82.024  0.00  0.00    +0.000 OA
ENDROOT
BRANCH   1   6
ATOM      3  C   UNL     1      98.603 130.781  85.467  0.00  0.00    +0.000 A 
ATOM      4  C   UNL     1      99.277 130.985  84.263  0.00  0.00    +0.000 A 
ATOM      5  C   UNL     1      99.520 129.911  83.403  0.00  0.00    +0.000 A 
ATOM      6  C   UNL     1      99.085 128.622  83.743  0.00  0.00    +0.000 A 
ATOM      7  C   UNL     1      98.415 128.426  84.960  0.00  0.00    +0.000 A 
ATOM      8  C   UNL     1      98.174 129.501  85.817  0.00  0.00    +0.000 A 
ENDBRANCH   1   6
BRANCH   1   9
ATOM      9  C   UNL     1     100.590 126.633  83.078  0.00  0.00    +0.000 C 
BRANCH   9  10
ATOM     10  S   UNL     1     102.046 127.437  82.335  0.00  0.00    +0.000 S 
BRANCH  10  11
ATOM     11  C   UNL     1     103.002 125.987  81.939  0.00  0.00    +0.000 A 
ATOM     12  C   UNL     1     103.444 125.745  80.634  0.00  0.00    +0.000 A 
ATOM     13  C   UNL     1     104.190 124.600  80.345  0.00  0.00    +0.000 A 
ATOM     14  C   UNL     1     104.491 123.689  81.355  0.00  0.00    +0.000 A 
ATOM     15  C   UNL     1     104.042 123.917  82.655  0.00  0.00    +0.000 A 
ATOM     16  C   UNL     1     103.295 125.062  82.945  0.00  0.00    +0.000 A 
ENDBRANCH  10  11
ENDBRANCH   9  10
ENDBRANCH   1   9
TORSDOF 4
ENDMDL
