MODEL 1
REMARK VINA RESULT:      -4.6      0.000      0.000
REMARK  Name = *****
REMARK  3 active torsions:
REMARK  status: ('A' for Active; 'I' for Inactive)
REMARK    1  A    between atoms: C_6  and  O_7
REMARK    2  A    between atoms: O_7  and  C_8
REMARK    3  A    between atoms: C_8  and  C_10
REMARK                            x       y       z     vdW  Elec       q    Type
REMARK                         _______ _______ _______ _____ _____    ______ ____
ROOT
ATOM      1  C   UNL     1     101.816 126.024  82.946  0.00  0.00    +0.000 C 
ATOM      2  O   UNL     1     102.232 125.329  83.859  0.00  0.00    +0.000 OA
ENDROOT
BRANCH   1   3
ATOM      3  C   UNL     1     101.015 127.245  83.179  0.00  0.00    +0.000 A 
ATOM      4  C   UNL     1      99.683 127.359  82.769  0.00  0.00    +0.000 A 
ATOM      5  C   UNL     1      98.963 128.528  83.001  0.00  0.00    +0.000 A 
ATOM      6  C   UNL     1      99.585 129.591  83.641  0.00  0.00    +0.000 A 
ATOM      7  C   UNL     1     100.914 129.508  84.047  0.00  0.00    +0.000 A 
ATOM      8  C   UNL     1     101.634 128.335  83.812  0.00  0.00    +0.000 A 
ATOM      9  F   UNL     1      98.898 130.718  83.867  0.00  0.00    +0.000 F 
ATOM     10  F   UNL     1      99.069 126.362  82.116  0.00  0.00    +0.000 F 
ENDBRANCH   1   3
BRANCH   1  11
ATOM     11  O   UNL     1     101.927 125.792  81.589  0.00  0.00    +0.000 OA
BRANCH  11  17
ATOM     12  C   UNL     1     103.799 127.229  80.946  0.00  0.00    +0.000 A 
ATOM     13  C   UNL     1     105.084 127.339  80.412  0.00  0.00    +0.000 A 
ATOM     14  C   UNL     1     105.752 126.196  79.968  0.00  0.00    +0.000 A 
ATOM     15  C   UNL     1     105.149 124.941  80.060  0.00  0.00    +0.000 A 
ATOM     16  C   UNL     1     103.864 124.826  80.592  0.00  0.00    +0.000 A 
ATOM     17  C   UNL     1     103.192 125.974  81.012  0.00  0.00    +0.000 A 
ATOM     18 CL   UNL     1     107.338 126.335  79.314  0.00  0.00    +0.000 Cl
ENDBRANCH  11  17
ENDBRANCH   1  11
TORSDOF 3
ENDMDL
