MODEL 1
REMARK VINA RESULT:      -4.8      0.000      0.000
REMARK  Name = *****
REMARK  6 active torsions:
REMARK  status: ('A' for Active; 'I' for Inactive)
REMARK    1  A    between atoms: C_1  and  C_2
REMARK    2  A    between atoms: C_2  and  O_4
REMARK    3  A    between atoms: O_4  and  C_5
REMARK    4  A    between atoms: C_5  and  C_6
REMARK    5  A    between atoms: C_5  and  C_13
REMARK    6  A    between atoms: C_6  and  C_7
REMARK                            x       y       z     vdW  Elec       q    Type
REMARK                         _______ _______ _______ _____ _____    ______ ____
ROOT
ATOM      1  C   UNL     1      88.762  69.801  86.423  0.00  0.00    +0.000 C 
ENDROOT
BRANCH   1   2
ATOM      2  C   UNL     1      88.896  68.294  86.602  0.00  0.00    +0.000 A 
ATOM      3  C   UNL     1      89.979  67.560  86.089  0.00  0.00    +0.000 A 
ATOM      4  C   UNL     1      90.050  66.176  86.269  0.00  0.00    +0.000 A 
ATOM      5  C   UNL     1      89.037  65.518  86.954  0.00  0.00    +0.000 A 
ATOM      6  C   UNL     1      87.949  66.216  87.460  0.00  0.00    +0.000 A 
ATOM      7  C   UNL     1      87.877  67.599  87.281  0.00  0.00    +0.000 A 
ATOM      8  F   UNL     1      89.107  64.191  87.122  0.00  0.00    +0.000 F 
ENDBRANCH   1   2
BRANCH   1   9
ATOM      9  O   UNL     1      89.977  70.335  85.844  0.00  0.00    +0.000 OA
BRANCH   9  11
ATOM     10  C   UNL     1      90.386  70.197  83.549  0.00  0.00    +0.000 C 
ATOM     11  C   UNL     1      89.908  71.044  84.689  0.00  0.00    +0.000 C 
ATOM     12  O   UNL     1      89.506  72.192  84.566  0.00  0.00    +0.000 OA
ENDBRANCH   9  11
ENDBRANCH   1   9
BRANCH   1  13
ATOM     13  C   UNL     1      88.238  70.603  87.638  0.00  0.00    +0.000 C 
BRANCH  13  14
ATOM     14  C   UNL     1      86.872  71.210  87.400  0.00  0.00    +0.000 A 
ATOM     15  C   UNL     1      86.410  71.440  86.097  0.00  0.00    +0.000 A 
ATOM     16  C   UNL     1      85.155  72.012  85.883  0.00  0.00    +0.000 A 
ATOM     17  C   UNL     1      84.351  72.359  86.968  0.00  0.00    +0.000 A 
ATOM     18  C   UNL     1      84.801  72.132  88.267  0.00  0.00    +0.000 A 
ATOM     19  C   UNL     1      86.054  71.560  88.483  0.00  0.00    +0.000 A 
ENDBRANCH  13  14
ENDBRANCH   1  13
TORSDOF 5
ENDMDL
