REMARK  Name = *****
REMARK  3 active torsions:
REMARK  status: ('A' for Active; 'I' for Inactive)
REMARK    1  A    between atoms: C_4  and  C_7
REMARK    2  A    between atoms: C_7  and  C_8
REMARK    3  A    between atoms: C_8  and  C_9
REMARK                            x       y       z     vdW  Elec       q    Type
REMARK                         _______ _______ _______ _____ _____    ______ ____
ROOT
ATOM      1  C   UNL     1       3.144  -1.932   0.441  0.00  0.00    +0.000 C 
ENDROOT
BRANCH   1   2
ATOM      2  C   UNL     1       4.639  -2.163   0.173  0.00  0.00    +0.000 C 
ATOM      3  C   UNL     1       5.010  -3.626   0.184  0.00  0.00    +0.000 C 
ATOM      4  C   UNL     1       5.638  -4.335   1.135  0.00  0.00    +0.000 C 
ATOM      5  C   UNL     1       6.056  -3.899   2.510  0.00  0.00    +0.000 C 
ATOM      6  C   UNL     1       5.200  -2.801   3.133  0.00  0.00    +0.000 C 
ATOM      7  C   UNL     1       5.452  -1.413   2.564  0.00  0.00    +0.000 C 
ATOM      8  C   UNL     1       5.567  -1.329   1.056  0.00  0.00    +0.000 C 
ATOM      9  O   UNL     1       6.377  -0.546   0.549  0.00  0.00    +0.000 OA
ENDBRANCH   1   2
BRANCH   1  10
ATOM     10  C   UNL     1       2.717  -0.482   0.171  0.00  0.00    +0.000 C 
BRANCH  10  14
ATOM     11  C   UNL     1      -1.449   0.857  -0.166  0.00  0.00    +0.000 C 
ATOM     12  C   UNL     1      -1.190  -0.642  -0.071  0.00  0.00    +0.000 C 
ATOM     13  C   UNL     1       0.267  -0.989  -0.370  0.00  0.00    +0.000 C 
ATOM     14  C   UNL     1       1.241  -0.203   0.522  0.00  0.00    +0.000 C 
ATOM     15  C   UNL     1       0.963   1.307   0.419  0.00  0.00    +0.000 C 
ATOM     16  C   UNL     1      -0.494   1.642   0.726  0.00  0.00    +0.000 C 
ENDBRANCH  10  14
ENDBRANCH   1  10
TORSDOF 3
