MODEL 1
REMARK VINA RESULT:      -4.4      0.000      0.000
REMARK  Name = *****
REMARK  4 active torsions:
REMARK  status: ('A' for Active; 'I' for Inactive)
REMARK    1  A    between atoms: C_4  and  O_7
REMARK    2  A    between atoms: O_7  and  C_8
REMARK    3  A    between atoms: C_8  and  S_10
REMARK    4  A    between atoms: S_10  and  C_11
REMARK                            x       y       z     vdW  Elec       q    Type
REMARK                         _______ _______ _______ _____ _____    ______ ____
ROOT
ATOM      1  C   UNL     1     102.630 125.461  83.276  0.00  0.00    +0.000 C 
ATOM      2  O   UNL     1     102.281 125.098  84.393  0.00  0.00    +0.000 OA
ENDROOT
BRANCH   1   3
ATOM      3  O   UNL     1     101.776 125.902  82.267  0.00  0.00    +0.000 OA
BRANCH   3   7
ATOM      4  C   UNL     1      99.130 128.931  83.350  0.00  0.00    +0.000 A 
ATOM      5  C   UNL     1     100.496 129.084  83.601  0.00  0.00    +0.000 A 
ATOM      6  C   UNL     1     101.386 128.070  83.252  0.00  0.00    +0.000 A 
ATOM      7  C   UNL     1     100.893 126.905  82.669  0.00  0.00    +0.000 A 
ATOM      8  C   UNL     1      99.537 126.748  82.395  0.00  0.00    +0.000 A 
ATOM      9  C   UNL     1      98.651 127.767  82.745  0.00  0.00    +0.000 A 
ENDBRANCH   3   7
ENDBRANCH   1   3
BRANCH   1  10
ATOM     10  S   UNL     1     104.342 125.425  82.839  0.00  0.00    +0.000 S 
BRANCH  10  11
ATOM     11  C   UNL     1     104.484 123.730  82.313  0.00  0.00    +0.000 A 
ATOM     12  C   UNL     1     104.624 123.412  80.957  0.00  0.00    +0.000 A 
ATOM     13  C   UNL     1     104.731 122.079  80.555  0.00  0.00    +0.000 A 
ATOM     14  C   UNL     1     104.703 121.060  81.505  0.00  0.00    +0.000 A 
ATOM     15  C   UNL     1     104.575 121.371  82.857  0.00  0.00    +0.000 A 
ATOM     16  C   UNL     1     104.468 122.702  83.262  0.00  0.00    +0.000 A 
ENDBRANCH  10  11
ENDBRANCH   1  10
TORSDOF 4
ENDMDL
