MODEL 1
REMARK VINA RESULT:      -4.6      0.000      0.000
REMARK  Name = *****
REMARK  1 active torsions:
REMARK  status: ('A' for Active; 'I' for Inactive)
REMARK    1  A    between atoms: N_10  and  C_11
REMARK                            x       y       z     vdW  Elec       q    Type
REMARK                         _______ _______ _______ _____ _____    ______ ____
ROOT
ATOM      1  C   UNL     1     103.085 125.039  82.176  0.00  0.00    +0.000 C 
ATOM      2  C   UNL     1     104.142 124.550  81.237  0.00  0.00    +0.000 A 
ATOM      3  C   UNL     1     104.579 123.238  81.083  0.00  0.00    +0.000 A 
ATOM      4  C   UNL     1     105.565 122.967  80.132  0.00  0.00    +0.000 A 
ATOM      5  C   UNL     1     106.101 123.997  79.348  0.00  0.00    +0.000 A 
ATOM      6  C   UNL     1     105.659 125.311  79.513  0.00  0.00    +0.000 A 
ATOM      7  C   UNL     1     104.684 125.569  80.467  0.00  0.00    +0.000 A 
ATOM      8  S   UNL     1     104.012 127.169  80.863  0.00  0.00    +0.000 S 
ATOM      9  O   UNL     1     103.406 127.692  79.596  0.00  0.00    +0.000 OA
ATOM     10  N   UNL     1     102.844 126.450  81.854  0.00  0.00    +0.000 N 
ENDROOT
BRANCH  10  11
ATOM     11  C   UNL     1     101.817 127.165  82.496  0.00  0.00    +0.000 A 
ATOM     12  C   UNL     1     100.471 126.758  82.439  0.00  0.00    +0.000 A 
ATOM     13  C   UNL     1      99.446 127.473  83.075  0.00  0.00    +0.000 A 
ATOM     14  C   UNL     1      99.741 128.624  83.792  0.00  0.00    +0.000 A 
ATOM     15  C   UNL     1     101.057 129.054  83.878  0.00  0.00    +0.000 A 
ATOM     16  C   UNL     1     102.077 128.333  83.241  0.00  0.00    +0.000 A 
ENDBRANCH  10  11
TORSDOF 1
ENDMDL
