MODEL 1
REMARK VINA RESULT:      -4.8      0.000      0.000
REMARK  Name = *****
REMARK  3 active torsions:
REMARK  status: ('A' for Active; 'I' for Inactive)
REMARK    1  A    between atoms: C_1  and  C_2
REMARK    2  A    between atoms: C_5  and  C_8
REMARK    3  A    between atoms: C_9  and  C_10
REMARK                            x       y       z     vdW  Elec       q    Type
REMARK                         _______ _______ _______ _____ _____    ______ ____
ROOT
ATOM      1  C   UNL     1     101.893 125.880  82.229  0.00  0.00    +0.000 C 
ATOM      2  C   UNL     1     103.080 125.493  82.723  0.00  0.00    +0.000 C 
ENDROOT
BRANCH   2   3
ATOM      3  C   UNL     1     103.843 124.337  82.265  0.00  0.00    +0.000 C 
ATOM      4  C   UNL     1     105.307 124.411  81.899  0.00  0.00    +0.000 C 
ATOM      5  C   UNL     1     104.260 124.146  80.825  0.00  0.00    +0.000 C 
ATOM      6  C   UNL     1     104.580 125.201  79.755  0.00  0.00    +0.000 C 
ATOM      7  C   UNL     1     105.065 126.417  80.558  0.00  0.00    +0.000 C 
ATOM      8  C   UNL     1     106.109 125.591  81.326  0.00  0.00    +0.000 C 
ATOM      9  C   UNL     1     106.861 125.093  80.094  0.00  0.00    +0.000 C 
ATOM     10  C   UNL     1     105.935 124.856  79.143  0.00  0.00    +0.000 C 
ENDBRANCH   2   3
BRANCH   1  15
ATOM     11  C   UNL     1      99.156 130.546  84.248  0.00  0.00    +0.000 C 
ATOM     12  C   UNL     1      99.868 129.348  83.694  0.00  0.00    +0.000 A 
ATOM     13  C   UNL     1     101.261 129.239  83.794  0.00  0.00    +0.000 A 
ATOM     14  C   UNL     1     101.920 128.107  83.307  0.00  0.00    +0.000 A 
ATOM     15  C   UNL     1     101.195 127.064  82.728  0.00  0.00    +0.000 A 
ATOM     16  C   UNL     1      99.802 127.162  82.640  0.00  0.00    +0.000 A 
ATOM     17  C   UNL     1      99.143 128.296  83.123  0.00  0.00    +0.000 A 
ENDBRANCH   1  15
TORSDOF 2
ENDMDL
