MODEL 1
REMARK VINA RESULT:      -4.2      0.000      0.000
REMARK  Name = *****
REMARK  6 active torsions:
REMARK  status: ('A' for Active; 'I' for Inactive)
REMARK    1  A    between atoms: C_1  and  C_2
REMARK    2  A    between atoms: C_5  and  S_8
REMARK    3  A    between atoms: S_8  and  C_9
REMARK    4  A    between atoms: C_9  and  C_10
REMARK    5  A    between atoms: C_12  and  O_16
REMARK    6  A    between atoms: O_16  and  C_17
REMARK                            x       y       z     vdW  Elec       q    Type
REMARK                         _______ _______ _______ _____ _____    ______ ____
ROOT
ATOM      1  C   UNL     1      87.532  63.620  86.508  0.00  0.00    +0.000 C 
ENDROOT
BRANCH   1   2
ATOM      2  C   UNL     1      87.280  62.779  87.779  0.00  0.00    +0.000 C 
ATOM      3  C   UNL     1      85.754  62.638  87.981  0.00  0.00    +0.000 C 
ATOM      4  C   UNL     1      85.400  62.024  89.341  0.00  0.00    +0.000 C 
ATOM      5  C   UNL     1      85.963  62.894  90.480  0.00  0.00    +0.000 C 
ATOM      6  C   UNL     1      87.341  63.431  90.210  0.00  0.00    +0.000 C 
ATOM      7  C   UNL     1      87.938  63.367  89.011  0.00  0.00    +0.000 C 
BRANCH   4   8
ATOM      8  O   UNL     1      85.932  60.700  89.482  0.00  0.00    +0.000 OA
ATOM      9  C   UNL     1      85.428  59.995  90.607  0.00  0.00    +0.000 C 
ENDBRANCH   4   8
ENDBRANCH   1   2
BRANCH   1  10
ATOM     10  S   UNL     1      89.246  64.266  86.422  0.00  0.00    +0.000 S 
BRANCH  10  15
ATOM     11  C   UNL     1      88.728  70.300  87.226  0.00  0.00    +0.000 C 
ATOM     12  C   UNL     1      88.816  68.819  87.005  0.00  0.00    +0.000 A 
ATOM     13  C   UNL     1      87.823  67.969  87.501  0.00  0.00    +0.000 A 
ATOM     14  C   UNL     1      87.922  66.583  87.333  0.00  0.00    +0.000 A 
ATOM     15  C   UNL     1      89.014  66.022  86.666  0.00  0.00    +0.000 A 
ATOM     16  C   UNL     1      90.019  66.875  86.194  0.00  0.00    +0.000 A 
ATOM     17  C   UNL     1      89.924  68.260  86.363  0.00  0.00    +0.000 A 
ENDBRANCH  10  15
ENDBRANCH   1  10
TORSDOF 4
ENDMDL
