MODEL 1
REMARK VINA RESULT:      -3.7      0.000      0.000
REMARK  Name = *****
REMARK  5 active torsions:
REMARK  status: ('A' for Active; 'I' for Inactive)
REMARK    1  A    between atoms: C_1  and  C_2
REMARK    2  A    between atoms: C_5  and  S_7
REMARK    3  A    between atoms: S_7  and  S_8
REMARK    4  A    between atoms: S_8  and  C_9
REMARK    5  A    between atoms: C_11  and  C_14
REMARK                            x       y       z     vdW  Elec       q    Type
REMARK                         _______ _______ _______ _____ _____    ______ ____
ROOT
ATOM      1  S   UNL     1     103.865 127.081  80.369  0.00  0.00    +0.000 S 
ENDROOT
BRANCH   1   6
ATOM      2  C   UNL     1     104.756 121.798  80.943  0.00  0.00    +0.000 C 
ATOM      3  C   UNL     1     104.919 123.200  80.474  0.00  0.00    +0.000 A 
ATOM      4  N   UNL     1     105.909 123.472  79.623  0.00  0.00    +0.000 NA
ATOM      5  S   UNL     1     105.877 125.088  79.259  0.00  0.00    +0.000 S 
ATOM      6  C   UNL     1     104.523 125.467  80.229  0.00  0.00    +0.000 A 
ATOM      7  C   UNL     1     104.102 124.313  80.857  0.00  0.00    +0.000 A 
ENDBRANCH   1   6
BRANCH   1   8
ATOM      8  S   UNL     1     103.969 127.309  82.413  0.00  0.00    +0.000 S 
BRANCH   8   9
ATOM      9  C   UNL     1     102.265 127.489  82.765  0.00  0.00    +0.000 A 
ATOM     10  C   UNL     1     101.205 126.758  82.271  0.00  0.00    +0.000 A 
ATOM     11  C   UNL     1      99.965 127.234  82.807  0.00  0.00    +0.000 A 
ATOM     12  N   UNL     1     100.054 128.265  83.649  0.00  0.00    +0.000 NA
ATOM     13  S   UNL     1     101.648 128.691  83.811  0.00  0.00    +0.000 S 
ATOM     14  C   UNL     1      98.619 126.677  82.509  0.00  0.00    +0.000 C 
ENDBRANCH   8   9
ENDBRANCH   1   8
TORSDOF 3
ENDMDL
