MODEL 1
REMARK VINA RESULT:      -4.8      0.000      0.000
REMARK  Name = *****
REMARK  5 active torsions:
REMARK  status: ('A' for Active; 'I' for Inactive)
REMARK    1  A    between atoms: C_1  and  C_2
REMARK    2  A    between atoms: C_5  and  S_8
REMARK    3  A    between atoms: S_8  and  C_9
REMARK    4  A    between atoms: C_9  and  C_10
REMARK    5  A    between atoms: C_9  and  C_12
REMARK                            x       y       z     vdW  Elec       q    Type
REMARK                         _______ _______ _______ _____ _____    ______ ____
ROOT
ATOM      1  C   UNL     1      87.367  70.429  87.997  0.00  0.00    +0.000 C 
ENDROOT
BRANCH   1   2
ATOM      2  C   UNL     1      86.195  71.228  87.442  0.00  0.00    +0.000 A 
ATOM      3  C   UNL     1      86.051  71.459  86.061  0.00  0.00    +0.000 A 
ATOM      4  C   UNL     1      84.973  72.196  85.568  0.00  0.00    +0.000 A 
ATOM      5  C   UNL     1      84.023  72.715  86.445  0.00  0.00    +0.000 A 
ATOM      6  C   UNL     1      84.151  72.499  87.816  0.00  0.00    +0.000 A 
ATOM      7  C   UNL     1      85.230  71.763  88.312  0.00  0.00    +0.000 A 
ENDBRANCH   1   2
BRANCH   1   8
ATOM      8  C   UNL     1      87.958  71.077  89.187  0.00  0.00    +0.000 C 
ATOM      9  C   UNL     1      88.452  71.604  90.148  0.00  0.00    +0.000 C 
ENDBRANCH   1   8
BRANCH   1  10
ATOM     10  S   UNL     1      86.842  68.694  88.343  0.00  0.00    +0.000 S 
BRANCH  10  15
ATOM     11  C   UNL     1      91.193  65.663  85.334  0.00  0.00    +0.000 C 
ATOM     12  C   UNL     1      90.103  66.400  86.054  0.00  0.00    +0.000 A 
ATOM     13  C   UNL     1      90.083  67.798  86.073  0.00  0.00    +0.000 A 
ATOM     14  C   UNL     1      89.084  68.482  86.770  0.00  0.00    +0.000 A 
ATOM     15  C   UNL     1      88.092  67.780  87.458  0.00  0.00    +0.000 A 
ATOM     16  C   UNL     1      88.127  66.383  87.468  0.00  0.00    +0.000 A 
ATOM     17  C   UNL     1      89.126  65.698  86.770  0.00  0.00    +0.000 A 
ENDBRANCH  10  15
ENDBRANCH   1  10
TORSDOF 4
ENDMDL
