REMARK  Name = *****
REMARK  5 active torsions:
REMARK  status: ('A' for Active; 'I' for Inactive)
REMARK    1  A    between atoms: C_1  and  C_2
REMARK    2  A    between atoms: C_4  and  O_8
REMARK    3  A    between atoms: O_8  and  C_9
REMARK    4  A    between atoms: C_9  and  C_11
REMARK    5  A    between atoms: C_11  and  C_12
REMARK                            x       y       z     vdW  Elec       q    Type
REMARK                         _______ _______ _______ _____ _____    ______ ____
ROOT
ATOM      1  C   UNL     1      -1.059   3.574   0.210  0.00  0.00    +0.000 C 
ATOM      2  O   UNL     1      -0.355   3.364   1.192  0.00  0.00    +0.000 OA
ENDROOT
BRANCH   1   3
ATOM      3  O   UNL     1      -1.336   2.685  -0.824  0.00  0.00    +0.000 OA
BRANCH   3   7
ATOM      4  C   UNL     1       2.830   0.057  -1.179  0.00  0.00    +0.000 C 
ATOM      5  C   UNL     1       1.357   0.153  -0.915  0.00  0.00    +0.000 A 
ATOM      6  C   UNL     1       0.709   1.393  -0.966  0.00  0.00    +0.000 A 
ATOM      7  C   UNL     1      -0.665   1.463  -0.731  0.00  0.00    +0.000 A 
ATOM      8  C   UNL     1      -1.419   0.317  -0.496  0.00  0.00    +0.000 A 
ATOM      9  C   UNL     1      -0.780  -0.920  -0.463  0.00  0.00    +0.000 A 
ATOM     10  C   UNL     1       0.600  -1.002  -0.673  0.00  0.00    +0.000 A 
ENDBRANCH   3   7
ENDBRANCH   1   3
BRANCH   1  11
ATOM     11  C   UNL     1      -1.781   4.876  -0.043  0.00  0.00    +0.000 C 
BRANCH  11  12
ATOM     12  C   UNL     1      -1.179   5.666  -1.176  0.00  0.00    +0.000 A 
ATOM     13  C   UNL     1      -1.810   5.718  -2.426  0.00  0.00    +0.000 A 
ATOM     14  C   UNL     1      -1.237   6.436  -3.477  0.00  0.00    +0.000 A 
ATOM     15  C   UNL     1      -0.029   7.105  -3.290  0.00  0.00    +0.000 A 
ATOM     16  C   UNL     1       0.609   7.056  -2.052  0.00  0.00    +0.000 A 
ATOM     17  C   UNL     1       0.038   6.339  -1.000  0.00  0.00    +0.000 A 
ENDBRANCH  11  12
ENDBRANCH   1  11
TORSDOF 4
