MODEL 1
REMARK VINA RESULT:      -4.1      0.000      0.000
REMARK  Name = *****
REMARK  6 active torsions:
REMARK  status: ('A' for Active; 'I' for Inactive)
REMARK    1  A    between atoms: C_1  and  C_2
REMARK    2  A    between atoms: C_4  and  C_16
REMARK    3  A    between atoms: C_5  and  C_9
REMARK    4  A    between atoms: C_6  and  C_8
REMARK    5  A    between atoms: C_9  and  S_10
REMARK    6  A    between atoms: S_10  and  C_11
REMARK                            x       y       z     vdW  Elec       q    Type
REMARK                         _______ _______ _______ _____ _____    ______ ____
ROOT
ATOM      1  C   UNL     1      84.322  72.414  88.198  0.00  0.00    +0.000 C 
ATOM      2  C   UNL     1      85.432  71.874  87.347  0.00  0.00    +0.000 A 
ATOM      3  C   UNL     1      86.497  71.180  87.925  0.00  0.00    +0.000 A 
ATOM      4  C   UNL     1      87.529  70.639  87.139  0.00  0.00    +0.000 A 
ATOM      5  C   UNL     1      87.496  70.796  85.729  0.00  0.00    +0.000 A 
ATOM      6  C   UNL     1      86.401  71.476  85.140  0.00  0.00    +0.000 A 
ATOM      7  C   UNL     1      85.386  72.005  85.957  0.00  0.00    +0.000 A 
ATOM      8  C   UNL     1      86.287  71.672  83.651  0.00  0.00    +0.000 C 
ATOM      9  C   UNL     1      88.652  69.918  87.840  0.00  0.00    +0.000 C 
ENDROOT
BRANCH   5  10
ATOM     10  C   UNL     1      88.604  70.221  84.863  0.00  0.00    +0.000 C 
BRANCH  10  11
ATOM     11  S   UNL     1      90.122  71.213  84.962  0.00  0.00    +0.000 S 
BRANCH  11  12
ATOM     12  C   UNL     1      89.843  72.320  83.664  0.00  0.00    +0.000 C 
ATOM     13  N   UNL     1      89.583  73.575  83.826  0.00  0.00    +0.000 NA
ATOM     14  C   UNL     1      89.349  74.189  82.501  0.00  0.00    +0.000 C 
ATOM     15  C   UNL     1      90.072  73.395  81.425  0.00  0.00    +0.000 C 
ATOM     16  S   UNL     1      89.956  71.708  82.039  0.00  0.00    +0.000 S 
ENDBRANCH  11  12
ENDBRANCH  10  11
ENDBRANCH   5  10
TORSDOF 3
ENDMDL
