MODEL 1
REMARK VINA RESULT:      -4.6      0.000      0.000
REMARK  Name = *****
REMARK  4 active torsions:
REMARK  status: ('A' for Active; 'I' for Inactive)
REMARK    1  A    between atoms: C_4  and  C_7
REMARK    2  A    between atoms: C_7  and  O_8
REMARK    3  A    between atoms: O_8  and  C_9
REMARK    4  A    between atoms: C_9  and  C_11
REMARK                            x       y       z     vdW  Elec       q    Type
REMARK                         _______ _______ _______ _____ _____    ______ ____
ROOT
ATOM      1  C   UNL     1      99.302 127.353  82.945  0.00  0.00    +0.000 C 
ATOM      2  O   UNL     1      98.572 126.970  82.049  0.00  0.00    +0.000 OA
ENDROOT
BRANCH   1   3
ATOM      3  C   UNL     1      99.071 128.563  83.771  0.00  0.00    +0.000 A 
ATOM      4  C   UNL     1      99.542 129.826  83.378  0.00  0.00    +0.000 A 
ATOM      5  C   UNL     1      99.325 130.943  84.191  0.00  0.00    +0.000 A 
ATOM      6  C   UNL     1      98.638 130.808  85.397  0.00  0.00    +0.000 A 
ATOM      7  C   UNL     1      98.167 129.557  85.791  0.00  0.00    +0.000 A 
ATOM      8  C   UNL     1      98.385 128.443  84.981  0.00  0.00    +0.000 A 
ATOM      9  F   UNL     1      97.900 127.263  85.393  0.00  0.00    +0.000 F 
ENDBRANCH   1   3
BRANCH   1  10
ATOM     10  O   UNL     1     100.450 126.748  83.337  0.00  0.00    +0.000 OA
BRANCH  10  11
ATOM     11  C   UNL     1     101.238 126.246  82.252  0.00  0.00    +0.000 C 
BRANCH  11  15
ATOM     12  C   UNL     1     104.602 128.886  81.658  0.00  0.00    +0.000 A 
ATOM     13  C   UNL     1     104.209 128.018  80.640  0.00  0.00    +0.000 A 
ATOM     14  C   UNL     1     103.125 127.161  80.832  0.00  0.00    +0.000 A 
ATOM     15  C   UNL     1     102.426 127.154  82.049  0.00  0.00    +0.000 A 
ATOM     16  C   UNL     1     102.823 128.040  83.061  0.00  0.00    +0.000 A 
ATOM     17  C   UNL     1     103.908 128.898  82.866  0.00  0.00    +0.000 A 
ENDBRANCH  11  15
ENDBRANCH  10  11
ENDBRANCH   1  10
TORSDOF 4
ENDMDL
