MODEL 1
REMARK VINA RESULT:      -4.0      0.000      0.000
REMARK  Name = *****
REMARK  4 active torsions:
REMARK  status: ('A' for Active; 'I' for Inactive)
REMARK    1  A    between atoms: C_3  and  S_16
REMARK    2  A    between atoms: C_6  and  C_7
REMARK    3  A    between atoms: N_8  and  C_9
REMARK    4  A    between atoms: C_12  and  S_15
REMARK                            x       y       z     vdW  Elec       q    Type
REMARK                         _______ _______ _______ _____ _____    ______ ____
ROOT
ATOM      1  C   UNL     1      85.742  61.569  89.798  0.00  0.00    +0.000 C 
ATOM      2  N   UNL     1      86.418  61.434  88.701  0.00  0.00    +0.000 NA
ENDROOT
BRANCH   1   8
ATOM      3  C   UNL     1      83.607  60.551  90.526  0.00  0.00    +0.000 A 
ATOM      4  C   UNL     1      82.882  59.497  91.092  0.00  0.00    +0.000 A 
ATOM      5  C   UNL     1      83.540  58.343  91.531  0.00  0.00    +0.000 A 
ATOM      6  C   UNL     1      84.928  58.244  91.393  0.00  0.00    +0.000 A 
ATOM      7  C   UNL     1      85.657  59.295  90.830  0.00  0.00    +0.000 A 
ATOM      8  C   UNL     1      84.995  60.447  90.397  0.00  0.00    +0.000 A 
BRANCH   5   9
ATOM      9  S   UNL     1      82.624  56.995  92.242  0.00  0.00    +0.000 S 
ATOM     10  H   UNL     1      83.353  55.851  92.144  0.00  0.00    +0.000 HD
ENDBRANCH   5   9
ENDBRANCH   1   8
BRANCH   2  11
ATOM     11  C   UNL     1      87.078  62.581  88.244  0.00  0.00    +0.000 A 
ATOM     12  C   UNL     1      87.826  63.365  89.126  0.00  0.00    +0.000 A 
ATOM     13  C   UNL     1      88.499  64.502  88.666  0.00  0.00    +0.000 A 
ATOM     14  C   UNL     1      88.432  64.861  87.318  0.00  0.00    +0.000 A 
ATOM     15  C   UNL     1      87.703  64.065  86.431  0.00  0.00    +0.000 A 
ATOM     16  C   UNL     1      87.032  62.928  86.893  0.00  0.00    +0.000 A 
BRANCH  14  17
ATOM     17  S   UNL     1      89.288  66.298  86.712  0.00  0.00    +0.000 S 
ATOM     18  H   UNL     1      88.385  67.195  86.233  0.00  0.00    +0.000 HD
ENDBRANCH  14  17
ENDBRANCH   2  11
TORSDOF 4
ENDMDL
