MODEL 1
REMARK VINA RESULT:      -4.5      0.000      0.000
REMARK  Name = *****
REMARK  4 active torsions:
REMARK  status: ('A' for Active; 'I' for Inactive)
REMARK    1  A    between atoms: C_4  and  C_7
REMARK    2  A    between atoms: C_7  and  C_8
REMARK    3  A    between atoms: C_8  and  C_9
REMARK    4  A    between atoms: C_14  and  C_15
REMARK                            x       y       z     vdW  Elec       q    Type
REMARK                         _______ _______ _______ _____ _____    ______ ____
ROOT
ATOM      1  C   UNL     1      87.258  69.341  85.303  0.00  0.00    +0.000 C 
ATOM      2  F   UNL     1      85.952  69.017  85.587  0.00  0.00    +0.000 F 
ATOM      3  F   UNL     1      87.268  69.523  83.948  0.00  0.00    +0.000 F 
ENDROOT
BRANCH   1   4
ATOM      4  C   UNL     1      88.192  68.207  85.714  0.00  0.00    +0.000 A 
ATOM      5  C   UNL     1      87.767  67.301  86.707  0.00  0.00    +0.000 A 
ATOM      6  C   UNL     1      88.587  66.253  87.122  0.00  0.00    +0.000 A 
ATOM      7  C   UNL     1      89.846  66.088  86.554  0.00  0.00    +0.000 A 
ATOM      8  C   UNL     1      90.286  66.973  85.569  0.00  0.00    +0.000 A 
ATOM      9  C   UNL     1      89.469  68.033  85.144  0.00  0.00    +0.000 A 
BRANCH   9  10
ATOM     10  C   UNL     1      89.984  68.913  84.130  0.00  0.00    +0.000 C 
ATOM     11  N   UNL     1      90.411  69.622  83.316  0.00  0.00    +0.000 NA
ENDBRANCH   9  10
ENDBRANCH   1   4
BRANCH   1  12
ATOM     12  C   UNL     1      87.611  70.678  86.030  0.00  0.00    +0.000 C 
ATOM     13  F   UNL     1      88.203  71.536  85.139  0.00  0.00    +0.000 F 
ATOM     14  F   UNL     1      88.590  70.429  86.959  0.00  0.00    +0.000 F 
BRANCH  12  18
ATOM     15  C   UNL     1      84.158  72.516  87.873  0.00  0.00    +0.000 A 
ATOM     16  C   UNL     1      84.316  72.564  86.488  0.00  0.00    +0.000 A 
ATOM     17  C   UNL     1      85.427  71.969  85.891  0.00  0.00    +0.000 A 
ATOM     18  C   UNL     1      86.393  71.318  86.674  0.00  0.00    +0.000 A 
ATOM     19  C   UNL     1      86.222  71.275  88.067  0.00  0.00    +0.000 A 
ATOM     20  C   UNL     1      85.109  71.871  88.661  0.00  0.00    +0.000 A 
ENDBRANCH  12  18
ENDBRANCH   1  12
TORSDOF 4
ENDMDL
