REMARK  Name = *****
REMARK  5 active torsions:
REMARK  status: ('A' for Active; 'I' for Inactive)
REMARK    1  A    between atoms: C_1  and  C_2
REMARK    2  A    between atoms: C_4  and  C_17
REMARK    3  A    between atoms: C_7  and  C_8
REMARK    4  A    between atoms: C_8  and  S_10
REMARK    5  A    between atoms: S_10  and  C_11
REMARK                            x       y       z     vdW  Elec       q    Type
REMARK                         _______ _______ _______ _____ _____    ______ ____
ROOT
ATOM      1  C   UNL     1       4.254   2.119   0.178  0.00  0.00    +0.000 C 
ATOM      2  O   UNL     1       4.895   1.415   0.948  0.00  0.00    +0.000 OA
ENDROOT
BRANCH   1   9
ATOM      3  C   UNL     1       0.868   0.323  -0.382  0.00  0.00    +0.000 C 
ATOM      4  C   UNL     1       2.316   0.475   0.108  0.00  0.00    +0.000 C 
ATOM      5  C   UNL     1       3.096  -0.841  -0.096  0.00  0.00    +0.000 C 
ATOM      6  C   UNL     1       3.675  -1.016  -1.478  0.00  0.00    +0.000 C 
ATOM      7  C   UNL     1       3.760  -0.002  -2.355  0.00  0.00    +0.000 C 
ATOM      8  C   UNL     1       3.323   1.402  -2.060  0.00  0.00    +0.000 C 
ATOM      9  C   UNL     1       3.003   1.676  -0.582  0.00  0.00    +0.000 C 
ATOM     10  C   UNL     1       4.167  -2.396  -1.809  0.00  0.00    +0.000 C 
ENDBRANCH   1   9
BRANCH   1  11
ATOM     11  S   UNL     1       4.730   3.803  -0.088  0.00  0.00    +0.000 S 
BRANCH  11  12
ATOM     12  C   UNL     1       3.771   4.597   1.188  0.00  0.00    +0.000 A 
ATOM     13  C   UNL     1       3.898   4.227   2.531  0.00  0.00    +0.000 A 
ATOM     14  C   UNL     1       3.136   4.863   3.513  0.00  0.00    +0.000 A 
ATOM     15  C   UNL     1       2.248   5.877   3.159  0.00  0.00    +0.000 A 
ATOM     16  C   UNL     1       2.125   6.260   1.824  0.00  0.00    +0.000 A 
ATOM     17  C   UNL     1       2.887   5.624   0.841  0.00  0.00    +0.000 A 
ENDBRANCH  11  12
ENDBRANCH   1  11
TORSDOF 3
