MODEL 1
REMARK VINA RESULT:      -3.8      0.000      0.000
REMARK  Name = *****
REMARK  4 active torsions:
REMARK  status: ('A' for Active; 'I' for Inactive)
REMARK    1  A    between atoms: C_4  and  O_7
REMARK    2  A    between atoms: O_7  and  P_8
REMARK    3  A    between atoms: P_8  and  O_10
REMARK    4  A    between atoms: O_10  and  C_11
REMARK                            x       y       z     vdW  Elec       q    Type
REMARK                         _______ _______ _______ _____ _____    ______ ____
ROOT
ATOM      1  P   UNL     1      89.664  69.261  83.851  0.00  0.00    +0.000 P 
ATOM      2  O   UNL     1      90.640  69.611  82.824  0.00  0.00    +0.000 OA
ENDROOT
BRANCH   1   3
ATOM      3  O   UNL     1      90.298  70.124  85.067  0.00  0.00    +0.000 OA
BRANCH   3   7
ATOM      4  C   UNL     1      87.070  70.381  87.817  0.00  0.00    +0.000 C 
ATOM      5  C   UNL     1      88.498  70.345  88.353  0.00  0.00    +0.000 C 
ATOM      6  C   UNL     1      89.485  69.872  87.291  0.00  0.00    +0.000 C 
ATOM      7  C   UNL     1      89.400  70.715  86.011  0.00  0.00    +0.000 C 
ATOM      8  C   UNL     1      87.959  70.721  85.480  0.00  0.00    +0.000 C 
ATOM      9  C   UNL     1      86.970  71.204  86.537  0.00  0.00    +0.000 C 
ENDBRANCH   3   7
ENDBRANCH   1   3
BRANCH   1  10
ATOM     10  O   UNL     1      90.267  67.806  84.215  0.00  0.00    +0.000 OA
BRANCH  10  11
ATOM     11  C   UNL     1      89.476  66.839  84.904  0.00  0.00    +0.000 C 
ATOM     12  C   UNL     1      88.039  67.382  84.901  0.00  0.00    +0.000 C 
ATOM     13  C   UNL     1      87.080  66.492  85.682  0.00  0.00    +0.000 C 
ATOM     14  C   UNL     1      87.569  66.254  87.106  0.00  0.00    +0.000 C 
ATOM     15  C   UNL     1      88.992  65.709  87.123  0.00  0.00    +0.000 C 
ATOM     16  C   UNL     1      89.950  66.611  86.348  0.00  0.00    +0.000 C 
ENDBRANCH  10  11
ENDBRANCH   1  10
TORSDOF 4
ENDMDL
