REMARK  Name = *****
REMARK  3 active torsions:
REMARK  status: ('A' for Active; 'I' for Inactive)
REMARK    1  A    between atoms: C_4  and  C_7
REMARK    2  A    between atoms: C_7  and  O_9
REMARK    3  A    between atoms: O_9  and  C_10
REMARK                            x       y       z     vdW  Elec       q    Type
REMARK                         _______ _______ _______ _____ _____    ______ ____
ROOT
ATOM      1  C   UNL     1       2.775  -0.270   0.010  0.00  0.00    +0.000 C 
ATOM      2  O   UNL     1       3.225  -0.254  -1.129  0.00  0.00    +0.000 OA
ENDROOT
BRANCH   1   6
ATOM      3  C   UNL     1      -1.522  -0.022  -0.488  0.00  0.00    +0.000 C 
ATOM      4  C   UNL     1      -0.918  -1.383  -0.155  0.00  0.00    +0.000 C 
ATOM      5  C   UNL     1       0.588  -1.405  -0.403  0.00  0.00    +0.000 C 
ATOM      6  C   UNL     1       1.296  -0.275   0.351  0.00  0.00    +0.000 C 
ATOM      7  C   UNL     1       0.689   1.090   0.020  0.00  0.00    +0.000 C 
ATOM      8  C   UNL     1      -0.819   1.106   0.262  0.00  0.00    +0.000 C 
ENDBRANCH   1   6
BRANCH   1   9
ATOM      9  O   UNL     1       3.512  -0.252   1.189  0.00  0.00    +0.000 OA
BRANCH   9  10
ATOM     10  C   UNL     1       4.887  -0.327   0.959  0.00  0.00    +0.000 A 
ATOM     11  C   UNL     1       5.615   0.863   0.933  0.00  0.00    +0.000 A 
ATOM     12  C   UNL     1       6.996   0.817   0.741  0.00  0.00    +0.000 A 
ATOM     13  C   UNL     1       7.641  -0.413   0.590  0.00  0.00    +0.000 A 
ATOM     14  C   UNL     1       6.908  -1.603   0.637  0.00  0.00    +0.000 A 
ATOM     15  C   UNL     1       5.527  -1.563   0.828  0.00  0.00    +0.000 A 
ATOM     16 CL   UNL     1       4.651  -3.046   0.917  0.00  0.00    +0.000 Cl
ENDBRANCH   9  10
ENDBRANCH   1   9
TORSDOF 3
