MODEL 1
REMARK VINA RESULT:      -4.5      0.000      0.000
REMARK  Name = *****
REMARK  4 active torsions:
REMARK  status: ('A' for Active; 'I' for Inactive)
REMARK    1  A    between atoms: C_2  and  O_3
REMARK    2  A    between atoms: O_3  and  C_4
REMARK    3  A    between atoms: C_9  and  C_10
REMARK    4  A    between atoms: C_11  and  C_12
REMARK                            x       y       z     vdW  Elec       q    Type
REMARK                         _______ _______ _______ _____ _____    ______ ____
ROOT
ATOM      1  C   UNL     1     104.390 123.502  82.232  0.00  0.00    +0.000 A 
ATOM      2  C   UNL     1     105.380 122.615  81.797  0.00  0.00    +0.000 A 
ATOM      3  C   UNL     1     105.953 122.780  80.537  0.00  0.00    +0.000 A 
ATOM      4  C   UNL     1     105.529 123.820  79.709  0.00  0.00    +0.000 A 
ATOM      5  C   UNL     1     104.526 124.694  80.137  0.00  0.00    +0.000 A 
ATOM      6  C   UNL     1     103.946 124.536  81.400  0.00  0.00    +0.000 A 
ENDROOT
BRANCH   6   7
ATOM      7  C   UNL     1     102.915 125.439  81.816  0.00  0.00    +0.000 C 
ATOM      8  C   UNL     1     102.057 126.199  82.176  0.00  0.00    +0.000 C 
BRANCH   8   9
ATOM      9  C   UNL     1     101.041 127.104  82.619  0.00  0.00    +0.000 A 
ATOM     10  C   UNL     1     101.391 128.274  83.297  0.00  0.00    +0.000 A 
ATOM     11  C   UNL     1     100.397 129.154  83.728  0.00  0.00    +0.000 A 
ATOM     12  C   UNL     1      99.054 128.866  83.482  0.00  0.00    +0.000 A 
ATOM     13  C   UNL     1      98.704 127.698  82.805  0.00  0.00    +0.000 A 
ATOM     14  C   UNL     1      99.697 126.816  82.373  0.00  0.00    +0.000 A 
ENDBRANCH   8   9
ENDBRANCH   6   7
BRANCH   1  15
ATOM     15  O   UNL     1     103.813 123.301  83.465  0.00  0.00    +0.000 OA
BRANCH  15  17
ATOM     16  C   UNL     1     105.042 124.744  84.885  0.00  0.00    +0.000 C 
ATOM     17  C   UNL     1     104.630 123.520  84.550  0.00  0.00    +0.000 C 
ENDBRANCH  15  17
ENDBRANCH   1  15
TORSDOF 4
ENDMDL
