MODEL 1
REMARK VINA RESULT:      -4.7      0.000      0.000
REMARK  Name = *****
REMARK  5 active torsions:
REMARK  status: ('A' for Active; 'I' for Inactive)
REMARK    1  A    between atoms: C_1  and  C_2
REMARK    2  A    between atoms: C_3  and  C_16
REMARK    3  A    between atoms: C_4  and  O_8
REMARK    4  A    between atoms: O_8  and  C_9
REMARK    5  A    between atoms: C_9  and  C_11
REMARK                            x       y       z     vdW  Elec       q    Type
REMARK                         _______ _______ _______ _____ _____    ______ ____
ROOT
ATOM      1  C   UNL     1      99.389 130.441  84.249  0.00  0.00    +0.000 C 
ATOM      2  C   UNL     1      99.745 129.125  83.611  0.00  0.00    +0.000 A 
ATOM      3  C   UNL     1     101.079 128.665  83.550  0.00  0.00    +0.000 A 
ATOM      4  C   UNL     1     101.330 127.432  82.924  0.00  0.00    +0.000 A 
ATOM      5  C   UNL     1     100.303 126.664  82.370  0.00  0.00    +0.000 A 
ATOM      6  C   UNL     1      98.990 127.110  82.464  0.00  0.00    +0.000 A 
ATOM      7  C   UNL     1      98.713 128.330  83.081  0.00  0.00    +0.000 A 
ATOM      8  C   UNL     1     102.215 129.497  84.079  0.00  0.00    +0.000 C 
ENDROOT
BRANCH   4   9
ATOM      9  O   UNL     1     102.662 127.013  82.758  0.00  0.00    +0.000 OA
BRANCH   9  10
ATOM     10  C   UNL     1     102.870 125.634  82.749  0.00  0.00    +0.000 C 
ATOM     11  O   UNL     1     102.779 124.880  83.708  0.00  0.00    +0.000 OA
BRANCH  10  12
ATOM     12  C   UNL     1     103.189 125.208  81.326  0.00  0.00    +0.000 C 
ATOM     13  C   UNL     1     104.242 124.096  81.253  0.00  0.00    +0.000 C 
ATOM     14  C   UNL     1     104.998 124.380  79.965  0.00  0.00    +0.000 C 
ATOM     15  C   UNL     1     105.108 125.893  79.969  0.00  0.00    +0.000 C 
ATOM     16  C   UNL     1     103.753 126.364  80.484  0.00  0.00    +0.000 C 
ENDBRANCH  10  12
ENDBRANCH   9  10
ENDBRANCH   4   9
TORSDOF 3
ENDMDL
