MODEL 1
REMARK VINA RESULT:      -4.8      0.000      0.000
REMARK  Name = *****
REMARK  2 active torsions:
REMARK  status: ('A' for Active; 'I' for Inactive)
REMARK    1  A    between atoms: C_2  and  C_12
REMARK    2  A    between atoms: N_3  and  C_4
REMARK                            x       y       z     vdW  Elec       q    Type
REMARK                         _______ _______ _______ _____ _____    ______ ____
ROOT
ATOM      1  C   UNL     1     103.167 125.861  83.859  0.00  0.00    +0.000 C 
ATOM      2  C   UNL     1     102.647 126.764  82.773  0.00  0.00    +0.000 C 
ATOM      3  N   UNL     1     102.739 125.304  82.578  0.00  0.00    +0.000 N 
ENDROOT
BRANCH   3   4
ATOM      4  C   UNL     1     103.697 124.780  81.667  0.00  0.00    +0.000 A 
ATOM      5  C   UNL     1     104.070 125.344  80.437  0.00  0.00    +0.000 A 
ATOM      6  C   UNL     1     105.026 124.747  79.610  0.00  0.00    +0.000 A 
ATOM      7  C   UNL     1     105.641 123.559  79.993  0.00  0.00    +0.000 A 
ATOM      8  C   UNL     1     105.293 122.972  81.206  0.00  0.00    +0.000 A 
ATOM      9  C   UNL     1     104.335 123.578  82.022  0.00  0.00    +0.000 A 
ATOM     10  F   UNL     1     104.028 122.973  83.181  0.00  0.00    +0.000 F 
ATOM     11  F   UNL     1     103.516 126.487  80.005  0.00  0.00    +0.000 F 
ENDBRANCH   3   4
BRANCH   2  12
ATOM     12  C   UNL     1     101.272 127.368  82.900  0.00  0.00    +0.000 A 
ATOM     13  C   UNL     1     101.086 128.618  83.516  0.00  0.00    +0.000 A 
ATOM     14  C   UNL     1      99.818 129.197  83.626  0.00  0.00    +0.000 A 
ATOM     15  C   UNL     1      98.706 128.535  83.115  0.00  0.00    +0.000 A 
ATOM     16  C   UNL     1      98.861 127.298  82.496  0.00  0.00    +0.000 A 
ATOM     17  C   UNL     1     100.132 126.725  82.389  0.00  0.00    +0.000 A 
ENDBRANCH   2  12
TORSDOF 2
ENDMDL
