REMARK  Name = *****
REMARK  5 active torsions:
REMARK  status: ('A' for Active; 'I' for Inactive)
REMARK    1  A    between atoms: C_1  and  C_2
REMARK    2  A    between atoms: C_5  and  N_8
REMARK    3  A    between atoms: C_9  and  C_10
REMARK    4  A    between atoms: C_12  and  C_17
REMARK    5  A    between atoms: C_13  and  C_16
REMARK                            x       y       z     vdW  Elec       q    Type
REMARK                         _______ _______ _______ _____ _____    ______ ____
ROOT
ATOM      1  N   UNL     1      -3.252  -0.122   0.128  0.00  0.00    +0.000 NA
ATOM      2  C   UNL     1      -3.909   0.923  -0.264  0.00  0.00    +0.000 C 
ENDROOT
BRANCH   2   3
ATOM      3  C   UNL     1      -5.384   0.974  -0.247  0.00  0.00    +0.000 A 
ATOM      4  C   UNL     1      -6.135  -0.124   0.181  0.00  0.00    +0.000 A 
ATOM      5  C   UNL     1      -7.538  -0.068   0.192  0.00  0.00    +0.000 A 
ATOM      6  C   UNL     1      -8.186   1.111  -0.232  0.00  0.00    +0.000 A 
ATOM      7  C   UNL     1      -7.416   2.205  -0.660  0.00  0.00    +0.000 A 
ATOM      8  C   UNL     1      -6.022   2.139  -0.669  0.00  0.00    +0.000 A 
ATOM      9  C   UNL     1      -9.687   1.220  -0.238  0.00  0.00    +0.000 C 
ATOM     10  C   UNL     1      -8.317  -1.268   0.658  0.00  0.00    +0.000 C 
ENDBRANCH   2   3
BRANCH   1  15
ATOM     11  C   UNL     1       2.447   0.194  -0.145  0.00  0.00    +0.000 C 
ATOM     12  C   UNL     1       0.949   0.141  -0.087  0.00  0.00    +0.000 A 
ATOM     13  C   UNL     1       0.267   0.613   1.041  0.00  0.00    +0.000 A 
ATOM     14  C   UNL     1      -1.126   0.529   1.110  0.00  0.00    +0.000 A 
ATOM     15  C   UNL     1      -1.855  -0.026   0.056  0.00  0.00    +0.000 A 
ATOM     16  C   UNL     1      -1.175  -0.525  -1.055  0.00  0.00    +0.000 A 
ATOM     17  C   UNL     1       0.219  -0.444  -1.128  0.00  0.00    +0.000 A 
ENDBRANCH   1  15
TORSDOF 2
