MODEL 1
REMARK VINA RESULT:      -4.1      0.000      0.000
REMARK  Name = *****
REMARK  1 active torsions:
REMARK  status: ('A' for Active; 'I' for Inactive)
REMARK    1  A    between atoms: C_4  and  C_6
REMARK                            x       y       z     vdW  Elec       q    Type
REMARK                         _______ _______ _______ _____ _____    ______ ____
ROOT
ATOM      1  C   UNL     1     102.621 126.534  81.918  0.00  0.00    +0.000 A 
ATOM      2  C   UNL     1     103.033 125.264  82.353  0.00  0.00    +0.000 A 
ATOM      3  C   UNL     1     104.008 124.567  81.641  0.00  0.00    +0.000 A 
ATOM      4  C   UNL     1     104.583 125.119  80.498  0.00  0.00    +0.000 A 
ATOM      5  C   UNL     1     104.192 126.377  80.054  0.00  0.00    +0.000 A 
ATOM      6  C   UNL     1     103.216 127.081  80.766  0.00  0.00    +0.000 A 
ATOM      7  S   UNL     1     105.810 124.133  79.681  0.00  0.00    +0.000 S 
ATOM      8  C   UNL     1     105.742 122.769  80.791  0.00  0.00    +0.000 A 
ATOM      9  O   UNL     1     106.437 121.773  80.657  0.00  0.00    +0.000 OA
ATOM     10  S   UNL     1     104.592 122.958  82.111  0.00  0.00    +0.000 S 
ENDROOT
BRANCH   1  14
ATOM     11  C   UNL     1     100.541 128.928  83.954  0.00  0.00    +0.000 A 
ATOM     12  C   UNL     1      99.475 128.138  83.590  0.00  0.00    +0.000 A 
ATOM     13  S   UNL     1      99.953 126.833  82.596  0.00  0.00    +0.000 S 
ATOM     14  C   UNL     1     101.604 127.303  82.649  0.00  0.00    +0.000 A 
ATOM     15  C   UNL     1     101.767 128.449  83.407  0.00  0.00    +0.000 A 
ENDBRANCH   1  14
TORSDOF 1
ENDMDL
