REMARK  Name = *****
REMARK  3 active torsions:
REMARK  status: ('A' for Active; 'I' for Inactive)
REMARK    1  A    between atoms: C_4  and  C_7
REMARK    2  A    between atoms: C_8  and  C_9
REMARK    3  A    between atoms: C_9  and  C_10
REMARK                            x       y       z     vdW  Elec       q    Type
REMARK                         _______ _______ _______ _____ _____    ______ ____
ROOT
ATOM      1  C   UNL     1       2.821   0.140  -0.307  0.00  0.00    +0.000 C 
ATOM      2  C   UNL     1       4.013   0.174  -0.454  0.00  0.00    +0.000 C 
ENDROOT
BRANCH   1   6
ATOM      3  C   UNL     1      -1.371   0.040   0.194  0.00  0.00    +0.000 A 
ATOM      4  C   UNL     1      -0.696   1.261   0.204  0.00  0.00    +0.000 A 
ATOM      5  C   UNL     1       0.690   1.294   0.038  0.00  0.00    +0.000 A 
ATOM      6  C   UNL     1       1.402   0.105  -0.137  0.00  0.00    +0.000 A 
ATOM      7  C   UNL     1       0.725  -1.116  -0.147  0.00  0.00    +0.000 A 
ATOM      8  C   UNL     1      -0.661  -1.149   0.019  0.00  0.00    +0.000 A 
ENDBRANCH   1   6
BRANCH   2   9
ATOM      9  C   UNL     1       5.471   0.212  -0.633  0.00  0.00    +0.000 C 
ATOM     10 CL   UNL     1       6.023   1.896  -0.404  0.00  0.00    +0.000 Cl
BRANCH   9  11
ATOM     11  C   UNL     1       5.922  -0.306  -1.984  0.00  0.00    +0.000 A 
ATOM     12  C   UNL     1       5.426   0.233  -3.184  0.00  0.00    +0.000 A 
ATOM     13  C   UNL     1       5.854  -0.257  -4.419  0.00  0.00    +0.000 A 
ATOM     14  C   UNL     1       6.785  -1.291  -4.474  0.00  0.00    +0.000 A 
ATOM     15  C   UNL     1       7.290  -1.836  -3.295  0.00  0.00    +0.000 A 
ATOM     16  C   UNL     1       6.863  -1.347  -2.059  0.00  0.00    +0.000 A 
ENDBRANCH   9  11
ENDBRANCH   2   9
TORSDOF 3
