REMARK  Name = *****
REMARK  5 active torsions:
REMARK  status: ('A' for Active; 'I' for Inactive)
REMARK    1  A    between atoms: C_1  and  C_2
REMARK    2  A    between atoms: C_2  and  O_3
REMARK    3  A    between atoms: O_3  and  C_4
REMARK    4  A    between atoms: C_10  and  C_11
REMARK    5  A    between atoms: C_12  and  C_13
REMARK                            x       y       z     vdW  Elec       q    Type
REMARK                         _______ _______ _______ _____ _____    ______ ____
ROOT
ATOM      1  C   UNL     1       4.671   1.020   0.545  0.00  0.00    +0.000 C 
ATOM      2  C   UNL     1       4.893   2.386  -0.060  0.00  0.00    +0.000 C 
ATOM      3  C   UNL     1       5.604   3.303   0.940  0.00  0.00    +0.000 C 
ATOM      4  C   UNL     1       6.850   2.679   1.592  0.00  0.00    +0.000 C 
ATOM      5  C   UNL     1       7.147   1.251   1.129  0.00  0.00    +0.000 C 
ATOM      6  C   UNL     1       5.899   0.421   1.193  0.00  0.00    +0.000 C 
ATOM      7  C   UNL     1       5.270  -0.268   0.007  0.00  0.00    +0.000 C 
ENDROOT
BRANCH   7   8
ATOM      8  C   UNL     1       5.915  -0.297  -1.272  0.00  0.00    +0.000 C 
ATOM      9  C   UNL     1       6.451  -0.326  -2.346  0.00  0.00    +0.000 C 
BRANCH   9  10
ATOM     10  C   UNL     1       7.090  -0.353  -3.625  0.00  0.00    +0.000 A 
ATOM     11  C   UNL     1       7.427   0.844  -4.263  0.00  0.00    +0.000 A 
ATOM     12  C   UNL     1       8.051   0.819  -5.512  0.00  0.00    +0.000 A 
ATOM     13  C   UNL     1       8.339  -0.402  -6.123  0.00  0.00    +0.000 A 
ATOM     14  C   UNL     1       8.004  -1.597  -5.487  0.00  0.00    +0.000 A 
ATOM     15  C   UNL     1       7.380  -1.573  -4.238  0.00  0.00    +0.000 A 
ENDBRANCH   9  10
ENDBRANCH   7   8
BRANCH   1  16
ATOM     16  O   UNL     1       3.475   0.908   1.354  0.00  0.00    +0.000 OA
BRANCH  16  18
ATOM     17  C   UNL     1       1.136   0.489   1.567  0.00  0.00    +0.000 C 
ATOM     18  C   UNL     1       2.293   0.640   0.600  0.00  0.00    +0.000 C 
ENDBRANCH  16  18
ENDBRANCH   1  16
TORSDOF 4
