MODEL 1
REMARK VINA RESULT:      -3.8      0.000      0.000
REMARK  Name = *****
REMARK  3 active torsions:
REMARK  status: ('A' for Active; 'I' for Inactive)
REMARK    1  A    between atoms: C_4  and  S_7
REMARK    2  A    between atoms: S_7  and  C_8
REMARK    3  A    between atoms: C_8  and  C_9
REMARK                            x       y       z     vdW  Elec       q    Type
REMARK                         _______ _______ _______ _____ _____    ______ ____
ROOT
ATOM      1  S   UNL     1     102.936 127.665  82.903  0.00  0.00    +0.000 S 
ENDROOT
BRANCH   1   5
ATOM      2  C   UNL     1      98.360 127.862  83.041  0.00  0.00    +0.000 A 
ATOM      3  C   UNL     1      99.111 128.906  83.577  0.00  0.00    +0.000 A 
ATOM      4  C   UNL     1     100.507 128.856  83.539  0.00  0.00    +0.000 A 
ATOM      5  C   UNL     1     101.158 127.755  82.974  0.00  0.00    +0.000 A 
ATOM      6  C   UNL     1     100.397 126.717  82.424  0.00  0.00    +0.000 A 
ATOM      7  C   UNL     1      99.002 126.769  82.462  0.00  0.00    +0.000 A 
ENDBRANCH   1   5
BRANCH   1   8
ATOM      8  C   UNL     1     103.136 127.036  81.201  0.00  0.00    +0.000 C 
BRANCH   8   9
ATOM      9  C   UNL     1     103.715 125.654  81.215  0.00  0.00    +0.000 A 
ATOM     10  C   UNL     1     104.236 124.932  80.158  0.00  0.00    +0.000 A 
ATOM     11  C   UNL     1     104.689 123.641  80.551  0.00  0.00    +0.000 A 
ATOM     12  C   UNL     1     104.495 123.415  81.895  0.00  0.00    +0.000 A 
ATOM     13  S   UNL     1     103.770 124.753  82.674  0.00  0.00    +0.000 S 
ENDBRANCH   8   9
ENDBRANCH   1   8
TORSDOF 3
ENDMDL
