REMARK  Name = *****
REMARK  3 active torsions:
REMARK  status: ('A' for Active; 'I' for Inactive)
REMARK    1  A    between atoms: C_4  and  S_7
REMARK    2  A    between atoms: S_7  and  C_8
REMARK    3  A    between atoms: C_8  and  C_10
REMARK                            x       y       z     vdW  Elec       q    Type
REMARK                         _______ _______ _______ _____ _____    ______ ____
ROOT
ATOM      1  C   UNL     1       2.894  -2.541  -0.635  0.00  0.00    +0.000 C 
ATOM      2  O   UNL     1       2.715  -2.748   0.559  0.00  0.00    +0.000 OA
ENDROOT
BRANCH   1   3
ATOM      3  C   UNL     1       3.600  -3.553  -1.481  0.00  0.00    +0.000 A 
ATOM      4  C   UNL     1       3.769  -3.429  -2.870  0.00  0.00    +0.000 A 
ATOM      5  C   UNL     1       4.435  -4.425  -3.593  0.00  0.00    +0.000 A 
ATOM      6  C   UNL     1       4.931  -5.543  -2.933  0.00  0.00    +0.000 A 
ATOM      7  C   UNL     1       4.775  -5.687  -1.561  0.00  0.00    +0.000 A 
ATOM      8  C   UNL     1       4.110  -4.695  -0.836  0.00  0.00    +0.000 A 
ATOM      9  F   UNL     1       5.566  -6.493  -3.630  0.00  0.00    +0.000 F 
ENDBRANCH   1   3
BRANCH   1  10
ATOM     10  S   UNL     1       2.350  -1.047  -1.392  0.00  0.00    +0.000 S 
BRANCH  10  14
ATOM     11  C   UNL     1      -1.501   0.701   0.501  0.00  0.00    +0.000 C 
ATOM     12  C   UNL     1      -1.204  -0.775   0.748  0.00  0.00    +0.000 C 
ATOM     13  C   UNL     1      -0.144  -1.307  -0.216  0.00  0.00    +0.000 C 
ATOM     14  C   UNL     1       1.138  -0.466  -0.152  0.00  0.00    +0.000 C 
ATOM     15  C   UNL     1       0.830   1.014  -0.421  0.00  0.00    +0.000 C 
ATOM     16  C   UNL     1      -0.230   1.544   0.544  0.00  0.00    +0.000 C 
ENDBRANCH  10  14
ENDBRANCH   1  10
TORSDOF 3
