MODEL 1
REMARK VINA RESULT:      -5.2      0.000      0.000
REMARK  Name = *****
REMARK  2 active torsions:
REMARK  status: ('A' for Active; 'I' for Inactive)
REMARK    1  A    between atoms: C_5  and  C_7
REMARK    2  A    between atoms: C_8  and  C_9
REMARK                            x       y       z     vdW  Elec       q    Type
REMARK                         _______ _______ _______ _____ _____    ______ ____
ROOT
ATOM      1  C   UNL     1     101.586 125.972  82.303  0.00  0.00    +0.000 C 
ATOM      2  C   UNL     1     102.897 125.834  82.561  0.00  0.00    +0.000 C 
ENDROOT
BRANCH   2   3
ATOM      3  C   UNL     1     103.715 124.677  82.158  0.00  0.00    +0.000 A 
ATOM      4  C   UNL     1     104.099 123.743  83.130  0.00  0.00    +0.000 A 
ATOM      5  C   UNL     1     104.852 122.612  82.810  0.00  0.00    +0.000 A 
ATOM      6  C   UNL     1     105.233 122.381  81.491  0.00  0.00    +0.000 A 
ATOM      7  C   UNL     1     104.849 123.284  80.502  0.00  0.00    +0.000 A 
ATOM      8  C   UNL     1     104.095 124.411  80.836  0.00  0.00    +0.000 A 
ATOM      9  F   UNL     1     103.730 125.231  79.839  0.00  0.00    +0.000 F 
ATOM     10  F   UNL     1     103.746 123.921  84.413  0.00  0.00    +0.000 F 
ENDBRANCH   2   3
BRANCH   1  15
ATOM     11  C   UNL     1     100.709 129.309  83.807  0.00  0.00    +0.000 A 
ATOM     12  C   UNL     1      99.331 129.380  83.606  0.00  0.00    +0.000 A 
ATOM     13  C   UNL     1      98.671 128.330  82.972  0.00  0.00    +0.000 A 
ATOM     14  C   UNL     1      99.392 127.218  82.536  0.00  0.00    +0.000 A 
ATOM     15  C   UNL     1     100.779 127.134  82.714  0.00  0.00    +0.000 A 
ATOM     16  C   UNL     1     101.427 128.193  83.368  0.00  0.00    +0.000 A 
ATOM     17  F   UNL     1      98.712 126.219  81.953  0.00  0.00    +0.000 F 
ENDBRANCH   1  15
TORSDOF 2
ENDMDL
