MODEL 1
REMARK VINA RESULT:      -4.6      0.000      0.000
REMARK  Name = *****
REMARK  4 active torsions:
REMARK  status: ('A' for Active; 'I' for Inactive)
REMARK    1  A    between atoms: C_2  and  C_3
REMARK    2  A    between atoms: C_3  and  C_4
REMARK    3  A    between atoms: C_3  and  S_10
REMARK    4  A    between atoms: S_10  and  C_11
REMARK                            x       y       z     vdW  Elec       q    Type
REMARK                         _______ _______ _______ _____ _____    ______ ____
ROOT
ATOM      1  C   UNL     1      87.695  70.525  88.278  0.00  0.00    +0.000 C 
ENDROOT
BRANCH   1   2
ATOM      2  C   UNL     1      86.489  71.233  87.680  0.00  0.00    +0.000 A 
ATOM      3  C   UNL     1      86.341  71.392  86.291  0.00  0.00    +0.000 A 
ATOM      4  C   UNL     1      85.222  72.036  85.760  0.00  0.00    +0.000 A 
ATOM      5  C   UNL     1      84.232  72.528  86.608  0.00  0.00    +0.000 A 
ATOM      6  C   UNL     1      84.359  72.375  87.986  0.00  0.00    +0.000 A 
ATOM      7  C   UNL     1      85.478  71.730  88.520  0.00  0.00    +0.000 A 
ENDBRANCH   1   2
BRANCH   1   9
ATOM      8  C   UNL     1      88.692  71.901  90.534  0.00  0.00    +0.000 C 
ATOM      9  C   UNL     1      88.232  71.266  89.493  0.00  0.00    +0.000 C 
ENDBRANCH   1   9
BRANCH   1  10
ATOM     10  S   UNL     1      89.005  70.296  87.003  0.00  0.00    +0.000 S 
BRANCH  10  11
ATOM     11  C   UNL     1      89.012  68.517  86.880  0.00  0.00    +0.000 A 
ATOM     12  C   UNL     1      90.085  67.838  86.294  0.00  0.00    +0.000 A 
ATOM     13  C   UNL     1      90.076  66.445  86.214  0.00  0.00    +0.000 A 
ATOM     14  C   UNL     1      88.999  65.723  86.726  0.00  0.00    +0.000 A 
ATOM     15  C   UNL     1      87.933  66.393  87.325  0.00  0.00    +0.000 A 
ATOM     16  C   UNL     1      87.942  67.787  87.406  0.00  0.00    +0.000 A 
ENDBRANCH  10  11
ENDBRANCH   1  10
TORSDOF 4
ENDMDL
