MODEL 1
REMARK VINA RESULT:      -4.3      0.000      0.000
REMARK  Name = *****
REMARK  3 active torsions:
REMARK  status: ('A' for Active; 'I' for Inactive)
REMARK    1  A    between atoms: C_4  and  S_7
REMARK    2  A    between atoms: S_7  and  S_8
REMARK    3  A    between atoms: S_8  and  C_11
REMARK                            x       y       z     vdW  Elec       q    Type
REMARK                         _______ _______ _______ _____ _____    ______ ____
ROOT
ATOM      1  S   UNL     1      88.592  69.960  86.613  0.00  0.00    +0.000 S 
ATOM      2  O   UNL     1      88.537  68.628  87.180  0.00  0.00    +0.000 OA
ATOM      3  O   UNL     1      89.723  70.829  86.884  0.00  0.00    +0.000 OA
ENDROOT
BRANCH   1   4
ATOM      4  C   UNL     1      87.134  70.828  87.136  0.00  0.00    +0.000 A 
ATOM      5  C   UNL     1      86.851  71.047  88.488  0.00  0.00    +0.000 A 
ATOM      6  C   UNL     1      85.693  71.754  88.839  0.00  0.00    +0.000 A 
ATOM      7  C   UNL     1      84.831  72.242  87.855  0.00  0.00    +0.000 A 
ATOM      8  C   UNL     1      85.125  72.027  86.511  0.00  0.00    +0.000 A 
ATOM      9  C   UNL     1      86.270  71.326  86.145  0.00  0.00    +0.000 A 
ATOM     10 CL   UNL     1      84.066  72.630  85.299  0.00  0.00    +0.000 Cl
ATOM     11 CL   UNL     1      87.833  70.489  89.791  0.00  0.00    +0.000 Cl
ENDBRANCH   1   4
BRANCH   1  12
ATOM     12  S   UNL     1      88.403  69.850  84.528  0.00  0.00    +0.000 S 
BRANCH  12  16
ATOM     13  C   UNL     1      91.098  73.286  83.153  0.00  0.00    +0.000 A 
ATOM     14  C   UNL     1      91.621  71.999  83.270  0.00  0.00    +0.000 A 
ATOM     15  C   UNL     1      90.805  70.949  83.692  0.00  0.00    +0.000 A 
ATOM     16  C   UNL     1      89.461  71.182  84.008  0.00  0.00    +0.000 A 
ATOM     17  C   UNL     1      88.940  72.473  83.879  0.00  0.00    +0.000 A 
ATOM     18  C   UNL     1      89.758  73.523  83.455  0.00  0.00    +0.000 A 
ENDBRANCH  12  16
ENDBRANCH   1  12
TORSDOF 3
ENDMDL
