MODEL 1
REMARK VINA RESULT:      -3.1      0.000      0.000
REMARK  Name = *****
REMARK  4 active torsions:
REMARK  status: ('A' for Active; 'I' for Inactive)
REMARK    1  A    between atoms: C_4  and  C_6
REMARK    2  A    between atoms: C_6  and  S_7
REMARK    3  A    between atoms: S_7  and  C_8
REMARK    4  A    between atoms: C_8  and  C_9
REMARK                            x       y       z     vdW  Elec       q    Type
REMARK                         _______ _______ _______ _____ _____    ______ ____
ROOT
ATOM      1  S   UNL     1      86.688  63.628  86.665  0.00  0.00    +0.000 S 
ENDROOT
BRANCH   1   2
ATOM      2  C   UNL     1      86.873  62.431  88.021  0.00  0.00    +0.000 C 
BRANCH   2   6
ATOM      3  C   UNL     1      88.858  64.094  90.788  0.00  0.00    +0.000 A 
ATOM      4  C   UNL     1      87.655  64.178  91.452  0.00  0.00    +0.000 A 
ATOM      5  S   UNL     1      86.371  63.512  90.542  0.00  0.00    +0.000 S 
ATOM      6  C   UNL     1      87.417  63.098  89.247  0.00  0.00    +0.000 A 
ATOM      7  C   UNL     1      88.720  63.473  89.513  0.00  0.00    +0.000 A 
ENDBRANCH   2   6
ENDBRANCH   1   2
BRANCH   1   8
ATOM      8  C   UNL     1      88.235  63.260  85.783  0.00  0.00    +0.000 C 
BRANCH   8   9
ATOM      9  C   UNL     1      89.162  64.434  85.825  0.00  0.00    +0.000 A 
ATOM     10  C   UNL     1      89.011  65.624  86.513  0.00  0.00    +0.000 A 
ATOM     11  C   UNL     1      90.111  66.508  86.321  0.00  0.00    +0.000 A 
ATOM     12  C   UNL     1      91.070  65.965  85.495  0.00  0.00    +0.000 A 
ATOM     13  S   UNL     1      90.643  64.399  84.959  0.00  0.00    +0.000 S 
ENDBRANCH   8   9
ENDBRANCH   1   8
TORSDOF 4
ENDMDL
