MODEL 1
REMARK VINA RESULT:      -4.9      0.000      0.000
REMARK  Name = *****
REMARK  1 active torsions:
REMARK  status: ('A' for Active; 'I' for Inactive)
REMARK    1  A    between atoms: C_5  and  C_7
REMARK                            x       y       z     vdW  Elec       q    Type
REMARK                         _______ _______ _______ _____ _____    ______ ____
ROOT
ATOM      1  C   UNL     1     102.673 126.170  81.738  0.00  0.00    +0.000 A 
ATOM      2  N   UNL     1     103.340 126.373  80.617  0.00  0.00    +0.000 NA
ATOM      3  C   UNL     1     104.161 125.282  80.511  0.00  0.00    +0.000 A 
ATOM      4  C   UNL     1     103.953 124.434  81.586  0.00  0.00    +0.000 A 
ATOM      5  O   UNL     1     102.994 124.994  82.377  0.00  0.00    +0.000 OA
ATOM      6  C   UNL     1     104.619 123.233  81.793  0.00  0.00    +0.000 A 
ATOM      7  C   UNL     1     105.560 122.899  80.814  0.00  0.00    +0.000 A 
ATOM      8  C   UNL     1     105.805 123.724  79.708  0.00  0.00    +0.000 A 
ATOM      9  C   UNL     1     105.107 124.930  79.540  0.00  0.00    +0.000 A 
ATOM     10 CL   UNL     1     106.443 121.427  80.974  0.00  0.00    +0.000 Cl
ENDROOT
BRANCH   1  15
ATOM     11  C   UNL     1      99.277 127.324  82.910  0.00  0.00    +0.000 A 
ATOM     12  C   UNL     1      99.581 128.505  83.575  0.00  0.00    +0.000 A 
ATOM     13  C   UNL     1     100.906 128.931  83.654  0.00  0.00    +0.000 A 
ATOM     14  C   UNL     1     101.934 128.180  83.066  0.00  0.00    +0.000 A 
ATOM     15  C   UNL     1     101.645 126.985  82.386  0.00  0.00    +0.000 A 
ATOM     16  C   UNL     1     100.299 126.571  82.323  0.00  0.00    +0.000 A 
ATOM     17 CL   UNL     1     103.541 128.789  83.270  0.00  0.00    +0.000 Cl
ENDBRANCH   1  15
TORSDOF 1
ENDMDL
