MODEL 1
REMARK VINA RESULT:      -4.2      0.000      0.000
REMARK  Name = *****
REMARK  3 active torsions:
REMARK  status: ('A' for Active; 'I' for Inactive)
REMARK    1  A    between atoms: C_3  and  S_8
REMARK    2  A    between atoms: S_8  and  C_9
REMARK    3  A    between atoms: C_9  and  C_10
REMARK                            x       y       z     vdW  Elec       q    Type
REMARK                         _______ _______ _______ _____ _____    ______ ____
ROOT
ATOM      1  S   UNL     1     103.162 126.904  83.186  0.00  0.00    +0.000 S 
ENDROOT
BRANCH   1   4
ATOM      2  C   UNL     1      99.181 127.051  82.480  0.00  0.00    +0.000 A 
ATOM      3  C   UNL     1     100.522 126.666  82.577  0.00  0.00    +0.000 A 
ATOM      4  C   UNL     1     101.485 127.524  83.130  0.00  0.00    +0.000 A 
ATOM      5  C   UNL     1     101.075 128.781  83.587  0.00  0.00    +0.000 A 
ATOM      6  C   UNL     1      99.734 129.161  83.489  0.00  0.00    +0.000 A 
ATOM      7  C   UNL     1      98.786 128.303  82.938  0.00  0.00    +0.000 A 
ATOM      8 CL   UNL     1      99.248 130.714  84.054  0.00  0.00    +0.000 Cl
ENDBRANCH   1   4
BRANCH   1   9
ATOM      9  C   UNL     1     102.970 125.102  82.969  0.00  0.00    +0.000 C 
BRANCH   9  10
ATOM     10  C   UNL     1     103.888 124.583  81.898  0.00  0.00    +0.000 A 
ATOM     11  C   UNL     1     104.562 123.367  81.990  0.00  0.00    +0.000 A 
ATOM     12  N   UNL     1     105.388 122.875  81.039  0.00  0.00    +0.000 NA
ATOM     13  C   UNL     1     105.545 123.617  79.925  0.00  0.00    +0.000 A 
ATOM     14  C   UNL     1     104.916 124.833  79.719  0.00  0.00    +0.000 A 
ATOM     15  C   UNL     1     104.077 125.318  80.718  0.00  0.00    +0.000 A 
ATOM     16 CL   UNL     1     104.432 122.325  83.354  0.00  0.00    +0.000 Cl
ENDBRANCH   9  10
ENDBRANCH   1   9
TORSDOF 3
ENDMDL
