MODEL 1
REMARK VINA RESULT:      -4.4      0.000      0.000
REMARK  Name = *****
REMARK  5 active torsions:
REMARK  status: ('A' for Active; 'I' for Inactive)
REMARK    1  A    between atoms: C_1  and  C_2
REMARK    2  A    between atoms: C_5  and  S_8
REMARK    3  A    between atoms: S_8  and  O_10
REMARK    4  A    between atoms: O_10  and  C_11
REMARK    5  A    between atoms: C_11  and  C_18
REMARK                            x       y       z     vdW  Elec       q    Type
REMARK                         _______ _______ _______ _____ _____    ______ ____
ROOT
ATOM      1  S   UNL     1      87.818  70.389  87.883  0.00  0.00    +0.000 S 
ATOM      2  O   UNL     1      87.475  69.268  88.821  0.00  0.00    +0.000 OA
ENDROOT
BRANCH   1   7
ATOM      3  C   UNL     1      82.588  73.396  86.847  0.00  0.00    +0.000 C 
ATOM      4  C   UNL     1      83.881  72.685  87.110  0.00  0.00    +0.000 A 
ATOM      5  C   UNL     1      84.696  72.281  86.044  0.00  0.00    +0.000 A 
ATOM      6  C   UNL     1      85.885  71.587  86.285  0.00  0.00    +0.000 A 
ATOM      7  C   UNL     1      86.270  71.280  87.595  0.00  0.00    +0.000 A 
ATOM      8  C   UNL     1      85.452  71.672  88.660  0.00  0.00    +0.000 A 
ATOM      9  C   UNL     1      84.263  72.363  88.418  0.00  0.00    +0.000 A 
ENDBRANCH   1   7
BRANCH   1  10
ATOM     10  O   UNL     1      87.818  69.774  86.392  0.00  0.00    +0.000 OA
BRANCH  10  11
ATOM     11  C   UNL     1      89.076  69.631  85.707  0.00  0.00    +0.000 C 
ATOM     12  C   UNL     1      89.934  70.924  85.785  0.00  0.00    +0.000 C 
ATOM     13  C   UNL     1      89.897  71.467  84.342  0.00  0.00    +0.000 C 
ATOM     14  C   UNL     1      90.765  70.567  83.444  0.00  0.00    +0.000 C 
ATOM     15  C   UNL     1      89.904  69.308  83.283  0.00  0.00    +0.000 C 
ATOM     16  C   UNL     1      88.697  69.600  84.191  0.00  0.00    +0.000 C 
ATOM     17  C   UNL     1      88.485  71.093  83.898  0.00  0.00    +0.000 C 
ATOM     18  C   UNL     1      89.822  68.374  86.165  0.00  0.00    +0.000 C 
ENDBRANCH  10  11
ENDBRANCH   1  10
TORSDOF 3
ENDMDL
