MODEL 1
REMARK VINA RESULT:      -5.1      0.000      0.000
REMARK  Name = *****
REMARK  3 active torsions:
REMARK  status: ('A' for Active; 'I' for Inactive)
REMARK    1  A    between atoms: C_1  and  C_2
REMARK    2  A    between atoms: C_5  and  C_8
REMARK    3  A    between atoms: C_9  and  C_10
REMARK                            x       y       z     vdW  Elec       q    Type
REMARK                         _______ _______ _______ _____ _____    ______ ____
ROOT
ATOM      1  C   UNL     1     102.056 125.968  81.864  0.00  0.00    +0.000 C 
ATOM      2  C   UNL     1     103.125 126.150  81.071  0.00  0.00    +0.000 C 
ENDROOT
BRANCH   1   7
ATOM      3  C   UNL     1      99.147 130.177  84.583  0.00  0.00    +0.000 C 
ATOM      4  C   UNL     1      99.920 129.103  83.878  0.00  0.00    +0.000 A 
ATOM      5  C   UNL     1     101.318 129.107  83.871  0.00  0.00    +0.000 A 
ATOM      6  C   UNL     1     102.027 128.093  83.218  0.00  0.00    +0.000 A 
ATOM      7  C   UNL     1     101.354 127.049  82.573  0.00  0.00    +0.000 A 
ATOM      8  C   UNL     1      99.954 127.062  82.563  0.00  0.00    +0.000 A 
ATOM      9  C   UNL     1      99.243 128.076  83.214  0.00  0.00    +0.000 A 
ENDBRANCH   1   7
BRANCH   2  10
ATOM     10  C   UNL     1     103.853 125.020  80.382  0.00  0.00    +0.000 C 
ATOM     11  C   UNL     1     104.192 123.916  81.397  0.00  0.00    +0.000 C 
ATOM     12  C   UNL     1     104.934 122.763  80.724  0.00  0.00    +0.000 C 
ATOM     13  C   UNL     1     106.205 123.236  80.036  0.00  0.00    +0.000 C 
ATOM     14  C   UNL     1     105.908 124.393  79.109  0.00  0.00    +0.000 C 
ATOM     15  O   UNL     1     106.394 124.452  77.980  0.00  0.00    +0.000 OA
ATOM     16  C   UNL     1     105.116 125.541  79.693  0.00  0.00    +0.000 C 
ENDBRANCH   2  10
TORSDOF 2
ENDMDL
