MODEL 1
REMARK VINA RESULT:      -4.7      0.000      0.000
REMARK  Name = *****
REMARK  3 active torsions:
REMARK  status: ('A' for Active; 'I' for Inactive)
REMARK    1  A    between atoms: C_1  and  C_2
REMARK    2  A    between atoms: C_2  and  C_11
REMARK    3  A    between atoms: N_3  and  C_4
REMARK                            x       y       z     vdW  Elec       q    Type
REMARK                         _______ _______ _______ _____ _____    ______ ____
ROOT
ATOM      1  C   UNL     1     103.213 126.853  80.864  0.00  0.00    +0.000 C 
ATOM      2  C   UNL     1     103.029 125.729  81.867  0.00  0.00    +0.000 C 
ATOM      3  N   UNL     1     102.158 125.753  82.834  0.00  0.00    +0.000 NA
ENDROOT
BRANCH   3   4
ATOM      4  C   UNL     1     101.305 126.850  82.993  0.00  0.00    +0.000 A 
ATOM      5  C   UNL     1      99.991 126.802  82.514  0.00  0.00    +0.000 A 
ATOM      6  C   UNL     1      99.135 127.889  82.696  0.00  0.00    +0.000 A 
ATOM      7  C   UNL     1      99.594 129.014  83.372  0.00  0.00    +0.000 A 
ATOM      8  C   UNL     1     100.890 129.070  83.872  0.00  0.00    +0.000 A 
ATOM      9  C   UNL     1     101.743 127.982  83.688  0.00  0.00    +0.000 A 
ATOM     10  F   UNL     1      98.773 130.058  83.549  0.00  0.00    +0.000 F 
ENDBRANCH   3   4
BRANCH   2  11
ATOM     11  C   UNL     1     103.892 124.515  81.727  0.00  0.00    +0.000 A 
ATOM     12  C   UNL     1     104.248 123.736  82.835  0.00  0.00    +0.000 A 
ATOM     13  C   UNL     1     105.064 122.612  82.668  0.00  0.00    +0.000 A 
ATOM     14  C   UNL     1     105.527 122.269  81.399  0.00  0.00    +0.000 A 
ATOM     15  C   UNL     1     105.190 123.045  80.292  0.00  0.00    +0.000 A 
ATOM     16  C   UNL     1     104.376 124.169  80.457  0.00  0.00    +0.000 A 
ATOM     17 CL   UNL     1     106.529 120.886  81.200  0.00  0.00    +0.000 Cl
ENDBRANCH   2  11
TORSDOF 2
ENDMDL
