MODEL 1
REMARK VINA RESULT:      -4.8      0.000      0.000
REMARK  Name = *****
REMARK  2 active torsions:
REMARK  status: ('A' for Active; 'I' for Inactive)
REMARK    1  A    between atoms: C_2  and  C_13
REMARK    2  A    between atoms: N_3  and  C_4
REMARK                            x       y       z     vdW  Elec       q    Type
REMARK                         _______ _______ _______ _____ _____    ______ ____
ROOT
ATOM      1  C   UNL     1     103.578 127.392  80.656  0.00  0.00    +0.000 C 
ATOM      2  C   UNL     1     103.144 126.904  82.010  0.00  0.00    +0.000 C 
ATOM      3  N   UNL     1     103.154 126.005  80.838  0.00  0.00    +0.000 N 
ENDROOT
BRANCH   3   4
ATOM      4  C   UNL     1     104.109 124.956  80.768  0.00  0.00    +0.000 A 
ATOM      5  C   UNL     1     104.946 124.961  79.638  0.00  0.00    +0.000 A 
ATOM      6  C   UNL     1     105.917 123.978  79.468  0.00  0.00    +0.000 A 
ATOM      7  C   UNL     1     106.075 122.975  80.415  0.00  0.00    +0.000 A 
ATOM      8  C   UNL     1     105.267 122.941  81.542  0.00  0.00    +0.000 A 
ATOM      9  C   UNL     1     104.295 123.926  81.712  0.00  0.00    +0.000 A 
ATOM     10  F   UNL     1     103.536 123.856  82.816  0.00  0.00    +0.000 F 
ATOM     11  F   UNL     1     107.010 122.031  80.249  0.00  0.00    +0.000 F 
ATOM     12  F   UNL     1     106.699 124.008  78.381  0.00  0.00    +0.000 F 
ENDBRANCH   3   4
BRANCH   2  13
ATOM     13  C   UNL     1     101.801 127.313  82.561  0.00  0.00    +0.000 A 
ATOM     14  C   UNL     1     101.646 128.475  83.336  0.00  0.00    +0.000 A 
ATOM     15  C   UNL     1     100.399 128.862  83.831  0.00  0.00    +0.000 A 
ATOM     16  C   UNL     1      99.273 128.092  83.556  0.00  0.00    +0.000 A 
ATOM     17  C   UNL     1      99.395 126.939  82.785  0.00  0.00    +0.000 A 
ATOM     18  C   UNL     1     100.647 126.558  82.293  0.00  0.00    +0.000 A 
ENDBRANCH   2  13
TORSDOF 2
ENDMDL
