MODEL 1
REMARK VINA RESULT:      -4.4      0.000      0.000
REMARK  Name = *****
REMARK  3 active torsions:
REMARK  status: ('A' for Active; 'I' for Inactive)
REMARK    1  A    between atoms: C_4  and  S_7
REMARK    2  A    between atoms: S_7  and  C_8
REMARK    3  A    between atoms: C_8  and  C_9
REMARK                            x       y       z     vdW  Elec       q    Type
REMARK                         _______ _______ _______ _____ _____    ______ ____
ROOT
ATOM      1  C   UNL     1     102.945 127.222  83.305  0.00  0.00    +0.000 C 
ENDROOT
BRANCH   1   2
ATOM      2  C   UNL     1     101.484 127.599  83.214  0.00  0.00    +0.000 A 
ATOM      3  C   UNL     1     100.967 128.814  83.703  0.00  0.00    +0.000 A 
ATOM      4  C   UNL     1      99.604 129.115  83.576  0.00  0.00    +0.000 A 
ATOM      5  C   UNL     1      98.739 128.206  82.969  0.00  0.00    +0.000 A 
ATOM      6  C   UNL     1      99.238 126.999  82.501  0.00  0.00    +0.000 A 
ATOM      7  C   UNL     1     100.590 126.688  82.621  0.00  0.00    +0.000 A 
ATOM      8  F   UNL     1      98.409 126.122  81.921  0.00  0.00    +0.000 F 
ATOM      9 BR   UNL     1     102.058 130.116  84.554  0.00  0.00    +0.000 Br
ENDBRANCH   1   2
BRANCH   1  10
ATOM     10  S   UNL     1     103.175 125.594  84.091  0.00  0.00    +0.000 S 
BRANCH  10  14
ATOM     11  C   UNL     1     104.826 123.149  80.557  0.00  0.00    +0.000 A 
ATOM     12  C   UNL     1     104.846 122.580  81.827  0.00  0.00    +0.000 A 
ATOM     13  C   UNL     1     104.355 123.292  82.927  0.00  0.00    +0.000 A 
ATOM     14  C   UNL     1     103.838 124.582  82.770  0.00  0.00    +0.000 A 
ATOM     15  C   UNL     1     103.824 125.141  81.484  0.00  0.00    +0.000 A 
ATOM     16  C   UNL     1     104.316 124.432  80.384  0.00  0.00    +0.000 A 
ENDBRANCH  10  14
ENDBRANCH   1  10
TORSDOF 3
ENDMDL
