MODEL 1
REMARK VINA RESULT:      -4.9      0.000      0.000
REMARK  Name = *****
REMARK  2 active torsions:
REMARK  status: ('A' for Active; 'I' for Inactive)
REMARK    1  A    between atoms: C_4  and  C_7
REMARK    2  A    between atoms: C_8  and  C_9
REMARK                            x       y       z     vdW  Elec       q    Type
REMARK                         _______ _______ _______ _____ _____    ______ ____
ROOT
ATOM      1  C   UNL     1     102.066 126.247  82.055  0.00  0.00    +0.000 C 
ATOM      2  C   UNL     1     102.932 125.533  81.627  0.00  0.00    +0.000 C 
ENDROOT
BRANCH   2   3
ATOM      3  C   UNL     1     103.961 124.680  81.118  0.00  0.00    +0.000 A 
ATOM      4  C   UNL     1     104.611 125.005  79.925  0.00  0.00    +0.000 A 
ATOM      5  C   UNL     1     105.612 124.166  79.436  0.00  0.00    +0.000 A 
ATOM      6  C   UNL     1     105.968 123.008  80.127  0.00  0.00    +0.000 A 
ATOM      7  C   UNL     1     105.318 122.685  81.318  0.00  0.00    +0.000 A 
ATOM      8  C   UNL     1     104.315 123.521  81.814  0.00  0.00    +0.000 A 
ATOM      9 CL   UNL     1     106.415 124.563  77.966  0.00  0.00    +0.000 Cl
ENDBRANCH   2   3
BRANCH   1  13
ATOM     10  C   UNL     1      99.014 128.749  83.559  0.00  0.00    +0.000 A 
ATOM     11  C   UNL     1     100.353 129.081  83.766  0.00  0.00    +0.000 A 
ATOM     12  C   UNL     1     101.363 128.254  83.270  0.00  0.00    +0.000 A 
ATOM     13  C   UNL     1     101.033 127.093  82.565  0.00  0.00    +0.000 A 
ATOM     14  C   UNL     1      99.691 126.763  82.359  0.00  0.00    +0.000 A 
ATOM     15  C   UNL     1      98.683 127.591  82.856  0.00  0.00    +0.000 A 
ENDBRANCH   1  13
TORSDOF 2
ENDMDL
