MODEL 1
REMARK VINA RESULT:      -4.3      0.000      0.000
REMARK  Name = *****
REMARK  4 active torsions:
REMARK  status: ('A' for Active; 'I' for Inactive)
REMARK    1  A    between atoms: C_1  and  C_2
REMARK    2  A    between atoms: C_6  and  O_7
REMARK    3  A    between atoms: O_7  and  C_8
REMARK    4  A    between atoms: C_8  and  C_10
REMARK                            x       y       z     vdW  Elec       q    Type
REMARK                         _______ _______ _______ _____ _____    ______ ____
ROOT
ATOM      1  C   UNL     1     102.000 125.833  82.968  0.00  0.00    +0.000 C 
ATOM      2  O   UNL     1     102.404 125.234  83.953  0.00  0.00    +0.000 OA
ENDROOT
BRANCH   1   3
ATOM      3  C   UNL     1     100.971 126.907  83.023  0.00  0.00    +0.000 A 
ATOM      4  C   UNL     1     101.322 128.129  83.615  0.00  0.00    +0.000 A 
ATOM      5  C   UNL     1     100.392 129.167  83.692  0.00  0.00    +0.000 A 
ATOM      6  C   UNL     1      99.108 128.992  83.179  0.00  0.00    +0.000 A 
ATOM      7  C   UNL     1      98.750 127.779  82.590  0.00  0.00    +0.000 A 
ATOM      8  C   UNL     1      99.677 126.737  82.511  0.00  0.00    +0.000 A 
ENDBRANCH   1   3
BRANCH   1   9
ATOM      9  O   UNL     1     102.408 125.631  81.691  0.00  0.00    +0.000 OA
BRANCH   9  15
ATOM     10  C   UNL     1     103.612 127.676  80.127  0.00  0.00    +0.000 C 
ATOM     11  C   UNL     1     104.445 126.861  81.118  0.00  0.00    +0.000 C 
ATOM     12  C   UNL     1     105.783 126.425  80.521  0.00  0.00    +0.000 C 
ATOM     13  C   UNL     1     105.478 125.141  79.753  0.00  0.00    +0.000 C 
ATOM     14  C   UNL     1     104.176 124.592  80.336  0.00  0.00    +0.000 C 
ATOM     15  C   UNL     1     103.820 125.513  81.505  0.00  0.00    +0.000 C 
ENDBRANCH   9  15
ENDBRANCH   1   9
TORSDOF 3
ENDMDL
