REMARK  Name = *****
REMARK  3 active torsions:
REMARK  status: ('A' for Active; 'I' for Inactive)
REMARK    1  A    between atoms: C_4  and  C_7
REMARK    2  A    between atoms: C_7  and  C_8
REMARK    3  A    between atoms: C_8  and  C_9
REMARK                            x       y       z     vdW  Elec       q    Type
REMARK                         _______ _______ _______ _____ _____    ______ ____
ROOT
ATOM      1  C   UNL     1      -5.112  -0.551  -0.476  0.00  0.00    +0.000 A 
ATOM      2  C   UNL     1      -5.674  -0.362  -1.738  0.00  0.00    +0.000 A 
ATOM      3  C   UNL     1      -7.037  -0.106  -1.849  0.00  0.00    +0.000 A 
ATOM      4  N   UNL     1      -7.880  -0.018  -0.797  0.00  0.00    +0.000 NA
ATOM      5  C   UNL     1      -7.317  -0.195   0.418  0.00  0.00    +0.000 A 
ATOM      6  C   UNL     1      -5.965  -0.455   0.622  0.00  0.00    +0.000 A 
ATOM      7  F   UNL     1      -5.483  -0.605   1.863  0.00  0.00    +0.000 F 
ATOM      8  F   UNL     1      -8.124  -0.106   1.486  0.00  0.00    +0.000 F 
ATOM      9  F   UNL     1      -7.562   0.073  -3.071  0.00  0.00    +0.000 F 
ATOM     10  F   UNL     1      -4.903  -0.421  -2.833  0.00  0.00    +0.000 F 
ENDROOT
BRANCH   1  11
ATOM     11  C   UNL     1      -3.642  -0.813  -0.306  0.00  0.00    +0.000 C 
BRANCH  11  12
ATOM     12  C   UNL     1      -2.845   0.488  -0.178  0.00  0.00    +0.000 C 
BRANCH  12  16
ATOM     13  C   UNL     1       1.361  -0.324   0.306  0.00  0.00    +0.000 A 
ATOM     14  C   UNL     1       0.825  -0.155  -0.970  0.00  0.00    +0.000 A 
ATOM     15  C   UNL     1      -0.535   0.114  -1.127  0.00  0.00    +0.000 A 
ATOM     16  C   UNL     1      -1.371   0.220  -0.008  0.00  0.00    +0.000 A 
ATOM     17  C   UNL     1      -0.824   0.042   1.270  0.00  0.00    +0.000 A 
ATOM     18  C   UNL     1       0.536  -0.226   1.425  0.00  0.00    +0.000 A 
ENDBRANCH  12  16
ENDBRANCH  11  12
ENDBRANCH   1  11
TORSDOF 3
