MODEL 1
REMARK VINA RESULT:      -4.2      0.000      0.000
REMARK  Name = *****
REMARK  3 active torsions:
REMARK  status: ('A' for Active; 'I' for Inactive)
REMARK    1  A    between atoms: C_3  and  S_8
REMARK    2  A    between atoms: S_8  and  C_9
REMARK    3  A    between atoms: C_9  and  C_10
REMARK                            x       y       z     vdW  Elec       q    Type
REMARK                         _______ _______ _______ _____ _____    ______ ____
ROOT
ATOM      1  S   UNL     1      88.204  70.345  88.421  0.00  0.00    +0.000 S 
ENDROOT
BRANCH   1   4
ATOM      2  C   UNL     1      84.601  72.251  88.329  0.00  0.00    +0.000 A 
ATOM      3  C   UNL     1      85.755  71.609  88.784  0.00  0.00    +0.000 A 
ATOM      4  C   UNL     1      86.715  71.155  87.870  0.00  0.00    +0.000 A 
ATOM      5  C   UNL     1      86.519  71.369  86.501  0.00  0.00    +0.000 A 
ATOM      6  C   UNL     1      85.365  72.010  86.047  0.00  0.00    +0.000 A 
ATOM      7  C   UNL     1      84.415  72.443  86.965  0.00  0.00    +0.000 A 
ATOM      8  F   UNL     1      83.309  73.058  86.531  0.00  0.00    +0.000 F 
ENDBRANCH   1   4
BRANCH   1   9
ATOM      9  C   UNL     1      88.879  69.821  86.810  0.00  0.00    +0.000 C 
BRANCH   9  10
ATOM     10  C   UNL     1      88.992  68.322  86.731  0.00  0.00    +0.000 A 
ATOM     11  C   UNL     1      90.105  67.718  86.137  0.00  0.00    +0.000 A 
ATOM     12  C   UNL     1      90.163  66.335  86.106  0.00  0.00    +0.000 A 
ATOM     13  N   UNL     1      89.218  65.518  86.613  0.00  0.00    +0.000 NA
ATOM     14  C   UNL     1      88.161  66.120  87.194  0.00  0.00    +0.000 A 
ATOM     15  C   UNL     1      88.005  67.496  87.279  0.00  0.00    +0.000 A 
ATOM     16 CL   UNL     1      91.495  65.527  85.386  0.00  0.00    +0.000 Cl
ENDBRANCH   9  10
ENDBRANCH   1   9
TORSDOF 3
ENDMDL
