MODEL 1
REMARK VINA RESULT:      -5.0      0.000      0.000
REMARK  Name = *****
REMARK  3 active torsions:
REMARK  status: ('A' for Active; 'I' for Inactive)
REMARK    1  A    between atoms: C_1  and  C_2
REMARK    2  A    between atoms: C_2  and  C_13
REMARK    3  A    between atoms: N_3  and  C_4
REMARK                            x       y       z     vdW  Elec       q    Type
REMARK                         _______ _______ _______ _____ _____    ______ ____
ROOT
ATOM      1  C   UNL     1     103.322 127.143  80.440  0.00  0.00    +0.000 C 
ATOM      2  C   UNL     1     103.256 125.905  81.316  0.00  0.00    +0.000 C 
ATOM      3  N   UNL     1     102.451 125.776  82.333  0.00  0.00    +0.000 NA
ENDROOT
BRANCH   3   4
ATOM      4  C   UNL     1     101.561 126.798  82.673  0.00  0.00    +0.000 A 
ATOM      5  C   UNL     1     100.199 126.682  82.377  0.00  0.00    +0.000 A 
ATOM      6  C   UNL     1      99.320 127.693  82.753  0.00  0.00    +0.000 A 
ATOM      7  C   UNL     1      99.778 128.812  83.434  0.00  0.00    +0.000 A 
ATOM      8  C   UNL     1     101.127 128.917  83.747  0.00  0.00    +0.000 A 
ATOM      9  C   UNL     1     102.020 127.915  83.377  0.00  0.00    +0.000 A 
ATOM     10  F   UNL     1     101.582 129.988  84.410  0.00  0.00    +0.000 F 
ATOM     11  F   UNL     1      98.925 129.782  83.790  0.00  0.00    +0.000 F 
ATOM     12  F   UNL     1      98.020 127.575  82.451  0.00  0.00    +0.000 F 
ENDBRANCH   3   4
BRANCH   2  13
ATOM     13  C   UNL     1     104.162 124.762  80.982  0.00  0.00    +0.000 A 
ATOM     14  C   UNL     1     104.968 124.780  79.838  0.00  0.00    +0.000 A 
ATOM     15  C   UNL     1     105.800 123.693  79.552  0.00  0.00    +0.000 A 
ATOM     16  C   UNL     1     105.824 122.586  80.400  0.00  0.00    +0.000 A 
ATOM     17  C   UNL     1     105.013 122.559  81.533  0.00  0.00    +0.000 A 
ATOM     18  C   UNL     1     104.180 123.641  81.821  0.00  0.00    +0.000 A 
ENDBRANCH   2  13
TORSDOF 2
ENDMDL
