MODEL 1
REMARK VINA RESULT:      -4.7      0.000      0.000
REMARK  Name = *****
REMARK  3 active torsions:
REMARK  status: ('A' for Active; 'I' for Inactive)
REMARK    1  A    between atoms: C_5  and  N_7
REMARK    2  A    between atoms: N_7  and  C_8
REMARK    3  A    between atoms: C_8  and  C_10
REMARK                            x       y       z     vdW  Elec       q    Type
REMARK                         _______ _______ _______ _____ _____    ______ ____
ROOT
ATOM      1  N   UNL     1      89.032  63.817  87.791  0.00  0.00    +0.000 N 
ATOM      2  H   UNL     1      89.825  63.681  88.358  0.00  0.00    +0.000 HD
ENDROOT
BRANCH   1   7
ATOM      3  C   UNL     1      85.634  62.271  88.298  0.00  0.00    +0.000 A 
ATOM      4  C   UNL     1      85.541  62.316  89.687  0.00  0.00    +0.000 A 
ATOM      5  C   UNL     1      86.588  62.856  90.426  0.00  0.00    +0.000 A 
ATOM      6  C   UNL     1      87.723  63.342  89.770  0.00  0.00    +0.000 A 
ATOM      7  C   UNL     1      87.841  63.291  88.362  0.00  0.00    +0.000 A 
ATOM      8  C   UNL     1      86.773  62.758  87.642  0.00  0.00    +0.000 A 
ATOM      9 CL   UNL     1      88.991  64.012  90.745  0.00  0.00    +0.000 Cl
ENDBRANCH   1   7
BRANCH   1  10
ATOM     10  C   UNL     1      89.318  64.477  86.605  0.00  0.00    +0.000 C 
ATOM     11  S   UNL     1      89.844  63.859  85.140  0.00  0.00    +0.000 S 
BRANCH  10  12
ATOM     12  C   UNL     1      89.126  65.952  86.747  0.00  0.00    +0.000 A 
ATOM     13  C   UNL     1      87.974  66.466  87.356  0.00  0.00    +0.000 A 
ATOM     14  C   UNL     1      87.801  67.849  87.455  0.00  0.00    +0.000 A 
ATOM     15  C   UNL     1      88.775  68.708  86.943  0.00  0.00    +0.000 A 
ATOM     16  C   UNL     1      89.921  68.200  86.331  0.00  0.00    +0.000 A 
ATOM     17  C   UNL     1      90.099  66.819  86.230  0.00  0.00    +0.000 A 
ATOM     18 CL   UNL     1      88.558  70.411  87.065  0.00  0.00    +0.000 Cl
ENDBRANCH  10  12
ENDBRANCH   1  10
TORSDOF 3
ENDMDL
