MODEL 1
REMARK VINA RESULT:      -5.3      0.000      0.000
REMARK  Name = *****
REMARK  2 active torsions:
REMARK  status: ('A' for Active; 'I' for Inactive)
REMARK    1  A    between atoms: C_5  and  C_8
REMARK    2  A    between atoms: C_9  and  C_10
REMARK                            x       y       z     vdW  Elec       q    Type
REMARK                         _______ _______ _______ _____ _____    ______ ____
ROOT
ATOM      1  C   UNL     1     101.832 126.966  82.471  0.00  0.00    +0.000 C 
ATOM      2  C   UNL     1     103.148 126.697  82.536  0.00  0.00    +0.000 C 
ENDROOT
BRANCH   2   3
ATOM      3  C   UNL     1     103.815 125.602  81.812  0.00  0.00    +0.000 A 
ATOM      4  C   UNL     1     103.908 124.342  82.422  0.00  0.00    +0.000 A 
ATOM      5  C   UNL     1     104.507 123.266  81.772  0.00  0.00    +0.000 A 
ATOM      6  C   UNL     1     105.014 123.422  80.492  0.00  0.00    +0.000 A 
ATOM      7  C   UNL     1     104.918 124.653  79.859  0.00  0.00    +0.000 A 
ATOM      8  C   UNL     1     104.318 125.731  80.509  0.00  0.00    +0.000 A 
ATOM      9  F   UNL     1     104.218 126.898  79.855  0.00  0.00    +0.000 F 
ATOM     10  F   UNL     1     105.394 124.805  78.615  0.00  0.00    +0.000 F 
ATOM     11  F   UNL     1     105.589 122.388  79.864  0.00  0.00    +0.000 F 
ATOM     12  F   UNL     1     104.590 122.076  82.385  0.00  0.00    +0.000 F 
ATOM     13  F   UNL     1     103.421 124.161  83.659  0.00  0.00    +0.000 F 
ENDBRANCH   2   3
BRANCH   1  18
ATOM     14  C   UNL     1     100.193 129.732  85.574  0.00  0.00    +0.000 C 
ATOM     15  C   UNL     1      98.954 129.868  84.693  0.00  0.00    +0.000 C 
ATOM     16  C   UNL     1      99.180 129.505  83.232  0.00  0.00    +0.000 C 
ATOM     17  N   UNL     1      99.800 128.193  83.051  0.00  0.00    +0.000 N 
ATOM     18  C   UNL     1     101.181 128.052  83.196  0.00  0.00    +0.000 C 
ATOM     19  C   UNL     1     101.945 128.906  83.909  0.00  0.00    +0.000 C 
ATOM     20  C   UNL     1     101.513 129.998  84.853  0.00  0.00    +0.000 C 
ATOM     21  C   UNL     1      98.958 127.145  82.679  0.00  0.00    +0.000 C 
ATOM     22  O   UNL     1      97.746 127.219  82.502  0.00  0.00    +0.000 OA
ENDBRANCH   1  18
TORSDOF 2
ENDMDL
