MODEL 1
REMARK VINA RESULT:      -5.3      0.000      0.000
REMARK  Name = *****
REMARK  2 active torsions:
REMARK  status: ('A' for Active; 'I' for Inactive)
REMARK    1  A    between atoms: C_4  and  C_7
REMARK    2  A    between atoms: C_16  and  C_17
REMARK                            x       y       z     vdW  Elec       q    Type
REMARK                         _______ _______ _______ _____ _____    ______ ____
ROOT
ATOM      1  C   UNL     1     102.084 126.228  82.589  0.00  0.00    +0.000 A 
ATOM      2  C   UNL     1     102.536 125.982  81.344  0.00  0.00    +0.000 A 
ATOM      3  C   UNL     1     103.555 124.956  81.460  0.00  0.00    +0.000 A 
ATOM      4  C   UNL     1     104.223 124.475  80.405  0.00  0.00    +0.000 A 
ATOM      5  C   UNL     1     105.256 123.468  80.385  0.00  0.00    +0.000 A 
ATOM      6  C   UNL     1     105.782 122.775  81.402  0.00  0.00    +0.000 A 
ATOM      7  C   UNL     1     105.470 122.833  82.808  0.00  0.00    +0.000 A 
ATOM      8  C   UNL     1     104.581 123.603  83.450  0.00  0.00    +0.000 A 
ATOM      9  C   UNL     1     103.695 124.584  82.871  0.00  0.00    +0.000 A 
ATOM     10  C   UNL     1     102.801 125.359  83.534  0.00  0.00    +0.000 A 
ENDROOT
BRANCH   1  14
ATOM     11  C   UNL     1      99.070 129.132  83.362  0.00  0.00    +0.000 A 
ATOM     12  C   UNL     1     100.396 129.398  83.701  0.00  0.00    +0.000 A 
ATOM     13  C   UNL     1     101.385 128.444  83.454  0.00  0.00    +0.000 A 
ATOM     14  C   UNL     1     101.049 127.219  82.867  0.00  0.00    +0.000 A 
ATOM     15  C   UNL     1      99.717 126.958  82.529  0.00  0.00    +0.000 A 
ATOM     16  C   UNL     1      98.729 127.914  82.778  0.00  0.00    +0.000 A 
ENDBRANCH   1  14
BRANCH  10  17
ATOM     17  C   UNL     1     102.512 125.399  84.990  0.00  0.00    +0.000 C 
ATOM     18  O   UNL     1     101.506 124.941  85.519  0.00  0.00    +0.000 OA
ENDBRANCH  10  17
TORSDOF 2
ENDMDL
