MODEL 1
REMARK VINA RESULT:      -3.3      0.000      0.000
REMARK  Name = *****
REMARK  6 active torsions:
REMARK  status: ('A' for Active; 'I' for Inactive)
REMARK    1  A    between atoms: C_1  and  C_2
REMARK    2  A    between atoms: C_2  and  C_3
REMARK    3  A    between atoms: C_2  and  O_9
REMARK    4  A    between atoms: O_9  and  C_10
REMARK    5  A    between atoms: C_10  and  S_11
REMARK    6  A    between atoms: S_11  and  C_12
REMARK                            x       y       z     vdW  Elec       q    Type
REMARK                         _______ _______ _______ _____ _____    ______ ____
ROOT
ATOM      1  O   UNL     1      90.036  68.608  86.800  0.00  0.00    +0.000 OA
ENDROOT
BRANCH   1   3
ATOM      2  C   UNL     1      89.492  69.594  84.667  0.00  0.00    +0.000 C 
ATOM      3  C   UNL     1      89.717  69.845  86.156  0.00  0.00    +0.000 C 
BRANCH   3   4
ATOM      4  C   UNL     1      88.473  70.438  86.791  0.00  0.00    +0.000 A 
ATOM      5  C   UNL     1      88.312  70.481  88.184  0.00  0.00    +0.000 A 
ATOM      6  C   UNL     1      87.150  71.008  88.752  0.00  0.00    +0.000 A 
ATOM      7  C   UNL     1      86.133  71.495  87.934  0.00  0.00    +0.000 A 
ATOM      8  C   UNL     1      86.275  71.453  86.548  0.00  0.00    +0.000 A 
ATOM      9  C   UNL     1      87.437  70.926  85.979  0.00  0.00    +0.000 A 
ENDBRANCH   3   4
ENDBRANCH   1   3
BRANCH   1  10
ATOM     10  C   UNL     1      90.028  67.501  85.905  0.00  0.00    +0.000 C 
BRANCH  10  11
ATOM     11  S   UNL     1      89.193  66.078  86.664  0.00  0.00    +0.000 S 
BRANCH  11  12
ATOM     12  C   UNL     1      87.591  66.813  86.910  0.00  0.00    +0.000 A 
ATOM     13  C   UNL     1      87.096  67.011  88.203  0.00  0.00    +0.000 A 
ATOM     14  C   UNL     1      85.837  67.584  88.392  0.00  0.00    +0.000 A 
ATOM     15  C   UNL     1      85.071  67.966  87.291  0.00  0.00    +0.000 A 
ATOM     16  C   UNL     1      85.565  67.779  86.000  0.00  0.00    +0.000 A 
ATOM     17  C   UNL     1      86.824  67.207  85.810  0.00  0.00    +0.000 A 
ENDBRANCH  11  12
ENDBRANCH  10  11
ENDBRANCH   1  10
TORSDOF 5
ENDMDL
