MODEL 1
REMARK VINA RESULT:      -5.0      0.000      0.000
REMARK  Name = *****
REMARK  2 active torsions:
REMARK  status: ('A' for Active; 'I' for Inactive)
REMARK    1  A    between atoms: C_1  and  C_2
REMARK    2  A    between atoms: C_4  and  C_12
REMARK                            x       y       z     vdW  Elec       q    Type
REMARK                         _______ _______ _______ _____ _____    ______ ____
ROOT
ATOM      1  C   UNL     1      87.622  71.827  83.971  0.00  0.00    +0.000 C 
ATOM      2  C   UNL     1      87.802  71.212  85.334  0.00  0.00    +0.000 C 
ATOM      3  C   UNL     1      88.890  70.461  85.593  0.00  0.00    +0.000 C 
ATOM      4  C   UNL     1      89.258  69.779  86.881  0.00  0.00    +0.000 C 
ATOM      5  S   UNL     1      88.581  70.601  88.354  0.00  0.00    +0.000 S 
ATOM      6  C   UNL     1      87.005  71.168  87.733  0.00  0.00    +0.000 A 
ATOM      7  C   UNL     1      86.004  71.397  88.691  0.00  0.00    +0.000 A 
ATOM      8  C   UNL     1      84.748  71.862  88.311  0.00  0.00    +0.000 A 
ATOM      9  C   UNL     1      84.485  72.111  86.971  0.00  0.00    +0.000 A 
ATOM     10  C   UNL     1      85.480  71.895  86.012  0.00  0.00    +0.000 A 
ATOM     11  C   UNL     1      86.758  71.422  86.370  0.00  0.00    +0.000 A 
ENDROOT
BRANCH   4  12
ATOM     12  C   UNL     1      88.991  68.283  86.878  0.00  0.00    +0.000 A 
ATOM     13  C   UNL     1      89.937  67.407  86.315  0.00  0.00    +0.000 A 
ATOM     14  C   UNL     1      89.719  66.028  86.305  0.00  0.00    +0.000 A 
ATOM     15  C   UNL     1      88.556  65.500  86.861  0.00  0.00    +0.000 A 
ATOM     16  C   UNL     1      87.613  66.351  87.431  0.00  0.00    +0.000 A 
ATOM     17  C   UNL     1      87.828  67.731  87.441  0.00  0.00    +0.000 A 
ENDBRANCH   4  12
TORSDOF 1
ENDMDL
