MODEL 1
REMARK VINA RESULT:      -4.4      0.000      0.000
REMARK  Name = *****
REMARK  3 active torsions:
REMARK  status: ('A' for Active; 'I' for Inactive)
REMARK    1  A    between atoms: C_4  and  C_7
REMARK    2  A    between atoms: C_7  and  O_9
REMARK    3  A    between atoms: O_9  and  C_10
REMARK                            x       y       z     vdW  Elec       q    Type
REMARK                         _______ _______ _______ _____ _____    ______ ____
ROOT
ATOM      1  C   UNL     1      87.753  70.701  87.927  0.00  0.00    +0.000 C 
ATOM      2  S   UNL     1      88.367  70.800  89.476  0.00  0.00    +0.000 S 
ENDROOT
BRANCH   1   6
ATOM      3  C   UNL     1      84.156  72.509  86.437  0.00  0.00    +0.000 A 
ATOM      4  C   UNL     1      85.143  72.091  85.547  0.00  0.00    +0.000 A 
ATOM      5  C   UNL     1      86.315  71.501  86.027  0.00  0.00    +0.000 A 
ATOM      6  C   UNL     1      86.508  71.323  87.405  0.00  0.00    +0.000 A 
ATOM      7  C   UNL     1      85.507  71.750  88.292  0.00  0.00    +0.000 A 
ATOM      8  C   UNL     1      84.336  72.338  87.808  0.00  0.00    +0.000 A 
ENDBRANCH   1   6
BRANCH   1   9
ATOM      9  O   UNL     1      88.390  70.027  86.879  0.00  0.00    +0.000 OA
BRANCH   9  10
ATOM     10  C   UNL     1      88.626  68.636  86.871  0.00  0.00    +0.000 A 
ATOM     11  C   UNL     1      87.625  67.770  87.310  0.00  0.00    +0.000 A 
ATOM     12  C   UNL     1      87.852  66.395  87.253  0.00  0.00    +0.000 A 
ATOM     13  C   UNL     1      89.061  65.911  86.746  0.00  0.00    +0.000 A 
ATOM     14  C   UNL     1      90.047  66.790  86.290  0.00  0.00    +0.000 A 
ATOM     15  C   UNL     1      89.827  68.166  86.345  0.00  0.00    +0.000 A 
ATOM     16 CL   UNL     1      89.334  64.213  86.674  0.00  0.00    +0.000 Cl
ENDBRANCH   9  10
ENDBRANCH   1   9
TORSDOF 3
ENDMDL
