REMARK  Name = *****
REMARK  3 active torsions:
REMARK  status: ('A' for Active; 'I' for Inactive)
REMARK    1  A    between atoms: C_4  and  C_7
REMARK    2  A    between atoms: C_7  and  C_8
REMARK    3  A    between atoms: C_8  and  C_9
REMARK                            x       y       z     vdW  Elec       q    Type
REMARK                         _______ _______ _______ _____ _____    ______ ____
ROOT
ATOM      1  C   UNL     1      -2.838   0.357  -0.489  0.00  0.00    +0.000 C 
ENDROOT
BRANCH   1   5
ATOM      2  C   UNL     1       1.384  -0.213   0.180  0.00  0.00    +0.000 A 
ATOM      3  C   UNL     1       0.786  -0.720  -0.972  0.00  0.00    +0.000 A 
ATOM      4  C   UNL     1      -0.579  -0.530  -1.192  0.00  0.00    +0.000 A 
ATOM      5  C   UNL     1      -1.357   0.172  -0.262  0.00  0.00    +0.000 A 
ATOM      6  C   UNL     1      -0.747   0.672   0.897  0.00  0.00    +0.000 A 
ATOM      7  C   UNL     1       0.618   0.481   1.114  0.00  0.00    +0.000 A 
ENDBRANCH   1   5
BRANCH   1   8
ATOM      8  C   UNL     1      -3.644  -0.834   0.038  0.00  0.00    +0.000 C 
BRANCH   8   9
ATOM      9  C   UNL     1      -5.118  -0.631  -0.157  0.00  0.00    +0.000 A 
ATOM     10  C   UNL     1      -6.024  -0.065   0.719  0.00  0.00    +0.000 A 
ATOM     11  C   UNL     1      -7.346  -0.040   0.188  0.00  0.00    +0.000 A 
ATOM     12  C   UNL     1      -7.406  -0.588  -1.073  0.00  0.00    +0.000 A 
ATOM     13  S   UNL     1      -5.876  -1.131  -1.610  0.00  0.00    +0.000 S 
ENDBRANCH   8   9
ENDBRANCH   1   8
TORSDOF 3
