MODEL 1
REMARK VINA RESULT:      -4.5      0.000      0.000
REMARK  Name = *****
REMARK  3 active torsions:
REMARK  status: ('A' for Active; 'I' for Inactive)
REMARK    1  A    between atoms: C_4  and  O_7
REMARK    2  A    between atoms: O_7  and  P_8
REMARK    3  A    between atoms: P_8  and  C_9
REMARK                            x       y       z     vdW  Elec       q    Type
REMARK                         _______ _______ _______ _____ _____    ______ ____
ROOT
ATOM      1  P   UNL     1     103.512 126.271  82.343  0.00  0.00    +0.000 P 
ATOM      2 BR   UNL     1     103.539 127.175  80.352  0.00  0.00    +0.000 Br
ENDROOT
BRANCH   1   3
ATOM      3  C   UNL     1     104.123 124.603  81.898  0.00  0.00    +0.000 A 
ATOM      4  C   UNL     1     104.492 124.250  80.590  0.00  0.00    +0.000 A 
ATOM      5  C   UNL     1     104.947 122.963  80.296  0.00  0.00    +0.000 A 
ATOM      6  C   UNL     1     105.038 122.007  81.306  0.00  0.00    +0.000 A 
ATOM      7  C   UNL     1     104.678 122.340  82.610  0.00  0.00    +0.000 A 
ATOM      8  C   UNL     1     104.224 123.628  82.904  0.00  0.00    +0.000 A 
ENDBRANCH   1   3
BRANCH   1   9
ATOM      9  O   UNL     1     101.925 125.985  82.436  0.00  0.00    +0.000 OA
BRANCH   9  13
ATOM     10  C   UNL     1      99.112 128.930  83.321  0.00  0.00    +0.000 A 
ATOM     11  C   UNL     1      98.677 127.768  82.686  0.00  0.00    +0.000 A 
ATOM     12  C   UNL     1      99.586 126.754  82.372  0.00  0.00    +0.000 A 
ATOM     13  C   UNL     1     100.938 126.901  82.696  0.00  0.00    +0.000 A 
ATOM     14  C   UNL     1     101.368 128.071  83.331  0.00  0.00    +0.000 A 
ATOM     15  C   UNL     1     100.458 129.082  83.644  0.00  0.00    +0.000 A 
ENDBRANCH   9  13
ENDBRANCH   1   9
TORSDOF 3
ENDMDL
