REMARK  Name = *****
REMARK  3 active torsions:
REMARK  status: ('A' for Active; 'I' for Inactive)
REMARK    1  A    between atoms: C_4  and  C_7
REMARK    2  A    between atoms: C_7  and  C_8
REMARK    3  A    between atoms: C_8  and  C_9
REMARK                            x       y       z     vdW  Elec       q    Type
REMARK                         _______ _______ _______ _____ _____    ______ ____
ROOT
ATOM      1  C   UNL     1      -2.849   0.602   0.016  0.00  0.00    +0.000 C 
ATOM      2 CL   UNL     1      -4.067  -0.697   0.269  0.00  0.00    +0.000 Cl
ENDROOT
BRANCH   1   6
ATOM      3  C   UNL     1       1.161  -1.002   0.324  0.00  0.00    +0.000 A 
ATOM      4  C   UNL     1       0.739   0.012   1.180  0.00  0.00    +0.000 A 
ATOM      5  C   UNL     1      -0.558   0.518   1.080  0.00  0.00    +0.000 A 
ATOM      6  C   UNL     1      -1.454   0.015   0.122  0.00  0.00    +0.000 A 
ATOM      7  C   UNL     1      -1.012  -1.008  -0.734  0.00  0.00    +0.000 A 
ATOM      8  C   UNL     1       0.286  -1.513  -0.632  0.00  0.00    +0.000 A 
ENDBRANCH   1   6
BRANCH   1   9
ATOM      9  C   UNL     1      -3.127   1.312  -1.321  0.00  0.00    +0.000 C 
BRANCH   9  10
ATOM     10  C   UNL     1      -2.335   2.592  -1.485  0.00  0.00    +0.000 A 
ATOM     11  C   UNL     1      -1.125   2.594  -2.197  0.00  0.00    +0.000 A 
ATOM     12  C   UNL     1      -0.385   3.769  -2.327  0.00  0.00    +0.000 A 
ATOM     13  C   UNL     1      -0.852   4.941  -1.746  0.00  0.00    +0.000 A 
ATOM     14  C   UNL     1      -2.046   4.961  -1.036  0.00  0.00    +0.000 A 
ATOM     15  C   UNL     1      -2.789   3.787  -0.903  0.00  0.00    +0.000 A 
ATOM     16  F   UNL     1      -0.140   6.069  -1.871  0.00  0.00    +0.000 F 
ENDBRANCH   9  10
ENDBRANCH   1   9
TORSDOF 3
