REMARK  Name = *****
REMARK  2 active torsions:
REMARK  status: ('A' for Active; 'I' for Inactive)
REMARK    1  A    between atoms: C_3  and  C_9
REMARK    2  A    between atoms: N_10  and  C_11
REMARK                            x       y       z     vdW  Elec       q    Type
REMARK                         _______ _______ _______ _____ _____    ______ ____
ROOT
ATOM      1  C   UNL     1      -1.965   2.744   0.425  0.00  0.00    +0.000 C 
ATOM      2  N   UNL     1      -2.095   3.661  -0.481  0.00  0.00    +0.000 NA
ENDROOT
BRANCH   1   5
ATOM      3  C   UNL     1      -2.172  -0.473  -1.548  0.00  0.00    +0.000 A 
ATOM      4  C   UNL     1      -2.144   0.892  -1.248  0.00  0.00    +0.000 A 
ATOM      5  C   UNL     1      -1.999   1.313   0.081  0.00  0.00    +0.000 A 
ATOM      6  C   UNL     1      -1.884   0.372   1.100  0.00  0.00    +0.000 A 
ATOM      7  C   UNL     1      -1.913  -0.983   0.794  0.00  0.00    +0.000 A 
ATOM      8  C   UNL     1      -2.056  -1.414  -0.523  0.00  0.00    +0.000 A 
ATOM      9  F   UNL     1      -1.804  -1.894   1.771  0.00  0.00    +0.000 F 
ATOM     10  F   UNL     1      -1.749   0.761   2.377  0.00  0.00    +0.000 F 
ENDBRANCH   1   5
BRANCH   2  11
ATOM     11  C   UNL     1      -2.030   5.004  -0.059  0.00  0.00    +0.000 A 
ATOM     12  C   UNL     1      -0.953   5.537   0.663  0.00  0.00    +0.000 A 
ATOM     13  C   UNL     1      -0.938   6.881   1.020  0.00  0.00    +0.000 A 
ATOM     14  C   UNL     1      -1.984   7.725   0.659  0.00  0.00    +0.000 A 
ATOM     15  C   UNL     1      -3.055   7.214  -0.073  0.00  0.00    +0.000 A 
ATOM     16  C   UNL     1      -3.072   5.862  -0.432  0.00  0.00    +0.000 A 
ATOM     17  F   UNL     1       0.091   7.379   1.719  0.00  0.00    +0.000 F 
ATOM     18  F   UNL     1       0.074   4.750   1.023  0.00  0.00    +0.000 F 
ENDBRANCH   2  11
TORSDOF 2
