REMARK  Name = *****
REMARK  5 active torsions:
REMARK  status: ('A' for Active; 'I' for Inactive)
REMARK    1  A    between atoms: C_1  and  C_2
REMARK    2  A    between atoms: C_2  and  O_4
REMARK    3  A    between atoms: O_4  and  C_5
REMARK    4  A    between atoms: C_8  and  C_11
REMARK    5  A    between atoms: C_12  and  C_13
REMARK                            x       y       z     vdW  Elec       q    Type
REMARK                         _______ _______ _______ _____ _____    ______ ____
ROOT
ATOM      1  C   UNL     1       4.723  -0.238   1.316  0.00  0.00    +0.000 A 
ATOM      2  C   UNL     1       5.503   0.905   1.144  0.00  0.00    +0.000 A 
ATOM      3  C   UNL     1       6.895   0.793   1.174  0.00  0.00    +0.000 A 
ATOM      4  C   UNL     1       7.493  -0.452   1.392  0.00  0.00    +0.000 A 
ATOM      5  C   UNL     1       6.699  -1.587   1.584  0.00  0.00    +0.000 A 
ATOM      6  C   UNL     1       5.308  -1.480   1.553  0.00  0.00    +0.000 A 
ENDROOT
BRANCH   4   7
ATOM      7  C   UNL     1       8.919  -0.563   1.426  0.00  0.00    +0.000 C 
ATOM      8  C   UNL     1      10.117  -0.655   1.458  0.00  0.00    +0.000 C 
BRANCH   8   9
ATOM      9  C   UNL     1      11.542  -0.762   1.497  0.00  0.00    +0.000 A 
ATOM     10  C   UNL     1      12.144  -1.982   1.813  0.00  0.00    +0.000 A 
ATOM     11  C   UNL     1      13.536  -2.085   1.852  0.00  0.00    +0.000 A 
ATOM     12  C   UNL     1      14.327  -0.970   1.575  0.00  0.00    +0.000 A 
ATOM     13  C   UNL     1      13.728   0.249   1.259  0.00  0.00    +0.000 A 
ATOM     14  C   UNL     1      12.336   0.354   1.219  0.00  0.00    +0.000 A 
ENDBRANCH   8   9
ENDBRANCH   4   7
BRANCH   1  15
ATOM     15  O   UNL     1       3.326  -0.162   1.354  0.00  0.00    +0.000 OA
BRANCH  15  17
ATOM     16  C   UNL     1       1.233   0.299   0.392  0.00  0.00    +0.000 C 
ATOM     17  C   UNL     1       2.717   0.261   0.177  0.00  0.00    +0.000 C 
ATOM     18  O   UNL     1       3.267   0.551  -0.877  0.00  0.00    +0.000 OA
ENDBRANCH  15  17
ENDBRANCH   1  15
TORSDOF 4
