MODEL 1
REMARK VINA RESULT:      -3.6      0.000      0.000
REMARK  Name = *****
REMARK  5 active torsions:
REMARK  status: ('A' for Active; 'I' for Inactive)
REMARK    1  A    between atoms: C_1  and  N_2
REMARK    2  A    between atoms: N_2  and  C_3
REMARK    3  A    between atoms: N_2  and  S_10
REMARK    4  A    between atoms: C_3  and  C_4
REMARK    5  A    between atoms: S_10  and  C_11
REMARK                            x       y       z     vdW  Elec       q    Type
REMARK                         _______ _______ _______ _____ _____    ______ ____
ROOT
ATOM      1  C   UNL     1      84.522  65.279  85.807  0.00  0.00    +0.000 C 
ATOM      2  N   UNL     1      85.409  64.813  86.884  0.00  0.00    +0.000 NA
ENDROOT
BRANCH   2   3
ATOM      3  C   UNL     1      85.598  63.349  86.792  0.00  0.00    +0.000 C 
BRANCH   3   4
ATOM      4  C   UNL     1      85.218  62.593  88.050  0.00  0.00    +0.000 A 
ATOM      5  C   UNL     1      83.939  62.731  88.608  0.00  0.00    +0.000 A 
ATOM      6  C   UNL     1      83.591  62.028  89.763  0.00  0.00    +0.000 A 
ATOM      7  C   UNL     1      84.516  61.178  90.369  0.00  0.00    +0.000 A 
ATOM      8  C   UNL     1      85.789  61.030  89.822  0.00  0.00    +0.000 A 
ATOM      9  C   UNL     1      86.138  61.732  88.668  0.00  0.00    +0.000 A 
ENDBRANCH   3   4
ENDBRANCH   2   3
BRANCH   2  10
ATOM     10  S   UNL     1      86.766  65.742  87.225  0.00  0.00    +0.000 S 
BRANCH  10  11
ATOM     11  C   UNL     1      87.246  65.108  88.827  0.00  0.00    +0.000 A 
ATOM     12  C   UNL     1      86.435  65.266  89.956  0.00  0.00    +0.000 A 
ATOM     13  C   UNL     1      86.833  64.746  91.190  0.00  0.00    +0.000 A 
ATOM     14  C   UNL     1      88.041  64.060  91.302  0.00  0.00    +0.000 A 
ATOM     15  C   UNL     1      88.851  63.891  90.181  0.00  0.00    +0.000 A 
ATOM     16  C   UNL     1      88.453  64.410  88.946  0.00  0.00    +0.000 A 
ENDBRANCH  10  11
ENDBRANCH   2  10
TORSDOF 4
ENDMDL
