REMARK  Name = *****
REMARK  2 active torsions:
REMARK  status: ('A' for Active; 'I' for Inactive)
REMARK    1  A    between atoms: C_4  and  C_7
REMARK    2  A    between atoms: C_8  and  C_9
REMARK                            x       y       z     vdW  Elec       q    Type
REMARK                         _______ _______ _______ _____ _____    ______ ____
ROOT
ATOM      1  C   UNL     1       2.768  -0.676  -0.328  0.00  0.00    +0.000 C 
ATOM      2  C   UNL     1       3.434  -1.808  -0.051  0.00  0.00    +0.000 C 
ENDROOT
BRANCH   2   3
ATOM      3  C   UNL     1       4.810  -2.128  -0.584  0.00  0.00    +0.000 C 
ATOM      4  C   UNL     1       4.768  -3.426  -1.408  0.00  0.00    +0.000 C 
ATOM      5  C   UNL     1       6.155  -3.789  -1.936  0.00  0.00    +0.000 C 
ATOM      6  C   UNL     1       7.168  -3.926  -0.809  0.00  0.00    +0.000 C 
ATOM      7  C   UNL     1       7.158  -2.689   0.058  0.00  0.00    +0.000 C 
ATOM      8  O   UNL     1       8.202  -2.151   0.424  0.00  0.00    +0.000 OA
ATOM      9  C   UNL     1       5.810  -2.237   0.570  0.00  0.00    +0.000 C 
ENDBRANCH   2   3
BRANCH   1  13
ATOM     10  C   UNL     1      -0.926   1.464   0.477  0.00  0.00    +0.000 C 
ATOM     11  C   UNL     1      -0.987   0.229  -0.418  0.00  0.00    +0.000 C 
ATOM     12  C   UNL     1       0.396  -0.160  -0.936  0.00  0.00    +0.000 C 
ATOM     13  C   UNL     1       1.395  -0.356   0.214  0.00  0.00    +0.000 C 
ATOM     14  C   UNL     1       1.452   0.892   1.107  0.00  0.00    +0.000 C 
ATOM     15  C   UNL     1       0.067   1.279   1.621  0.00  0.00    +0.000 C 
ENDBRANCH   1  13
TORSDOF 2
