MODEL 1
REMARK VINA RESULT:      -4.4      0.000      0.000
REMARK  Name = *****
REMARK  2 active torsions:
REMARK  status: ('A' for Active; 'I' for Inactive)
REMARK    1  A    between atoms: C_4  and  C_7
REMARK    2  A    between atoms: C_10  and  C_13
REMARK                            x       y       z     vdW  Elec       q    Type
REMARK                         _______ _______ _______ _____ _____    ______ ____
ROOT
ATOM      1  C   UNL     1      87.678  67.971  86.237  0.00  0.00    +0.000 C 
ATOM      2  O   UNL     1      86.759  68.705  85.414  0.00  0.00    +0.000 OA
ATOM      3  O   UNL     1      87.435  69.931  84.962  0.00  0.00    +0.000 OA
ATOM      4  C   UNL     1      87.777  70.703  86.128  0.00  0.00    +0.000 C 
ATOM      5  O   UNL     1      88.711  69.963  86.937  0.00  0.00    +0.000 OA
ATOM      6  O   UNL     1      88.040  68.738  87.395  0.00  0.00    +0.000 OA
ENDROOT
BRANCH   1  10
ATOM      7  C   UNL     1      90.592  65.238  84.424  0.00  0.00    +0.000 C 
ATOM      8  C   UNL     1      89.661  66.014  83.500  0.00  0.00    +0.000 C 
ATOM      9  C   UNL     1      88.466  66.589  84.255  0.00  0.00    +0.000 C 
ATOM     10  C   UNL     1      88.902  67.449  85.452  0.00  0.00    +0.000 C 
ATOM     11  C   UNL     1      89.855  66.666  86.372  0.00  0.00    +0.000 C 
ATOM     12  C   UNL     1      91.044  66.091  85.605  0.00  0.00    +0.000 C 
ENDBRANCH   1  10
BRANCH   4  13
ATOM     13  C   UNL     1      86.581  71.259  86.889  0.00  0.00    +0.000 A 
ATOM     14  C   UNL     1      86.576  71.304  88.294  0.00  0.00    +0.000 A 
ATOM     15  C   UNL     1      85.499  71.857  88.989  0.00  0.00    +0.000 A 
ATOM     16  C   UNL     1      84.415  72.385  88.291  0.00  0.00    +0.000 A 
ATOM     17  C   UNL     1      84.409  72.364  86.899  0.00  0.00    +0.000 A 
ATOM     18  C   UNL     1      85.486  71.811  86.202  0.00  0.00    +0.000 A 
ENDBRANCH   4  13
TORSDOF 2
ENDMDL
