REMARK  Name = *****
REMARK  6 active torsions:
REMARK  status: ('A' for Active; 'I' for Inactive)
REMARK    1  A    between atoms: C_1  and  N_2
REMARK    2  A    between atoms: N_2  and  C_3
REMARK    3  A    between atoms: N_2  and  C_18
REMARK    4  A    between atoms: C_8  and  C_9
REMARK    5  A    between atoms: C_10  and  C_11
REMARK    6  A    between atoms: C_14  and  C_17
REMARK                            x       y       z     vdW  Elec       q    Type
REMARK                         _______ _______ _______ _____ _____    ______ ____
ROOT
ATOM      1  C   UNL     1       1.774   1.981  -1.291  0.00  0.00    +0.000 A 
ATOM      2  C   UNL     1       0.637   2.544  -0.680  0.00  0.00    +0.000 A 
ATOM      3  C   UNL     1      -0.357   3.182  -1.425  0.00  0.00    +0.000 A 
ATOM      4  C   UNL     1      -0.234   3.271  -2.806  0.00  0.00    +0.000 A 
ATOM      5  C   UNL     1       0.881   2.721  -3.438  0.00  0.00    +0.000 A 
ATOM      6  C   UNL     1       1.885   2.077  -2.695  0.00  0.00    +0.000 A 
ENDROOT
BRANCH   1   8
ATOM      7  C   UNL     1       2.741  -0.089  -0.561  0.00  0.00    +0.000 C 
ATOM      8  N   UNL     1       2.698   1.366  -0.418  0.00  0.00    +0.000 N 
ATOM      9  C   UNL     1       4.004   2.022  -0.384  0.00  0.00    +0.000 C 
ENDBRANCH   1   8
BRANCH   6  10
ATOM     10  C   UNL     1       2.990   1.536  -3.432  0.00  0.00    +0.000 C 
ATOM     11  C   UNL     1       3.910   1.090  -4.065  0.00  0.00    +0.000 C 
BRANCH  11  12
ATOM     12  C   UNL     1       5.009   0.559  -4.809  0.00  0.00    +0.000 A 
ATOM     13  C   UNL     1       6.086   1.380  -5.147  0.00  0.00    +0.000 A 
ATOM     14  C   UNL     1       7.162   0.860  -5.872  0.00  0.00    +0.000 A 
ATOM     15  C   UNL     1       7.165  -0.481  -6.273  0.00  0.00    +0.000 A 
ATOM     16  C   UNL     1       6.088  -1.302  -5.916  0.00  0.00    +0.000 A 
ATOM     17  C   UNL     1       5.012  -0.783  -5.192  0.00  0.00    +0.000 A 
ATOM     18  C   UNL     1       8.336  -1.048  -7.020  0.00  0.00    +0.000 C 
ENDBRANCH  11  12
ENDBRANCH   6  10
TORSDOF 3
