MODEL 1
REMARK VINA RESULT:      -3.7      0.000      0.000
REMARK  Name = *****
REMARK  2 active torsions:
REMARK  status: ('A' for Active; 'I' for Inactive)
REMARK    1  A    between atoms: C_4  and  C_6
REMARK    2  A    between atoms: C_7  and  C_8
REMARK                            x       y       z     vdW  Elec       q    Type
REMARK                         _______ _______ _______ _____ _____    ______ ____
ROOT
ATOM      1  C   UNL     1     102.663 126.211  81.727  0.00  0.00    +0.000 C 
ATOM      2  C   UNL     1     101.687 126.092  82.641  0.00  0.00    +0.000 C 
ENDROOT
BRANCH   2   3
ATOM      3  C   UNL     1     100.804 127.174  82.938  0.00  0.00    +0.000 A 
ATOM      4  C   UNL     1     101.011 128.423  83.495  0.00  0.00    +0.000 A 
ATOM      5  C   UNL     1      99.831 129.205  83.620  0.00  0.00    +0.000 A 
ATOM      6  C   UNL     1      98.731 128.539  83.133  0.00  0.00    +0.000 A 
ATOM      7  S   UNL     1      99.133 126.997  82.522  0.00  0.00    +0.000 S 
ATOM      8 BR   UNL     1     102.673 129.159  84.035  0.00  0.00    +0.000 Br
ENDBRANCH   2   3
BRANCH   1  12
ATOM      9  C   UNL     1     105.007 123.608  80.387  0.00  0.00    +0.000 A 
ATOM     10  C   UNL     1     105.066 123.178  81.690  0.00  0.00    +0.000 A 
ATOM     11  S   UNL     1     104.093 124.127  82.722  0.00  0.00    +0.000 S 
ATOM     12  C   UNL     1     103.567 125.146  81.428  0.00  0.00    +0.000 A 
ATOM     13  C   UNL     1     104.147 124.737  80.237  0.00  0.00    +0.000 A 
ENDBRANCH   1  12
TORSDOF 2
ENDMDL
