MODEL 1
REMARK VINA RESULT:      -4.7      0.000      0.000
REMARK  Name = *****
REMARK  4 active torsions:
REMARK  status: ('A' for Active; 'I' for Inactive)
REMARK    1  A    between atoms: C_1  and  C_2
REMARK    2  A    between atoms: C_5  and  C_8
REMARK    3  A    between atoms: C_10  and  C_11
REMARK    4  A    between atoms: C_14  and  C_17
REMARK                            x       y       z     vdW  Elec       q    Type
REMARK                         _______ _______ _______ _____ _____    ______ ____
ROOT
ATOM      1  C   UNL     1      87.673  63.793  86.543  0.00  0.00    +0.000 C 
ATOM      2  C   UNL     1      86.281  63.373  86.935  0.00  0.00    +0.000 C 
ATOM      3  C   UNL     1      87.452  62.907  87.764  0.00  0.00    +0.000 C 
ENDROOT
BRANCH   1   8
ATOM      4  C   UNL     1      89.548  69.336  86.864  0.00  0.00    +0.000 C 
ATOM      5  C   UNL     1      89.068  67.916  86.813  0.00  0.00    +0.000 A 
ATOM      6  C   UNL     1      89.918  66.894  86.388  0.00  0.00    +0.000 A 
ATOM      7  C   UNL     1      89.456  65.575  86.314  0.00  0.00    +0.000 A 
ATOM      8  C   UNL     1      88.139  65.230  86.660  0.00  0.00    +0.000 A 
ATOM      9  C   UNL     1      87.292  66.278  87.051  0.00  0.00    +0.000 A 
ATOM     10  C   UNL     1      87.745  67.600  87.128  0.00  0.00    +0.000 A 
ENDBRANCH   1   8
BRANCH   3  11
ATOM     11  C   UNL     1      87.627  63.401  89.185  0.00  0.00    +0.000 A 
ATOM     12  C   UNL     1      86.532  63.654  90.027  0.00  0.00    +0.000 A 
ATOM     13  C   UNL     1      86.702  64.085  91.347  0.00  0.00    +0.000 A 
ATOM     14  C   UNL     1      87.984  64.276  91.868  0.00  0.00    +0.000 A 
ATOM     15  C   UNL     1      89.086  63.995  91.060  0.00  0.00    +0.000 A 
ATOM     16  C   UNL     1      88.905  63.563  89.742  0.00  0.00    +0.000 A 
ATOM     17  C   UNL     1      88.172  64.709  93.292  0.00  0.00    +0.000 C 
ENDBRANCH   3  11
TORSDOF 2
ENDMDL
