REMARK  Name = *****
REMARK  2 active torsions:
REMARK  status: ('A' for Active; 'I' for Inactive)
REMARK    1  A    between atoms: C_4  and  C_7
REMARK    2  A    between atoms: N_9  and  C_10
REMARK                            x       y       z     vdW  Elec       q    Type
REMARK                         _______ _______ _______ _____ _____    ______ ____
ROOT
ATOM      1  C   UNL     1       2.674  -0.666  -0.931  0.00  0.00    +0.000 C 
ATOM      2  O   UNL     1       2.660  -1.204  -2.032  0.00  0.00    +0.000 OA
ATOM      3  N   UNL     1       3.794  -0.167  -0.290  0.00  0.00    +0.000 N 
ATOM      4  H   UNL     1       3.643   0.218   0.603  0.00  0.00    +0.000 HD
ENDROOT
BRANCH   3   5
ATOM      5  C   UNL     1       5.132  -0.141  -0.756  0.00  0.00    +0.000 A 
ATOM      6  C   UNL     1       6.121   0.395   0.094  0.00  0.00    +0.000 A 
ATOM      7  C   UNL     1       7.459   0.454  -0.302  0.00  0.00    +0.000 A 
ATOM      8  C   UNL     1       7.829  -0.022  -1.559  0.00  0.00    +0.000 A 
ATOM      9  C   UNL     1       6.859  -0.552  -2.407  0.00  0.00    +0.000 A 
ATOM     10  C   UNL     1       5.519  -0.613  -2.014  0.00  0.00    +0.000 A 
ATOM     11 CL   UNL     1       7.323  -1.135  -3.959  0.00  0.00    +0.000 Cl
ATOM     12 CL   UNL     1       5.711   1.001   1.664  0.00  0.00    +0.000 Cl
ENDBRANCH   3   5
BRANCH   1  16
ATOM     13  C   UNL     1      -1.412   0.423   0.193  0.00  0.00    +0.000 C 
ATOM     14  C   UNL     1      -1.062  -1.058   0.089  0.00  0.00    +0.000 C 
ATOM     15  C   UNL     1       0.227  -1.273  -0.698  0.00  0.00    +0.000 C 
ATOM     16  C   UNL     1       1.398  -0.477  -0.102  0.00  0.00    +0.000 C 
ATOM     17  C   UNL     1       1.039   1.012   0.006  0.00  0.00    +0.000 C 
ATOM     18  C   UNL     1      -0.259   1.230   0.780  0.00  0.00    +0.000 C 
ENDBRANCH   1  16
TORSDOF 2
