REMARK  Name = *****
REMARK  2 active torsions:
REMARK  status: ('A' for Active; 'I' for Inactive)
REMARK    1  A    between atoms: C_8  and  C_10
REMARK    2  A    between atoms: C_13  and  C_15
REMARK                            x       y       z     vdW  Elec       q    Type
REMARK                         _______ _______ _______ _____ _____    ______ ____
ROOT
ATOM      1  C   UNL     1       2.577  -0.356   0.425  0.00  0.00    +0.000 C 
ATOM      2  C   UNL     1       2.314   0.947  -0.345  0.00  0.00    +0.000 C 
ATOM      3  C   UNL     1       0.920   1.520  -0.040  0.00  0.00    +0.000 C 
ATOM      4  C   UNL     1      -0.109   0.432  -0.054  0.00  0.00    +0.000 A 
ATOM      5  C   UNL     1       0.164  -0.920   0.011  0.00  0.00    +0.000 A 
ATOM      6  C   UNL     1       1.565  -1.451   0.051  0.00  0.00    +0.000 C 
ATOM      7  C   UNL     1      -1.039  -1.689   0.008  0.00  0.00    +0.000 A 
ATOM      8  C   UNL     1      -2.175  -0.902  -0.055  0.00  0.00    +0.000 A 
ATOM      9  S   UNL     1      -1.775   0.764  -0.110  0.00  0.00    +0.000 S 
ENDROOT
BRANCH   8  10
ATOM     10  C   UNL     1      -3.537  -1.351  -0.076  0.00  0.00    +0.000 A 
ATOM     11  N   UNL     1      -3.898  -2.623  -0.030  0.00  0.00    +0.000 NA
ATOM     12  N   UNL     1      -5.276  -2.659  -0.071  0.00  0.00    +0.000 NA
ATOM     13  C   UNL     1      -5.674  -1.407  -0.137  0.00  0.00    +0.000 A 
ATOM     14  O   UNL     1      -4.632  -0.520  -0.158  0.00  0.00    +0.000 OA
BRANCH  13  15
ATOM     15  C   UNL     1      -7.040  -0.859  -0.227  0.00  0.00    +0.000 C 
ATOM     16 CL   UNL     1      -7.533  -0.118   1.313  0.00  0.00    +0.000 Cl
ENDBRANCH  13  15
ENDBRANCH   8  10
TORSDOF 2
