MODEL 1
REMARK VINA RESULT:      -4.4      0.000      0.000
REMARK  Name = *****
REMARK  5 active torsions:
REMARK  status: ('A' for Active; 'I' for Inactive)
REMARK    1  A    between atoms: C_1  and  O_2
REMARK    2  A    between atoms: O_2  and  C_3
REMARK    3  A    between atoms: C_6  and  C_9
REMARK    4  A    between atoms: C_9  and  C_10
REMARK    5  A    between atoms: C_10  and  C_12
REMARK                            x       y       z     vdW  Elec       q    Type
REMARK                         _______ _______ _______ _____ _____    ______ ____
ROOT
ATOM      1  C   UNL     1      89.379  68.532  84.686  0.00  0.00    +0.000 C 
ENDROOT
BRANCH   1   5
ATOM      2  C   UNL     1      89.173  72.766  83.794  0.00  0.00    +0.000 A 
ATOM      3  C   UNL     1      88.007  72.040  84.029  0.00  0.00    +0.000 A 
ATOM      4  C   UNL     1      88.075  70.671  84.314  0.00  0.00    +0.000 A 
ATOM      5  C   UNL     1      89.308  70.007  84.359  0.00  0.00    +0.000 A 
ATOM      6  C   UNL     1      90.476  70.742  84.121  0.00  0.00    +0.000 A 
ATOM      7  C   UNL     1      90.405  72.110  83.843  0.00  0.00    +0.000 A 
BRANCH   2   9
ATOM      8  C   UNL     1      89.595  74.455  82.177  0.00  0.00    +0.000 C 
ATOM      9  O   UNL     1      89.248  74.102  83.510  0.00  0.00    +0.000 OA
ENDBRANCH   2   9
ENDBRANCH   1   5
BRANCH   1  10
ATOM     10  C   UNL     1      89.699  68.211  86.139  0.00  0.00    +0.000 C 
ATOM     11  O   UNL     1      90.566  67.409  86.481  0.00  0.00    +0.000 OA
BRANCH  10  12
ATOM     12  C   UNL     1      88.912  68.906  87.208  0.00  0.00    +0.000 A 
ATOM     13  C   UNL     1      89.342  70.101  87.804  0.00  0.00    +0.000 A 
ATOM     14  C   UNL     1      88.564  70.709  88.796  0.00  0.00    +0.000 A 
ATOM     15  C   UNL     1      87.365  70.125  89.189  0.00  0.00    +0.000 A 
ATOM     16  C   UNL     1      86.925  68.942  88.612  0.00  0.00    +0.000 A 
ATOM     17  C   UNL     1      87.698  68.331  87.622  0.00  0.00    +0.000 A 
ATOM     18  F   UNL     1      86.626  70.713  90.138  0.00  0.00    +0.000 F 
ENDBRANCH  10  12
ENDBRANCH   1  10
TORSDOF 4
ENDMDL
