MODEL 1
REMARK VINA RESULT:      -4.6      0.000      0.000
REMARK  Name = *****
REMARK  2 active torsions:
REMARK  status: ('A' for Active; 'I' for Inactive)
REMARK    1  A    between atoms: C_5  and  C_7
REMARK    2  A    between atoms: N_8  and  C_9
REMARK                            x       y       z     vdW  Elec       q    Type
REMARK                         _______ _______ _______ _____ _____    ______ ____
ROOT
ATOM      1  C   UNL     1     102.037 125.998  82.522  0.00  0.00    +0.000 C 
ATOM      2  N   UNL     1     102.729 125.995  81.424  0.00  0.00    +0.000 NA
ENDROOT
BRANCH   1   7
ATOM      3  C   UNL     1      98.650 127.655  82.613  0.00  0.00    +0.000 A 
ATOM      4  C   UNL     1      98.940 128.871  83.223  0.00  0.00    +0.000 A 
ATOM      5  C   UNL     1     100.250 129.161  83.613  0.00  0.00    +0.000 A 
ATOM      6  C   UNL     1     101.275 128.234  83.392  0.00  0.00    +0.000 A 
ATOM      7  C   UNL     1     100.986 127.008  82.778  0.00  0.00    +0.000 A 
ATOM      8  C   UNL     1      99.668 126.725  82.390  0.00  0.00    +0.000 A 
ATOM      9 CL   UNL     1     102.864 128.677  83.909  0.00  0.00    +0.000 Cl
ENDBRANCH   1   7
BRANCH   2  10
ATOM     10  C   UNL     1     103.692 124.986  81.306  0.00  0.00    +0.000 A 
ATOM     11  C   UNL     1     103.957 124.131  82.380  0.00  0.00    +0.000 A 
ATOM     12  C   UNL     1     104.906 123.113  82.256  0.00  0.00    +0.000 A 
ATOM     13  C   UNL     1     105.583 122.945  81.049  0.00  0.00    +0.000 A 
ATOM     14  C   UNL     1     105.314 123.781  79.966  0.00  0.00    +0.000 A 
ATOM     15  C   UNL     1     104.366 124.797  80.096  0.00  0.00    +0.000 A 
ATOM     16 CL   UNL     1     106.751 121.692  80.892  0.00  0.00    +0.000 Cl
ENDBRANCH   2  10
TORSDOF 2
ENDMDL
