REMARK  Name = *****
REMARK  3 active torsions:
REMARK  status: ('A' for Active; 'I' for Inactive)
REMARK    1  A    between atoms: C_4  and  C_7
REMARK    2  A    between atoms: C_7  and  C_8
REMARK    3  A    between atoms: C_8  and  C_10
REMARK                            x       y       z     vdW  Elec       q    Type
REMARK                         _______ _______ _______ _____ _____    ______ ____
ROOT
ATOM      1  C   UNL     1      -3.741  -0.988  -0.341  0.00  0.00    +0.000 C 
ATOM      2  O   UNL     1      -4.039  -1.528  -1.410  0.00  0.00    +0.000 OA
ENDROOT
BRANCH   1   3
ATOM      3  C   UNL     1      -4.150  -1.507   0.963  0.00  0.00    +0.000 A 
ATOM      4  C   UNL     1      -3.818  -1.086   2.241  0.00  0.00    +0.000 A 
ATOM      5  C   UNL     1      -4.453  -1.864   3.257  0.00  0.00    +0.000 A 
ATOM      6  C   UNL     1      -5.236  -2.846   2.710  0.00  0.00    +0.000 A 
ATOM      7  S   UNL     1      -5.220  -2.855   1.022  0.00  0.00    +0.000 S 
ATOM      8 CL   UNL     1      -6.177  -4.000   3.563  0.00  0.00    +0.000 Cl
ENDBRANCH   1   3
BRANCH   1   9
ATOM      9  C   UNL     1      -2.908   0.286  -0.367  0.00  0.00    +0.000 C 
BRANCH   9  13
ATOM     10  C   UNL     1       1.319  -0.205   0.369  0.00  0.00    +0.000 A 
ATOM     11  C   UNL     1       0.643  -1.126  -0.428  0.00  0.00    +0.000 A 
ATOM     12  C   UNL     1      -0.725  -0.979  -0.662  0.00  0.00    +0.000 A 
ATOM     13  C   UNL     1      -1.438   0.083  -0.086  0.00  0.00    +0.000 A 
ATOM     14  C   UNL     1      -0.742   1.013   0.701  0.00  0.00    +0.000 A 
ATOM     15  C   UNL     1       0.628   0.866   0.930  0.00  0.00    +0.000 A 
ENDBRANCH   9  13
ENDBRANCH   1   9
TORSDOF 3
