REMARK  Name = *****
REMARK  2 active torsions:
REMARK  status: ('A' for Active; 'I' for Inactive)
REMARK    1  A    between atoms: C_3  and  C_11
REMARK    2  A    between atoms: C_4  and  C_5
REMARK                            x       y       z     vdW  Elec       q    Type
REMARK                         _______ _______ _______ _____ _____    ______ ____
ROOT
ATOM      1  C   UNL     1       1.261   0.054   0.149  0.00  0.00    +0.000 C 
ATOM      2  C   UNL     1       2.576   0.010   0.097  0.00  0.00    +0.000 C 
ATOM      3  C   UNL     1       3.763   0.772   0.022  0.00  0.00    +0.000 C 
ATOM      4  C   UNL     1       3.712  -0.829   0.081  0.00  0.00    +0.000 C 
ENDROOT
BRANCH   4   5
ATOM      5  C   UNL     1       4.040  -1.602  -1.171  0.00  0.00    +0.000 A 
ATOM      6  C   UNL     1       5.262  -1.414  -1.840  0.00  0.00    +0.000 A 
ATOM      7  C   UNL     1       5.587  -2.141  -2.989  0.00  0.00    +0.000 A 
ATOM      8  C   UNL     1       4.694  -3.082  -3.492  0.00  0.00    +0.000 A 
ATOM      9  C   UNL     1       3.481  -3.297  -2.844  0.00  0.00    +0.000 A 
ATOM     10  C   UNL     1       3.163  -2.568  -1.695  0.00  0.00    +0.000 A 
ENDBRANCH   4   5
BRANCH   3  11
ATOM     11  C   UNL     1       4.236   1.520   1.242  0.00  0.00    +0.000 A 
ATOM     12  C   UNL     1       5.488   1.246   1.821  0.00  0.00    +0.000 A 
ATOM     13  C   UNL     1       5.947   1.949   2.939  0.00  0.00    +0.000 A 
ATOM     14  C   UNL     1       5.162   2.951   3.500  0.00  0.00    +0.000 A 
ATOM     15  C   UNL     1       3.924   3.252   2.942  0.00  0.00    +0.000 A 
ATOM     16  C   UNL     1       3.471   2.546   1.824  0.00  0.00    +0.000 A 
ENDBRANCH   3  11
TORSDOF 2
