MODEL 1
REMARK VINA RESULT:      -4.6      0.000      0.000
REMARK  Name = *****
REMARK  3 active torsions:
REMARK  status: ('A' for Active; 'I' for Inactive)
REMARK    1  A    between atoms: C_4  and  C_8
REMARK    2  A    between atoms: C_8  and  O_10
REMARK    3  A    between atoms: O_10  and  C_11
REMARK                            x       y       z     vdW  Elec       q    Type
REMARK                         _______ _______ _______ _____ _____    ______ ____
ROOT
ATOM      1  C   UNL     1     101.922 125.970  82.633  0.00  0.00    +0.000 C 
ATOM      2  O   UNL     1     102.423 125.286  83.511  0.00  0.00    +0.000 OA
ENDROOT
BRANCH   1   6
ATOM      3  C   UNL     1      99.202 129.155  83.423  0.00  0.00    +0.000 A 
ATOM      4  C   UNL     1     100.529 129.237  83.848  0.00  0.00    +0.000 A 
ATOM      5  C   UNL     1     101.410 128.190  83.581  0.00  0.00    +0.000 A 
ATOM      6  C   UNL     1     100.981 127.064  82.888  0.00  0.00    +0.000 A 
ATOM      7  C   UNL     1      99.656 126.984  82.472  0.00  0.00    +0.000 A 
ATOM      8  C   UNL     1      98.764 128.024  82.734  0.00  0.00    +0.000 A 
ATOM      9  F   UNL     1      99.200 125.897  81.832  0.00  0.00    +0.000 F 
ATOM     10  F   UNL     1     102.682 128.307  83.987  0.00  0.00    +0.000 F 
ENDBRANCH   1   6
BRANCH   1  11
ATOM     11  O   UNL     1     102.140 125.902  81.271  0.00  0.00    +0.000 OA
BRANCH  11  12
ATOM     12  C   UNL     1     103.414 126.359  80.926  0.00  0.00    +0.000 A 
ATOM     13  C   UNL     1     104.478 125.464  80.776  0.00  0.00    +0.000 A 
ATOM     14  C   UNL     1     105.748 125.948  80.463  0.00  0.00    +0.000 A 
ATOM     15  C   UNL     1     105.941 127.323  80.319  0.00  0.00    +0.000 A 
ATOM     16  C   UNL     1     104.881 128.218  80.489  0.00  0.00    +0.000 A 
ATOM     17  C   UNL     1     103.610 127.735  80.803  0.00  0.00    +0.000 A 
ATOM     18 CL   UNL     1     107.506 127.926  79.937  0.00  0.00    +0.000 Cl
ATOM     19 CL   UNL     1     104.259 123.765  80.985  0.00  0.00    +0.000 Cl
ENDBRANCH  11  12
ENDBRANCH   1  11
TORSDOF 3
ENDMDL
