MODEL 1
REMARK VINA RESULT:      -5.1      0.000      0.000
REMARK  Name = *****
REMARK  3 active torsions:
REMARK  status: ('A' for Active; 'I' for Inactive)
REMARK    1  A    between atoms: C_4  and  C_7
REMARK    2  A    between atoms: C_7  and  C_8
REMARK    3  A    between atoms: C_8  and  C_9
REMARK                            x       y       z     vdW  Elec       q    Type
REMARK                         _______ _______ _______ _____ _____    ______ ____
ROOT
ATOM      1  C   UNL     1      99.808 127.161  83.132  0.00  0.00    +0.000 C 
ATOM      2  N   UNL     1      98.988 126.691  82.170  0.00  0.00    +0.000 NA
ATOM      3  O   UNL     1      97.831 127.126  82.176  0.00  0.00    +0.000 OA
ENDROOT
BRANCH   1   7
ATOM      4  C   UNL     1      98.744 130.625  85.442  0.00  0.00    +0.000 A 
ATOM      5  C   UNL     1      99.358 130.779  84.200  0.00  0.00    +0.000 A 
ATOM      6  C   UNL     1      99.700 129.655  83.446  0.00  0.00    +0.000 A 
ATOM      7  C   UNL     1      99.432 128.367  83.935  0.00  0.00    +0.000 A 
ATOM      8  C   UNL     1      98.810 128.223  85.186  0.00  0.00    +0.000 A 
ATOM      9  C   UNL     1      98.468 129.350  85.935  0.00  0.00    +0.000 A 
ENDBRANCH   1   7
BRANCH   1  10
ATOM     10  C   UNL     1     101.012 126.557  83.368  0.00  0.00    +0.000 C 
ATOM     11  N   UNL     1     101.163 125.732  84.425  0.00  0.00    +0.000 NA
ATOM     12  O   UNL     1     102.320 125.378  84.683  0.00  0.00    +0.000 OA
BRANCH  10  13
ATOM     13  C   UNL     1     102.146 126.809  82.425  0.00  0.00    +0.000 A 
ATOM     14  C   UNL     1     102.495 125.850  81.461  0.00  0.00    +0.000 A 
ATOM     15  C   UNL     1     103.559 126.084  80.589  0.00  0.00    +0.000 A 
ATOM     16  C   UNL     1     104.281 127.274  80.671  0.00  0.00    +0.000 A 
ATOM     17  C   UNL     1     103.939 128.235  81.623  0.00  0.00    +0.000 A 
ATOM     18  C   UNL     1     102.876 128.006  82.497  0.00  0.00    +0.000 A 
ENDBRANCH  10  13
ENDBRANCH   1  10
TORSDOF 3
ENDMDL
