MODEL 1
REMARK VINA RESULT:      -4.4      0.000      0.000
REMARK  Name = *****
REMARK  5 active torsions:
REMARK  status: ('A' for Active; 'I' for Inactive)
REMARK    1  A    between atoms: C_1  and  C_2
REMARK    2  A    between atoms: C_2  and  P_3
REMARK    3  A    between atoms: P_3  and  C_4
REMARK    4  A    between atoms: P_3  and  C_11
REMARK    5  A    between atoms: C_4  and  C_5
REMARK                            x       y       z     vdW  Elec       q    Type
REMARK                         _______ _______ _______ _____ _____    ______ ____
ROOT
ATOM      1  P   UNL     1      88.798  70.445  86.733  0.00  0.00    +0.000 P 
ENDROOT
BRANCH   1   2
ATOM      2  C   UNL     1      88.843  68.624  86.806  0.00  0.00    +0.000 A 
ATOM      3  C   UNL     1      89.956  67.966  86.260  0.00  0.00    +0.000 A 
ATOM      4  C   UNL     1      90.054  66.574  86.295  0.00  0.00    +0.000 A 
ATOM      5  C   UNL     1      89.040  65.818  86.876  0.00  0.00    +0.000 A 
ATOM      6  C   UNL     1      87.930  66.455  87.424  0.00  0.00    +0.000 A 
ATOM      7  C   UNL     1      87.832  67.849  87.390  0.00  0.00    +0.000 A 
ENDBRANCH   1   2
BRANCH   1   9
ATOM      8  C   UNL     1      89.541  71.754  84.376  0.00  0.00    +0.000 C 
ATOM      9  C   UNL     1      90.071  70.814  85.448  0.00  0.00    +0.000 C 
ENDBRANCH   1   9
BRANCH   1  10
ATOM     10  C   UNL     1      87.269  70.764  85.775  0.00  0.00    +0.000 C 
BRANCH  10  11
ATOM     11  C   UNL     1      86.295  71.331  86.779  0.00  0.00    +0.000 A 
ATOM     12  C   UNL     1      85.107  71.951  86.359  0.00  0.00    +0.000 A 
ATOM     13  C   UNL     1      84.200  72.459  87.291  0.00  0.00    +0.000 A 
ATOM     14  C   UNL     1      84.465  72.349  88.654  0.00  0.00    +0.000 A 
ATOM     15  C   UNL     1      85.636  71.732  89.088  0.00  0.00    +0.000 A 
ATOM     16  C   UNL     1      86.543  71.223  88.157  0.00  0.00    +0.000 A 
ENDBRANCH  10  11
ENDBRANCH   1  10
TORSDOF 4
ENDMDL
