MODEL 1
REMARK VINA RESULT:      -4.3      0.000      0.000
REMARK  Name = *****
REMARK  4 active torsions:
REMARK  status: ('A' for Active; 'I' for Inactive)
REMARK    1  A    between atoms: C_1  and  C_2
REMARK    2  A    between atoms: C_3  and  C_15
REMARK    3  A    between atoms: C_6  and  C_8
REMARK    4  A    between atoms: C_9  and  C_10
REMARK                            x       y       z     vdW  Elec       q    Type
REMARK                         _______ _______ _______ _____ _____    ______ ____
ROOT
ATOM      1  C   UNL     1      98.119 127.709  82.962  0.00  0.00    +0.000 C 
ATOM      2  C   UNL     1      99.623 127.753  83.030  0.00  0.00    +0.000 A 
ATOM      3  C   UNL     1     100.302 128.827  83.631  0.00  0.00    +0.000 A 
ATOM      4  C   UNL     1     101.702 128.834  83.667  0.00  0.00    +0.000 A 
ATOM      5  C   UNL     1     102.431 127.779  83.115  0.00  0.00    +0.000 A 
ATOM      6  C   UNL     1     101.773 126.694  82.526  0.00  0.00    +0.000 A 
ATOM      7  C   UNL     1     100.371 126.698  82.476  0.00  0.00    +0.000 A 
ENDROOT
BRANCH   6   8
ATOM      8  C   UNL     1     102.503 125.581  81.903  0.00  0.00    +0.000 C 
ATOM      9  C   UNL     1     103.573 124.995  82.465  0.00  0.00    +0.000 C 
BRANCH   9  10
ATOM     10  C   UNL     1     104.270 123.911  81.849  0.00  0.00    +0.000 A 
ATOM     11  C   UNL     1     104.667 123.706  80.536  0.00  0.00    +0.000 A 
ATOM     12  C   UNL     1     105.350 122.470  80.339  0.00  0.00    +0.000 A 
ATOM     13  C   UNL     1     105.463 121.754  81.506  0.00  0.00    +0.000 A 
ATOM     14  S   UNL     1     104.750 122.568  82.825  0.00  0.00    +0.000 S 
ENDBRANCH   9  10
ENDBRANCH   6   8
BRANCH   3  15
ATOM     15  C   UNL     1      99.591 129.934  84.210  0.00  0.00    +0.000 C 
ATOM     16  N   UNL     1      99.016 130.827  84.678  0.00  0.00    +0.000 NA
ENDBRANCH   3  15
TORSDOF 3
ENDMDL
