REMARK  Name = *****
REMARK  2 active torsions:
REMARK  status: ('A' for Active; 'I' for Inactive)
REMARK    1  A    between atoms: C_6  and  C_7
REMARK    2  A    between atoms: C_8  and  C_9
REMARK                            x       y       z     vdW  Elec       q    Type
REMARK                         _______ _______ _______ _____ _____    ______ ____
ROOT
ATOM      1  C   UNL     1       4.564  -0.091   0.050  0.00  0.00    +0.000 C 
ATOM      2  C   UNL     1       5.318  -1.199   0.146  0.00  0.00    +0.000 C 
ENDROOT
BRANCH   1   8
ATOM      3  C   UNL     1       2.352  -1.087  -0.620  0.00  0.00    +0.000 A 
ATOM      4  C   UNL     1       0.954  -1.041  -0.630  0.00  0.00    +0.000 A 
ATOM      5  C   UNL     1       0.292   0.002   0.012  0.00  0.00    +0.000 A 
ATOM      6  C   UNL     1       1.013   1.001   0.659  0.00  0.00    +0.000 A 
ATOM      7  C   UNL     1       2.411   0.953   0.668  0.00  0.00    +0.000 A 
ATOM      8  C   UNL     1       3.094  -0.098   0.041  0.00  0.00    +0.000 A 
ATOM      9 BR   UNL     1      -1.597   0.065  -0.002  0.00  0.00    +0.000 Br
ENDBRANCH   1   8
BRANCH   2  10
ATOM     10  C   UNL     1       6.786  -1.188   0.157  0.00  0.00    +0.000 A 
ATOM     11  C   UNL     1       7.494  -2.208  -0.465  0.00  0.00    +0.000 A 
ATOM     12  N   UNL     1       8.844  -2.280  -0.467  0.00  0.00    +0.000 NA
ATOM     13  N   UNL     1       9.560  -1.322   0.174  0.00  0.00    +0.000 NA
ATOM     14  C   UNL     1       8.910  -0.323   0.804  0.00  0.00    +0.000 A 
ATOM     15  C   UNL     1       7.531  -0.221   0.825  0.00  0.00    +0.000 A 
ENDBRANCH   2  10
TORSDOF 2
