MODEL 1
REMARK VINA RESULT:      -4.5      0.000      0.000
REMARK  Name = *****
REMARK  4 active torsions:
REMARK  status: ('A' for Active; 'I' for Inactive)
REMARK    1  A    between atoms: C_1  and  C_2
REMARK    2  A    between atoms: C_2  and  C_3
REMARK    3  A    between atoms: C_2  and  O_9
REMARK    4  A    between atoms: O_9  and  C_10
REMARK                            x       y       z     vdW  Elec       q    Type
REMARK                         _______ _______ _______ _____ _____    ______ ____
ROOT
ATOM      1  C   UNL     1     103.179 126.753  80.497  0.00  0.00    +0.000 C 
ATOM      2  C   UNL     1     103.046 126.094  81.871  0.00  0.00    +0.000 C 
ENDROOT
BRANCH   2   3
ATOM      3  C   UNL     1     103.746 124.742  81.873  0.00  0.00    +0.000 A 
ATOM      4  C   UNL     1     104.240 124.176  80.686  0.00  0.00    +0.000 A 
ATOM      5  C   UNL     1     104.893 122.942  80.703  0.00  0.00    +0.000 A 
ATOM      6  C   UNL     1     105.061 122.258  81.904  0.00  0.00    +0.000 A 
ATOM      7  C   UNL     1     104.577 122.807  83.090  0.00  0.00    +0.000 A 
ATOM      8  C   UNL     1     103.924 124.042  83.075  0.00  0.00    +0.000 A 
ENDBRANCH   2   3
BRANCH   2   9
ATOM      9  O   UNL     1     101.663 125.876  82.173  0.00  0.00    +0.000 OA
BRANCH   9  10
ATOM     10  C   UNL     1     100.911 126.924  82.624  0.00  0.00    +0.000 A 
ATOM     11  C   UNL     1     101.382 128.051  83.296  0.00  0.00    +0.000 A 
ATOM     12  C   UNL     1     100.495 129.057  83.691  0.00  0.00    +0.000 A 
ATOM     13  C   UNL     1      99.134 128.945  83.410  0.00  0.00    +0.000 A 
ATOM     14  C   UNL     1      98.659 127.826  82.729  0.00  0.00    +0.000 A 
ATOM     15  C   UNL     1      99.547 126.825  82.335  0.00  0.00    +0.000 A 
ENDBRANCH   9  10
ENDBRANCH   2   9
TORSDOF 3
ENDMDL
