MODEL 1
REMARK VINA RESULT:      -4.6      0.000      0.000
REMARK  Name = *****
REMARK  4 active torsions:
REMARK  status: ('A' for Active; 'I' for Inactive)
REMARK    1  A    between atoms: C_4  and  C_7
REMARK    2  A    between atoms: C_8  and  C_9
REMARK    3  A    between atoms: C_12  and  C_15
REMARK    4  A    between atoms: C_15  and  S_16
REMARK                            x       y       z     vdW  Elec       q    Type
REMARK                         _______ _______ _______ _____ _____    ______ ____
ROOT
ATOM      1  C   UNL     1     103.749 124.891  81.274  0.00  0.00    +0.000 A 
ATOM      2  C   UNL     1     104.454 124.771  80.070  0.00  0.00    +0.000 A 
ATOM      3  C   UNL     1     105.436 123.789  79.912  0.00  0.00    +0.000 A 
ATOM      4  C   UNL     1     105.739 122.908  80.960  0.00  0.00    +0.000 A 
ATOM      5  C   UNL     1     105.051 123.043  82.173  0.00  0.00    +0.000 A 
ATOM      6  C   UNL     1     104.070 124.027  82.328  0.00  0.00    +0.000 A 
ENDROOT
BRANCH   1   8
ATOM      7  C   UNL     1     101.902 125.959  82.545  0.00  0.00    +0.000 C 
ATOM      8  C   UNL     1     102.734 125.932  81.491  0.00  0.00    +0.000 C 
BRANCH   7  12
ATOM      9  C   UNL     1      99.026 129.037  83.304  0.00  0.00    +0.000 A 
ATOM     10  C   UNL     1      98.619 127.855  82.688  0.00  0.00    +0.000 A 
ATOM     11  C   UNL     1      99.549 126.845  82.427  0.00  0.00    +0.000 A 
ATOM     12  C   UNL     1     100.898 127.010  82.771  0.00  0.00    +0.000 A 
ATOM     13  C   UNL     1     101.290 128.196  83.405  0.00  0.00    +0.000 A 
ATOM     14  C   UNL     1     100.361 129.206  83.666  0.00  0.00    +0.000 A 
ENDBRANCH   7  12
ENDBRANCH   1   8
BRANCH   4  15
ATOM     15  C   UNL     1     106.807 121.860  80.797  0.00  0.00    +0.000 C 
BRANCH  15  16
ATOM     16  S   UNL     1     108.288 122.519  79.986  0.00  0.00    +0.000 S 
ATOM     17  H   UNL     1     109.317 121.642  80.138  0.00  0.00    +0.000 HD
ENDBRANCH  15  16
ENDBRANCH   4  15
TORSDOF 4
ENDMDL
