REMARK  Name = *****
REMARK  5 active torsions:
REMARK  status: ('A' for Active; 'I' for Inactive)
REMARK    1  A    between atoms: C_4  and  C_7
REMARK    2  A    between atoms: C_7  and  O_8
REMARK    3  A    between atoms: O_8  and  C_9
REMARK    4  A    between atoms: C_14  and  C_15
REMARK    5  A    between atoms: C_15  and  C_16
REMARK                            x       y       z     vdW  Elec       q    Type
REMARK                         _______ _______ _______ _____ _____    ______ ____
ROOT
ATOM      1  C   UNL     1      -4.937  -0.749  -0.609  0.00  0.00    +0.000 A 
ATOM      2  C   UNL     1      -5.614   0.029  -1.553  0.00  0.00    +0.000 A 
ATOM      3  C   UNL     1      -7.006  -0.039  -1.658  0.00  0.00    +0.000 A 
ATOM      4  C   UNL     1      -7.730  -0.881  -0.820  0.00  0.00    +0.000 A 
ATOM      5  C   UNL     1      -7.065  -1.659   0.125  0.00  0.00    +0.000 A 
ATOM      6  C   UNL     1      -5.667  -1.604   0.239  0.00  0.00    +0.000 A 
ENDROOT
BRANCH   1   7
ATOM      7  O   UNL     1      -3.581  -0.744  -0.418  0.00  0.00    +0.000 OA
BRANCH   7   8
ATOM      8  C   UNL     1      -2.783   0.007  -1.333  0.00  0.00    +0.000 C 
BRANCH   8  12
ATOM      9  C   UNL     1       1.428  -0.494  -0.500  0.00  0.00    +0.000 A 
ATOM     10  C   UNL     1       0.544  -1.542  -0.252  0.00  0.00    +0.000 A 
ATOM     11  C   UNL     1      -0.818  -1.384  -0.511  0.00  0.00    +0.000 A 
ATOM     12  C   UNL     1      -1.316  -0.170  -1.008  0.00  0.00    +0.000 A 
ATOM     13  C   UNL     1      -0.412   0.871  -1.267  0.00  0.00    +0.000 A 
ATOM     14  C   UNL     1       0.951   0.711  -1.010  0.00  0.00    +0.000 A 
ENDBRANCH   8  12
ENDBRANCH   7   8
ENDBRANCH   1   7
BRANCH   6  15
ATOM     15  C   UNL     1      -4.974  -2.459   1.280  0.00  0.00    +0.000 C 
BRANCH  15  16
ATOM     16  C   UNL     1      -4.546  -1.642   2.493  0.00  0.00    +0.000 C 
ATOM     17 CL   UNL     1      -3.814  -2.700   3.727  0.00  0.00    +0.000 Cl
ENDBRANCH  15  16
ENDBRANCH   6  15
TORSDOF 5
