MODEL 1
REMARK VINA RESULT:      -4.2      0.000      0.000
REMARK  Name = *****
REMARK  6 active torsions:
REMARK  status: ('A' for Active; 'I' for Inactive)
REMARK    1  A    between atoms: C_1  and  C_2
REMARK    2  A    between atoms: C_2  and  O_3
REMARK    3  A    between atoms: O_3  and  C_4
REMARK    4  A    between atoms: C_6  and  C_16
REMARK    5  A    between atoms: C_7  and  C_8
REMARK    6  A    between atoms: C_9  and  C_10
REMARK                            x       y       z     vdW  Elec       q    Type
REMARK                         _______ _______ _______ _____ _____    ______ ____
ROOT
ATOM      1  C   UNL     1     104.662 122.604  81.558  0.00  0.00    +0.000 C 
ATOM      2  C   UNL     1     105.730 122.669  80.438  0.00  0.00    +0.000 C 
ATOM      3  C   UNL     1     105.218 124.067  80.150  0.00  0.00    +0.000 C 
ATOM      4  C   UNL     1     104.324 124.028  81.157  0.00  0.00    +0.000 C 
ATOM      5  C   UNL     1     105.603 125.112  79.127  0.00  0.00    +0.000 C 
ENDROOT
BRANCH   4   6
ATOM      6  C   UNL     1     103.313 125.021  81.657  0.00  0.00    +0.000 C 
ATOM      7  C   UNL     1     102.507 125.818  82.052  0.00  0.00    +0.000 C 
BRANCH   7   8
ATOM      8  C   UNL     1     101.547 126.769  82.521  0.00  0.00    +0.000 A 
ATOM      9  C   UNL     1     101.973 127.941  83.152  0.00  0.00    +0.000 A 
ATOM     10  C   UNL     1     101.036 128.869  83.610  0.00  0.00    +0.000 A 
ATOM     11  C   UNL     1      99.673 128.626  83.438  0.00  0.00    +0.000 A 
ATOM     12  C   UNL     1      99.245 127.458  82.807  0.00  0.00    +0.000 A 
ATOM     13  C   UNL     1     100.182 126.529  82.349  0.00  0.00    +0.000 A 
ENDBRANCH   7   8
ENDBRANCH   4   6
BRANCH   1  14
ATOM     14  O   UNL     1     105.183 122.434  82.898  0.00  0.00    +0.000 OA
BRANCH  14  16
ATOM     15  C   UNL     1     103.990 120.449  83.471  0.00  0.00    +0.000 C 
ATOM     16  C   UNL     1     104.283 121.885  83.854  0.00  0.00    +0.000 C 
ENDBRANCH  14  16
ENDBRANCH   1  14
TORSDOF 4
ENDMDL
