MODEL 1
REMARK VINA RESULT:      -4.4      0.000      0.000
REMARK  Name = *****
REMARK  5 active torsions:
REMARK  status: ('A' for Active; 'I' for Inactive)
REMARK    1  A    between atoms: C_1  and  O_2
REMARK    2  A    between atoms: O_2  and  C_3
REMARK    3  A    between atoms: C_3  and  C_5
REMARK    4  A    between atoms: C_8  and  C_10
REMARK    5  A    between atoms: C_11  and  C_12
REMARK                            x       y       z     vdW  Elec       q    Type
REMARK                         _______ _______ _______ _____ _____    ______ ____
ROOT
ATOM      1  C   UNL     1      99.549 129.085  83.594  0.00  0.00    +0.000 A 
ATOM      2  C   UNL     1      98.602 128.264  83.015  0.00  0.00    +0.000 A 
ATOM      3  C   UNL     1      99.170 127.081  82.457  0.00  0.00    +0.000 A 
ATOM      4  C   UNL     1     100.544 127.011  82.612  0.00  0.00    +0.000 A 
ATOM      5  S   UNL     1     101.114 128.409  83.448  0.00  0.00    +0.000 S 
ENDROOT
BRANCH   1   6
ATOM      6  C   UNL     1      99.384 130.361  84.263  0.00  0.00    +0.000 C 
ATOM      7  O   UNL     1      99.627 131.469  83.797  0.00  0.00    +0.000 OA
BRANCH   6   9
ATOM      8  C   UNL     1      98.018 131.179  85.985  0.00  0.00    +0.000 C 
ATOM      9  O   UNL     1      98.904 130.158  85.528  0.00  0.00    +0.000 OA
ENDBRANCH   6   9
ENDBRANCH   1   6
BRANCH   4  10
ATOM     10  C   UNL     1     101.494 126.021  82.216  0.00  0.00    +0.000 C 
ATOM     11  C   UNL     1     102.664 126.334  81.636  0.00  0.00    +0.000 C 
BRANCH  11  12
ATOM     12  C   UNL     1     103.657 125.331  81.224  0.00  0.00    +0.000 A 
ATOM     13  C   UNL     1     104.366 125.433  80.021  0.00  0.00    +0.000 A 
ATOM     14  C   UNL     1     105.323 124.474  79.686  0.00  0.00    +0.000 A 
ATOM     15  C   UNL     1     105.592 123.411  80.546  0.00  0.00    +0.000 A 
ATOM     16  C   UNL     1     104.903 123.310  81.754  0.00  0.00    +0.000 A 
ATOM     17  C   UNL     1     103.945 124.269  82.093  0.00  0.00    +0.000 A 
ATOM     18 CL   UNL     1     106.183 124.606  78.201  0.00  0.00    +0.000 Cl
ENDBRANCH  11  12
ENDBRANCH   4  10
TORSDOF 4
ENDMDL
