MODEL 1
REMARK VINA RESULT:      -4.0      0.000      0.000
REMARK  Name = *****
REMARK  3 active torsions:
REMARK  status: ('A' for Active; 'I' for Inactive)
REMARK    1  A    between atoms: C_5  and  C_6
REMARK    2  A    between atoms: C_6  and  S_7
REMARK    3  A    between atoms: S_7  and  C_8
REMARK                            x       y       z     vdW  Elec       q    Type
REMARK                         _______ _______ _______ _____ _____    ______ ____
ROOT
ATOM      1  C   UNL     1     103.989 128.116  81.148  0.00  0.00    +0.000 C 
ATOM      2  C   UNL     1     103.543 127.108  80.078  0.00  0.00    +0.000 C 
ATOM      3  C   UNL     1     103.904 125.739  80.632  0.00  0.00    +0.000 C 
ATOM      4  C   UNL     1     105.062 126.000  81.601  0.00  0.00    +0.000 C 
ATOM      5  C   UNL     1     104.611 127.300  82.313  0.00  0.00    +0.000 C 
ATOM      6 CL   UNL     1     105.390 124.627  82.692  0.00  0.00    +0.000 Cl
ATOM      7 CL   UNL     1     106.598 126.320  80.687  0.00  0.00    +0.000 Cl
ATOM      8  F   UNL     1     102.822 125.237  81.282  0.00  0.00    +0.000 F 
ATOM      9  F   UNL     1     104.200 124.870  79.645  0.00  0.00    +0.000 F 
ENDROOT
BRANCH   5  10
ATOM     10  C   UNL     1     103.603 127.093  83.462  0.00  0.00    +0.000 C 
BRANCH  10  11
ATOM     11  S   UNL     1     102.790 128.671  83.920  0.00  0.00    +0.000 S 
BRANCH  11  12
ATOM     12  C   UNL     1     101.109 128.326  83.424  0.00  0.00    +0.000 A 
ATOM     13  C   UNL     1     100.824 127.104  82.825  0.00  0.00    +0.000 A 
ATOM     14  C   UNL     1      99.513 126.837  82.437  0.00  0.00    +0.000 A 
ATOM     15  C   UNL     1      98.531 127.794  82.656  0.00  0.00    +0.000 A 
ATOM     16  C   UNL     1      98.903 128.984  83.257  0.00  0.00    +0.000 A 
ATOM     17  N   UNL     1     100.166 129.268  83.645  0.00  0.00    +0.000 NA
ENDBRANCH  11  12
ENDBRANCH  10  11
ENDBRANCH   5  10
TORSDOF 3
ENDMDL
