MODEL 1
REMARK VINA RESULT:      -4.5      0.000      0.000
REMARK  Name = *****
REMARK  4 active torsions:
REMARK  status: ('A' for Active; 'I' for Inactive)
REMARK    1  A    between atoms: C_1  and  C_2
REMARK    2  A    between atoms: C_5  and  C_8
REMARK    3  A    between atoms: C_8  and  O_9
REMARK    4  A    between atoms: O_9  and  C_10
REMARK                            x       y       z     vdW  Elec       q    Type
REMARK                         _______ _______ _______ _____ _____    ______ ____
ROOT
ATOM      1  C   UNL     1     103.370 127.680  82.030  0.00  0.00    +0.000 C 
ENDROOT
BRANCH   1   6
ATOM      2  C   UNL     1     104.999 122.294  80.510  0.00  0.00    +0.000 C 
ATOM      3  C   UNL     1     104.588 123.685  80.892  0.00  0.00    +0.000 A 
ATOM      4  C   UNL     1     104.523 124.705  79.938  0.00  0.00    +0.000 A 
ATOM      5  C   UNL     1     104.132 125.996  80.305  0.00  0.00    +0.000 A 
ATOM      6  C   UNL     1     103.805 126.289  81.636  0.00  0.00    +0.000 A 
ATOM      7  C   UNL     1     103.851 125.262  82.586  0.00  0.00    +0.000 A 
ATOM      8  C   UNL     1     104.243 123.972  82.218  0.00  0.00    +0.000 A 
ENDBRANCH   1   6
BRANCH   1   9
ATOM      9  O   UNL     1     102.602 127.577  83.225  0.00  0.00    +0.000 OA
BRANCH   9  10
ATOM     10  C   UNL     1     101.256 127.799  83.126  0.00  0.00    +0.000 A 
ATOM     11  C   UNL     1     100.830 129.000  83.703  0.00  0.00    +0.000 A 
ATOM     12  C   UNL     1      99.481 129.367  83.682  0.00  0.00    +0.000 A 
ATOM     13  C   UNL     1      98.541 128.531  83.083  0.00  0.00    +0.000 A 
ATOM     14  C   UNL     1      98.954 127.331  82.505  0.00  0.00    +0.000 A 
ATOM     15  C   UNL     1     100.302 126.972  82.528  0.00  0.00    +0.000 A 
ATOM     16  F   UNL     1     100.641 125.808  81.956  0.00  0.00    +0.000 F 
ENDBRANCH   9  10
ENDBRANCH   1   9
TORSDOF 3
ENDMDL
