MODEL 1
REMARK VINA RESULT:      -4.3      0.000      0.000
REMARK  Name = *****
REMARK  3 active torsions:
REMARK  status: ('A' for Active; 'I' for Inactive)
REMARK    1  A    between atoms: C_9  and  C_10
REMARK    2  A    between atoms: C_10  and  C_11
REMARK    3  A    between atoms: C_11  and  C_12
REMARK                            x       y       z     vdW  Elec       q    Type
REMARK                         _______ _______ _______ _____ _____    ______ ____
ROOT
ATOM      1  C   UNL     1     101.043 128.035  83.412  0.00  0.00    +0.000 C 
ATOM      2  C   UNL     1     100.757 126.809  82.508  0.00  0.00    +0.000 C 
ATOM      3  C   UNL     1     102.080 126.131  82.101  0.00  0.00    +0.000 C 
ATOM      4  C   UNL     1     102.741 125.698  83.412  0.00  0.00    +0.000 C 
ATOM      5  O   UNL     1     103.008 124.529  83.675  0.00  0.00    +0.000 OA
ATOM      6  C   UNL     1     103.028 126.846  84.378  0.00  0.00    +0.000 C 
ATOM      7  C   UNL     1     102.559 128.147  83.688  0.00  0.00    +0.000 C 
ATOM      8  C   UNL     1     103.252 128.226  82.340  0.00  0.00    +0.000 C 
ATOM      9  C   UNL     1     103.023 127.177  81.526  0.00  0.00    +0.000 C 
ENDROOT
BRANCH   9  10
ATOM     10  C   UNL     1     103.602 126.999  80.154  0.00  0.00    +0.000 C 
BRANCH  10  11
ATOM     11  C   UNL     1     105.083 126.607  80.190  0.00  0.00    +0.000 C 
BRANCH  11  12
ATOM     12  C   UNL     1     105.282 125.250  80.819  0.00  0.00    +0.000 A 
ATOM     13  C   UNL     1     104.601 124.131  80.323  0.00  0.00    +0.000 A 
ATOM     14  C   UNL     1     104.770 122.880  80.918  0.00  0.00    +0.000 A 
ATOM     15  C   UNL     1     105.617 122.737  82.015  0.00  0.00    +0.000 A 
ATOM     16  C   UNL     1     106.295 123.845  82.519  0.00  0.00    +0.000 A 
ATOM     17  C   UNL     1     106.128 125.097  81.926  0.00  0.00    +0.000 A 
ENDBRANCH  11  12
ENDBRANCH  10  11
ENDBRANCH   9  10
TORSDOF 3
ENDMDL
