MODEL 1
REMARK VINA RESULT:      -4.7      0.000      0.000
REMARK  Name = *****
REMARK  3 active torsions:
REMARK  status: ('A' for Active; 'I' for Inactive)
REMARK    1  A    between atoms: C_4  and  C_7
REMARK    2  A    between atoms: C_7  and  C_8
REMARK    3  A    between atoms: C_8  and  C_10
REMARK                            x       y       z     vdW  Elec       q    Type
REMARK                         _______ _______ _______ _____ _____    ______ ____
ROOT
ATOM      1  C   UNL     1     102.736 127.292  82.919  0.00  0.00    +0.000 C 
ATOM      2 BR   UNL     1     103.711 128.954  83.291  0.00  0.00    +0.000 Br
ENDROOT
BRANCH   1   6
ATOM      3  C   UNL     1      98.483 128.056  82.987  0.00  0.00    +0.000 A 
ATOM      4  C   UNL     1      98.978 126.877  82.436  0.00  0.00    +0.000 A 
ATOM      5  C   UNL     1     100.354 126.636  82.417  0.00  0.00    +0.000 A 
ATOM      6  C   UNL     1     101.254 127.577  82.944  0.00  0.00    +0.000 A 
ATOM      7  C   UNL     1     100.737 128.758  83.500  0.00  0.00    +0.000 A 
ATOM      8  C   UNL     1      99.361 128.995  83.521  0.00  0.00    +0.000 A 
ENDBRANCH   1   6
BRANCH   1   9
ATOM      9  C   UNL     1     103.258 126.722  81.608  0.00  0.00    +0.000 C 
ATOM     10  O   UNL     1     103.266 127.341  80.542  0.00  0.00    +0.000 OA
BRANCH   9  11
ATOM     11  C   UNL     1     103.797 125.331  81.612  0.00  0.00    +0.000 A 
ATOM     12  C   UNL     1     104.266 124.705  80.450  0.00  0.00    +0.000 A 
ATOM     13  C   UNL     1     104.742 123.392  80.507  0.00  0.00    +0.000 A 
ATOM     14  C   UNL     1     104.760 122.704  81.720  0.00  0.00    +0.000 A 
ATOM     15  C   UNL     1     104.312 123.328  82.883  0.00  0.00    +0.000 A 
ATOM     16  C   UNL     1     103.836 124.639  82.830  0.00  0.00    +0.000 A 
ENDBRANCH   9  11
ENDBRANCH   1   9
TORSDOF 3
ENDMDL
