MODEL 1
REMARK VINA RESULT:      -5.2      0.000      0.000
REMARK  Name = *****
REMARK  2 active torsions:
REMARK  status: ('A' for Active; 'I' for Inactive)
REMARK    1  A    between atoms: C_1  and  C_2
REMARK    2  A    between atoms: C_5  and  C_8
REMARK                            x       y       z     vdW  Elec       q    Type
REMARK                         _______ _______ _______ _____ _____    ______ ____
ROOT
ATOM      1  C   UNL     1     102.441 126.952  82.666  0.00  0.00    +0.000 A 
ATOM      2  C   UNL     1     101.099 127.112  82.635  0.00  0.00    +0.000 A 
ATOM      3  C   UNL     1     100.800 128.363  83.315  0.00  0.00    +0.000 A 
ATOM      4  C   UNL     1      99.564 128.846  83.482  0.00  0.00    +0.000 A 
ATOM      5  C   UNL     1      99.176 130.071  84.145  0.00  0.00    +0.000 A 
ATOM      6  C   UNL     1      99.940 131.001  84.733  0.00  0.00    +0.000 A 
ATOM      7  C   UNL     1     101.375 131.060  84.877  0.00  0.00    +0.000 A 
ATOM      8  C   UNL     1     102.299 130.183  84.464  0.00  0.00    +0.000 A 
ATOM      9  C   UNL     1     102.053 128.954  83.761  0.00  0.00    +0.000 A 
ATOM     10  C   UNL     1     103.018 128.099  83.367  0.00  0.00    +0.000 A 
ENDROOT
BRANCH   1  15
ATOM     11  C   UNL     1     105.308 122.426  80.475  0.00  0.00    +0.000 C 
ATOM     12  C   UNL     1     104.539 123.588  81.032  0.00  0.00    +0.000 A 
ATOM     13  C   UNL     1     104.162 124.653  80.208  0.00  0.00    +0.000 A 
ATOM     14  C   UNL     1     103.472 125.748  80.737  0.00  0.00    +0.000 A 
ATOM     15  C   UNL     1     103.157 125.804  82.101  0.00  0.00    +0.000 A 
ATOM     16  C   UNL     1     103.553 124.744  82.925  0.00  0.00    +0.000 A 
ATOM     17  C   UNL     1     104.241 123.647  82.398  0.00  0.00    +0.000 A 
ENDBRANCH   1  15
TORSDOF 1
ENDMDL
