MODEL 1
REMARK VINA RESULT:      -4.8      0.000      0.000
REMARK  Name = *****
REMARK  5 active torsions:
REMARK  status: ('A' for Active; 'I' for Inactive)
REMARK    1  A    between atoms: C_1  and  C_2
REMARK    2  A    between atoms: C_7  and  N_8
REMARK    3  A    between atoms: N_8  and  S_9
REMARK    4  A    between atoms: S_9  and  C_11
REMARK    5  A    between atoms: S_9  and  C_17
REMARK                            x       y       z     vdW  Elec       q    Type
REMARK                         _______ _______ _______ _____ _____    ______ ____
ROOT
ATOM      1  S   UNL     1      89.106  69.421  85.743  0.00  0.00    +0.000 S 
ATOM      2  O   UNL     1      88.129  69.174  84.692  0.00  0.00    +0.000 OA
ENDROOT
BRANCH   1   3
ATOM      3  C   UNL     1      88.236  70.245  87.075  0.00  0.00    +0.000 A 
ATOM      4  C   UNL     1      88.798  70.299  88.353  0.00  0.00    +0.000 A 
ATOM      5  C   UNL     1      88.100  70.928  89.384  0.00  0.00    +0.000 A 
ATOM      6  C   UNL     1      86.850  71.500  89.136  0.00  0.00    +0.000 A 
ATOM      7  C   UNL     1      86.293  71.445  87.858  0.00  0.00    +0.000 A 
ATOM      8  C   UNL     1      86.982  70.814  86.823  0.00  0.00    +0.000 A 
ENDBRANCH   1   3
BRANCH   1   9
ATOM      9  C   UNL     1      90.188  70.755  85.168  0.00  0.00    +0.000 C 
ATOM     10  F   UNL     1      90.864  70.424  84.028  0.00  0.00    +0.000 F 
ATOM     11  F   UNL     1      89.512  71.907  84.885  0.00  0.00    +0.000 F 
ENDBRANCH   1   9
BRANCH   1  12
ATOM     12  N   UNL     1      89.992  68.324  86.369  0.00  0.00    +0.000 NA
BRANCH  12  19
ATOM     13  C   UNL     1      87.748  66.479  87.654  0.00  0.00    +0.000 C 
ATOM     14  C   UNL     1      88.948  66.037  86.871  0.00  0.00    +0.000 A 
ATOM     15  C   UNL     1      89.090  64.643  86.675  0.00  0.00    +0.000 A 
ATOM     16  C   UNL     1      90.130  64.110  85.915  0.00  0.00    +0.000 A 
ATOM     17  C   UNL     1      91.053  64.961  85.330  0.00  0.00    +0.000 A 
ATOM     18  C   UNL     1      90.931  66.337  85.521  0.00  0.00    +0.000 A 
ATOM     19  C   UNL     1      89.899  66.898  86.296  0.00  0.00    +0.000 A 
ENDBRANCH  12  19
ENDBRANCH   1  12
TORSDOF 4
ENDMDL
