MODEL 1
REMARK VINA RESULT:      -4.2      0.000      0.000
REMARK  Name = *****
REMARK  4 active torsions:
REMARK  status: ('A' for Active; 'I' for Inactive)
REMARK    1  A    between atoms: C_4  and  C_7
REMARK    2  A    between atoms: C_7  and  N_8
REMARK    3  A    between atoms: N_8  and  C_9
REMARK    4  A    between atoms: C_9  and  C_10
REMARK                            x       y       z     vdW  Elec       q    Type
REMARK                         _______ _______ _______ _____ _____    ______ ____
ROOT
ATOM      1  N   UNL     1      88.538  72.435  84.028  0.00  0.00    +0.000 NA
ATOM      2 CL   UNL     1      88.707  73.977  83.157  0.00  0.00    +0.000 Cl
ENDROOT
BRANCH   1   3
ATOM      3  C   UNL     1      87.295  71.736  83.668  0.00  0.00    +0.000 C 
BRANCH   3   7
ATOM      4  C   UNL     1      84.086  72.437  86.477  0.00  0.00    +0.000 A 
ATOM      5  C   UNL     1      85.271  71.843  86.906  0.00  0.00    +0.000 A 
ATOM      6  C   UNL     1      86.307  71.613  86.001  0.00  0.00    +0.000 A 
ATOM      7  C   UNL     1      86.168  71.973  84.652  0.00  0.00    +0.000 A 
ATOM      8  C   UNL     1      84.969  72.569  84.232  0.00  0.00    +0.000 A 
ATOM      9  C   UNL     1      83.934  72.799  85.139  0.00  0.00    +0.000 A 
ENDBRANCH   3   7
ENDBRANCH   1   3
BRANCH   1  10
ATOM     10  C   UNL     1      89.694  71.552  83.804  0.00  0.00    +0.000 C 
BRANCH  10  11
ATOM     11  C   UNL     1      89.726  70.360  84.738  0.00  0.00    +0.000 A 
ATOM     12  C   UNL     1      89.658  70.541  86.128  0.00  0.00    +0.000 A 
ATOM     13  C   UNL     1      89.676  69.442  86.988  0.00  0.00    +0.000 A 
ATOM     14  C   UNL     1      89.762  68.152  86.470  0.00  0.00    +0.000 A 
ATOM     15  C   UNL     1      89.833  67.958  85.091  0.00  0.00    +0.000 A 
ATOM     16  C   UNL     1      89.814  69.056  84.228  0.00  0.00    +0.000 A 
ENDBRANCH  10  11
ENDBRANCH   1  10
TORSDOF 4
ENDMDL
