MODEL 1
REMARK VINA RESULT:      -4.9      0.000      0.000
REMARK  Name = *****
REMARK  4 active torsions:
REMARK  status: ('A' for Active; 'I' for Inactive)
REMARK    1  A    between atoms: C_4  and  C_7
REMARK    2  A    between atoms: C_7  and  C_8
REMARK    3  A    between atoms: C_8  and  O_9
REMARK    4  A    between atoms: O_9  and  C_10
REMARK                            x       y       z     vdW  Elec       q    Type
REMARK                         _______ _______ _______ _____ _____    ______ ____
ROOT
ATOM      1  C   UNL     1      89.740  66.498  86.517  0.00  0.00    +0.000 A 
ATOM      2  C   UNL     1      88.511  66.137  87.078  0.00  0.00    +0.000 A 
ATOM      3  C   UNL     1      87.991  64.858  86.887  0.00  0.00    +0.000 A 
ATOM      4  C   UNL     1      88.686  63.921  86.137  0.00  0.00    +0.000 A 
ATOM      5  C   UNL     1      89.906  64.260  85.575  0.00  0.00    +0.000 A 
ATOM      6  C   UNL     1      90.428  65.536  85.765  0.00  0.00    +0.000 A 
ATOM      7  F   UNL     1      91.612  65.844  85.212  0.00  0.00    +0.000 F 
ATOM      8  F   UNL     1      90.584  63.360  84.848  0.00  0.00    +0.000 F 
ATOM      9  F   UNL     1      88.180  62.694  85.956  0.00  0.00    +0.000 F 
ATOM     10  F   UNL     1      86.811  64.531  87.433  0.00  0.00    +0.000 F 
ATOM     11  F   UNL     1      87.800  67.001  87.815  0.00  0.00    +0.000 F 
ENDROOT
BRANCH   1  12
ATOM     12  O   UNL     1      90.369  67.709  86.622  0.00  0.00    +0.000 OA
BRANCH  12  13
ATOM     13  C   UNL     1      89.726  68.851  86.052  0.00  0.00    +0.000 C 
BRANCH  13  14
ATOM     14  C   UNL     1      89.500  69.871  87.168  0.00  0.00    +0.000 C 
BRANCH  14  18
ATOM     15  C   UNL     1      85.651  71.791  86.898  0.00  0.00    +0.000 A 
ATOM     16  C   UNL     1      86.380  71.525  85.740  0.00  0.00    +0.000 A 
ATOM     17  C   UNL     1      87.624  70.896  85.826  0.00  0.00    +0.000 A 
ATOM     18  C   UNL     1      88.147  70.524  87.072  0.00  0.00    +0.000 A 
ATOM     19  C   UNL     1      87.408  70.800  88.230  0.00  0.00    +0.000 A 
ATOM     20  C   UNL     1      86.165  71.429  88.142  0.00  0.00    +0.000 A 
ENDBRANCH  14  18
ENDBRANCH  13  14
ENDBRANCH  12  13
ENDBRANCH   1  12
TORSDOF 4
ENDMDL
