MODEL 1
REMARK VINA RESULT:      -4.8      0.000      0.000
REMARK  Name = *****
REMARK  2 active torsions:
REMARK  status: ('A' for Active; 'I' for Inactive)
REMARK    1  A    between atoms: C_6  and  N_7
REMARK    2  A    between atoms: C_8  and  C_9
REMARK                            x       y       z     vdW  Elec       q    Type
REMARK                         _______ _______ _______ _____ _____    ______ ____
ROOT
ATOM      1  N   UNL     1     103.094 125.556  80.991  0.00  0.00    +0.000 NA
ATOM      2  C   UNL     1     102.803 125.784  82.231  0.00  0.00    +0.000 C 
ENDROOT
BRANCH   2   3
ATOM      3  C   UNL     1     101.736 126.729  82.610  0.00  0.00    +0.000 A 
ATOM      4  C   UNL     1     100.398 126.456  82.306  0.00  0.00    +0.000 A 
ATOM      5  C   UNL     1      99.414 127.368  82.677  0.00  0.00    +0.000 A 
ATOM      6  C   UNL     1      99.748 128.540  83.343  0.00  0.00    +0.000 A 
ATOM      7  C   UNL     1     101.080 128.802  83.640  0.00  0.00    +0.000 A 
ATOM      8  C   UNL     1     102.084 127.905  83.280  0.00  0.00    +0.000 A 
ATOM      9  F   UNL     1     101.416 129.930  84.282  0.00  0.00    +0.000 F 
ATOM     10  F   UNL     1      98.794 129.412  83.696  0.00  0.00    +0.000 F 
ATOM     11  F   UNL     1      98.133 127.104  82.385  0.00  0.00    +0.000 F 
ENDBRANCH   2   3
BRANCH   1  17
ATOM     12  C   UNL     1     104.330 123.568  81.641  0.00  0.00    +0.000 A 
ATOM     13  C   UNL     1     105.370 122.662  81.419  0.00  0.00    +0.000 A 
ATOM     14  C   UNL     1     106.207 122.839  80.323  0.00  0.00    +0.000 A 
ATOM     15  C   UNL     1     106.029 123.907  79.450  0.00  0.00    +0.000 A 
ATOM     16  C   UNL     1     104.989 124.810  79.675  0.00  0.00    +0.000 A 
ATOM     17  C   UNL     1     104.126 124.638  80.762  0.00  0.00    +0.000 A 
ATOM     18  F   UNL     1     107.205 121.972  80.110  0.00  0.00    +0.000 F 
ENDBRANCH   1  17
TORSDOF 2
ENDMDL
