MODEL 1
REMARK VINA RESULT:      -4.3      0.000      0.000
REMARK  Name = *****
REMARK  5 active torsions:
REMARK  status: ('A' for Active; 'I' for Inactive)
REMARK    1  A    between atoms: C_1  and  O_2
REMARK    2  A    between atoms: O_2  and  C_3
REMARK    3  A    between atoms: C_3  and  C_13
REMARK    4  A    between atoms: C_4  and  C_5
REMARK    5  A    between atoms: C_4  and  C_7
REMARK                            x       y       z     vdW  Elec       q    Type
REMARK                         _______ _______ _______ _____ _____    ______ ____
ROOT
ATOM      1  C   UNL     1     101.684 127.892  83.502  0.00  0.00    +0.000 C 
ATOM      2  C   UNL     1     100.344 128.069  83.453  0.00  0.00    +0.000 C 
ENDROOT
BRANCH   2   3
ATOM      3  C   UNL     1      99.697 129.124  84.263  0.00  0.00    +0.000 A 
ATOM      4  C   UNL     1      99.746 130.468  83.863  0.00  0.00    +0.000 A 
ATOM      5  C   UNL     1      99.121 131.457  84.625  0.00  0.00    +0.000 A 
ATOM      6  C   UNL     1      98.439 131.113  85.791  0.00  0.00    +0.000 A 
ATOM      7  C   UNL     1      98.380 129.781  86.197  0.00  0.00    +0.000 A 
ATOM      8  C   UNL     1      99.006 128.789  85.437  0.00  0.00    +0.000 A 
ENDBRANCH   2   3
BRANCH   1   9
ATOM      9  C   UNL     1     102.385 126.813  82.772  0.00  0.00    +0.000 A 
ATOM     10  C   UNL     1     102.663 126.923  81.402  0.00  0.00    +0.000 A 
ATOM     11  C   UNL     1     103.334 125.896  80.734  0.00  0.00    +0.000 A 
ATOM     12  C   UNL     1     103.737 124.757  81.429  0.00  0.00    +0.000 A 
ATOM     13  C   UNL     1     103.472 124.642  82.793  0.00  0.00    +0.000 A 
ATOM     14  C   UNL     1     102.801 125.667  83.463  0.00  0.00    +0.000 A 
ENDBRANCH   1   9
BRANCH   1  16
ATOM     15  C   UNL     1     103.415 129.473  83.714  0.00  0.00    +0.000 C 
ATOM     16  O   UNL     1     102.470 128.634  84.378  0.00  0.00    +0.000 OA
ENDBRANCH   1  16
BRANCH   2  17
ATOM     17  C   UNL     1      99.494 127.242  82.653  0.00  0.00    +0.000 C 
ATOM     18  N   UNL     1      98.792 126.575  82.011  0.00  0.00    +0.000 NA
ENDBRANCH   2  17
TORSDOF 4
ENDMDL
