MODEL 1
REMARK VINA RESULT:      -4.2      0.000      0.000
REMARK  Name = *****
REMARK  3 active torsions:
REMARK  status: ('A' for Active; 'I' for Inactive)
REMARK    1  A    between atoms: C_4  and  N_7
REMARK    2  A    between atoms: N_7  and  S_8
REMARK    3  A    between atoms: S_8  and  C_9
REMARK                            x       y       z     vdW  Elec       q    Type
REMARK                         _______ _______ _______ _____ _____    ______ ____
ROOT
ATOM      1  N   UNL     1      89.147  63.867  88.329  0.00  0.00    +0.000 NA
ATOM      2  H   UNL     1      89.956  63.248  88.269  0.00  0.00    +0.000 HD
ENDROOT
BRANCH   1   6
ATOM      3  C   UNL     1      85.430  62.939  90.300  0.00  0.00    +0.000 C 
ATOM      4  C   UNL     1      86.020  61.894  89.359  0.00  0.00    +0.000 C 
ATOM      5  C   UNL     1      87.074  62.498  88.432  0.00  0.00    +0.000 C 
ATOM      6  C   UNL     1      88.183  63.210  89.225  0.00  0.00    +0.000 C 
ATOM      7  C   UNL     1      87.572  64.268  90.161  0.00  0.00    +0.000 C 
ATOM      8  C   UNL     1      86.519  63.661  91.086  0.00  0.00    +0.000 C 
ENDBRANCH   1   6
BRANCH   1   9
ATOM      9  S   UNL     1      88.738  64.262  86.767  0.00  0.00    +0.000 S 
BRANCH   9  10
ATOM     10  C   UNL     1      88.840  66.044  86.828  0.00  0.00    +0.000 A 
ATOM     11  C   UNL     1      89.935  66.687  86.237  0.00  0.00    +0.000 A 
ATOM     12  C   UNL     1      90.033  68.081  86.262  0.00  0.00    +0.000 A 
ATOM     13  C   UNL     1      89.033  68.835  86.873  0.00  0.00    +0.000 A 
ATOM     14  C   UNL     1      87.935  68.208  87.457  0.00  0.00    +0.000 A 
ATOM     15  C   UNL     1      87.837  66.814  87.431  0.00  0.00    +0.000 A 
ATOM     16 CL   UNL     1      89.155  70.551  86.905  0.00  0.00    +0.000 Cl
ENDBRANCH   9  10
ENDBRANCH   1   9
TORSDOF 3
ENDMDL
