MODEL 1
REMARK VINA RESULT:      -4.9      0.000      0.000
REMARK  Name = *****
REMARK  5 active torsions:
REMARK  status: ('A' for Active; 'I' for Inactive)
REMARK    1  A    between atoms: C_1  and  C_2
REMARK    2  A    between atoms: C_4  and  C_10
REMARK    3  A    between atoms: C_5  and  O_8
REMARK    4  A    between atoms: O_8  and  C_9
REMARK    5  A    between atoms: C_11  and  C_12
REMARK                            x       y       z     vdW  Elec       q    Type
REMARK                         _______ _______ _______ _____ _____    ______ ____
ROOT
ATOM      1  C   UNL     1     106.198 124.487  78.273  0.00  0.00    +0.000 C 
ATOM      2  C   UNL     1     105.556 124.175  79.592  0.00  0.00    +0.000 A 
ATOM      3  C   UNL     1     104.503 124.955  80.081  0.00  0.00    +0.000 A 
ATOM      4  C   UNL     1     103.924 124.674  81.327  0.00  0.00    +0.000 A 
ATOM      5  C   UNL     1     104.400 123.605  82.106  0.00  0.00    +0.000 A 
ATOM      6  C   UNL     1     105.455 122.830  81.615  0.00  0.00    +0.000 A 
ATOM      7  C   UNL     1     106.030 123.115  80.371  0.00  0.00    +0.000 A 
ENDROOT
BRANCH   5   8
ATOM      8  O   UNL     1     103.780 123.400  83.313  0.00  0.00    +0.000 OA
ATOM      9  C   UNL     1     104.607 123.257  84.459  0.00  0.00    +0.000 C 
ENDBRANCH   5   8
BRANCH   4  10
ATOM     10  C   UNL     1     102.856 125.516  81.784  0.00  0.00    +0.000 C 
ATOM     11  C   UNL     1     101.976 126.241  82.165  0.00  0.00    +0.000 C 
BRANCH  11  12
ATOM     12  C   UNL     1     100.949 127.123  82.624  0.00  0.00    +0.000 A 
ATOM     13  C   UNL     1     101.281 128.284  83.326  0.00  0.00    +0.000 A 
ATOM     14  C   UNL     1     100.273 129.132  83.790  0.00  0.00    +0.000 A 
ATOM     15  C   UNL     1      98.935 128.821  83.552  0.00  0.00    +0.000 A 
ATOM     16  C   UNL     1      98.601 127.664  82.848  0.00  0.00    +0.000 A 
ATOM     17  C   UNL     1      99.607 126.815  82.383  0.00  0.00    +0.000 A 
ENDBRANCH  11  12
ENDBRANCH   4  10
TORSDOF 3
ENDMDL
