MODEL 1
REMARK VINA RESULT:      -4.4      0.000      0.000
REMARK  Name = *****
REMARK  5 active torsions:
REMARK  status: ('A' for Active; 'I' for Inactive)
REMARK    1  A    between atoms: C_1  and  O_2
REMARK    2  A    between atoms: O_2  and  C_3
REMARK    3  A    between atoms: C_3  and  C_4
REMARK    4  A    between atoms: C_3  and  C_10
REMARK    5  A    between atoms: C_10  and  C_11
REMARK                            x       y       z     vdW  Elec       q    Type
REMARK                         _______ _______ _______ _____ _____    ______ ____
ROOT
ATOM      1  C   UNL     1     102.056 126.601  83.917  0.00  0.00    +0.000 C 
ENDROOT
BRANCH   1   2
ATOM      2  C   UNL     1     102.692 126.587  82.531  0.00  0.00    +0.000 A 
ATOM      3  C   UNL     1     102.903 125.367  81.869  0.00  0.00    +0.000 A 
ATOM      4  C   UNL     1     103.504 125.337  80.610  0.00  0.00    +0.000 A 
ATOM      5  C   UNL     1     103.906 126.524  80.000  0.00  0.00    +0.000 A 
ATOM      6  C   UNL     1     103.705 127.741  80.645  0.00  0.00    +0.000 A 
ATOM      7  C   UNL     1     103.103 127.772  81.904  0.00  0.00    +0.000 A 
ENDBRANCH   1   2
BRANCH   1   9
ATOM      8  C   UNL     1     102.699 125.213  85.746  0.00  0.00    +0.000 C 
ATOM      9  O   UNL     1     102.032 125.283  84.493  0.00  0.00    +0.000 OA
ENDBRANCH   1   9
BRANCH   1  10
ATOM     10  C   UNL     1     100.633 127.237  83.878  0.00  0.00    +0.000 C 
ATOM     11 CL   UNL     1      99.771 126.747  82.369  0.00  0.00    +0.000 Cl
BRANCH  10  12
ATOM     12  C   UNL     1     100.555 128.746  84.040  0.00  0.00    +0.000 A 
ATOM     13  C   UNL     1     101.538 129.472  84.731  0.00  0.00    +0.000 A 
ATOM     14  C   UNL     1     101.434 130.857  84.878  0.00  0.00    +0.000 A 
ATOM     15  C   UNL     1     100.346 131.537  84.337  0.00  0.00    +0.000 A 
ATOM     16  C   UNL     1      99.361 130.833  83.649  0.00  0.00    +0.000 A 
ATOM     17  C   UNL     1      99.463 129.448  83.501  0.00  0.00    +0.000 A 
ENDBRANCH  10  12
ENDBRANCH   1  10
TORSDOF 4
ENDMDL
