MODEL 1
REMARK VINA RESULT:      -4.2      0.000      0.000
REMARK  Name = *****
REMARK  4 active torsions:
REMARK  status: ('A' for Active; 'I' for Inactive)
REMARK    1  A    between atoms: C_1  and  N_2
REMARK    2  A    between atoms: N_2  and  C_3
REMARK    3  A    between atoms: N_2  and  S_9
REMARK    4  A    between atoms: S_9  and  C_10
REMARK                            x       y       z     vdW  Elec       q    Type
REMARK                         _______ _______ _______ _____ _____    ______ ____
ROOT
ATOM      1  C   UNL     1     102.959 125.296  84.949  0.00  0.00    +0.000 C 
ATOM      2  N   UNL     1     103.084 125.722  83.555  0.00  0.00    +0.000 N 
ENDROOT
BRANCH   2   3
ATOM      3  C   UNL     1     103.655 124.830  82.613  0.00  0.00    +0.000 A 
ATOM      4  C   UNL     1     103.799 125.171  81.253  0.00  0.00    +0.000 A 
ATOM      5  C   UNL     1     104.385 124.302  80.322  0.00  0.00    +0.000 A 
ATOM      6  C   UNL     1     104.854 123.059  80.726  0.00  0.00    +0.000 A 
ATOM      7  C   UNL     1     104.740 122.689  82.059  0.00  0.00    +0.000 A 
ATOM      8  C   UNL     1     104.153 123.564  82.984  0.00  0.00    +0.000 A 
ENDBRANCH   2   3
BRANCH   2   9
ATOM      9  S   UNL     1     103.042 127.380  83.282  0.00  0.00    +0.000 S 
BRANCH   9  10
ATOM     10  C   UNL     1     101.279 127.639  83.102  0.00  0.00    +0.000 A 
ATOM     11  C   UNL     1     100.648 128.799  83.563  0.00  0.00    +0.000 A 
ATOM     12  C   UNL     1      99.268 128.963  83.414  0.00  0.00    +0.000 A 
ATOM     13  C   UNL     1      98.509 127.964  82.806  0.00  0.00    +0.000 A 
ATOM     14  C   UNL     1      99.128 126.801  82.350  0.00  0.00    +0.000 A 
ATOM     15  C   UNL     1     100.508 126.638  82.500  0.00  0.00    +0.000 A 
ENDBRANCH   9  10
ENDBRANCH   2   9
TORSDOF 3
ENDMDL
