MODEL 1
REMARK VINA RESULT:      -4.5      0.000      0.000
REMARK  Name = *****
REMARK  4 active torsions:
REMARK  status: ('A' for Active; 'I' for Inactive)
REMARK    1  A    between atoms: C_1  and  C_2
REMARK    2  A    between atoms: C_2  and  C_4
REMARK    3  A    between atoms: C_7  and  C_9
REMARK    4  A    between atoms: C_10  and  C_11
REMARK                            x       y       z     vdW  Elec       q    Type
REMARK                         _______ _______ _______ _____ _____    ______ ____
ROOT
ATOM      1  C   UNL     1     105.175 123.108  81.401  0.00  0.00    +0.000 A 
ATOM      2  C   UNL     1     105.150 123.655  80.135  0.00  0.00    +0.000 A 
ATOM      3  C   UNL     1     104.327 124.819  80.059  0.00  0.00    +0.000 A 
ATOM      4  C   UNL     1     103.731 125.146  81.266  0.00  0.00    +0.000 A 
ATOM      5  S   UNL     1     104.197 124.011  82.478  0.00  0.00    +0.000 S 
ENDROOT
BRANCH   1   7
ATOM      6  C   UNL     1     105.129 120.625  81.874  0.00  0.00    +0.000 C 
ATOM      7  C   UNL     1     105.886 121.934  81.895  0.00  0.00    +0.000 C 
ATOM      8  O   UNL     1     107.043 121.951  82.319  0.00  0.00    +0.000 OA
ENDBRANCH   1   7
BRANCH   4   9
ATOM      9  C   UNL     1     102.852 126.209  81.631  0.00  0.00    +0.000 C 
ATOM     10  C   UNL     1     101.694 125.999  82.279  0.00  0.00    +0.000 C 
BRANCH  10  11
ATOM     11  C   UNL     1     100.776 127.081  82.666  0.00  0.00    +0.000 A 
ATOM     12  C   UNL     1      99.394 127.002  82.448  0.00  0.00    +0.000 A 
ATOM     13  C   UNL     1      98.549 128.037  82.859  0.00  0.00    +0.000 A 
ATOM     14  C   UNL     1      99.077 129.156  83.501  0.00  0.00    +0.000 A 
ATOM     15  C   UNL     1     100.447 129.238  83.736  0.00  0.00    +0.000 A 
ATOM     16  C   UNL     1     101.292 128.204  83.326  0.00  0.00    +0.000 A 
ENDBRANCH  10  11
ENDBRANCH   4   9
TORSDOF 3
ENDMDL
