REMARK  Name = *****
REMARK  6 active torsions:
REMARK  status: ('A' for Active; 'I' for Inactive)
REMARK    1  A    between atoms: C_1  and  C_2
REMARK    2  A    between atoms: C_2  and  C_3
REMARK    3  A    between atoms: C_2  and  N_9
REMARK    4  A    between atoms: N_9  and  C_10
REMARK    5  A    between atoms: N_9  and  N_17
REMARK    6  A    between atoms: C_10  and  C_11
REMARK                            x       y       z     vdW  Elec       q    Type
REMARK                         _______ _______ _______ _____ _____    ______ ____
ROOT
ATOM      1  N   UNL     1       2.913  -1.278  -0.147  0.00  0.00    +0.000 NA
ENDROOT
BRANCH   1   3
ATOM      2  C   UNL     1       2.946   0.647   1.495  0.00  0.00    +0.000 C 
ATOM      3  C   UNL     1       2.555   0.149   0.090  0.00  0.00    +0.000 C 
BRANCH   3   4
ATOM      4  C   UNL     1       1.098   0.420  -0.308  0.00  0.00    +0.000 A 
ATOM      5  C   UNL     1       0.105   0.809   0.604  0.00  0.00    +0.000 A 
ATOM      6  C   UNL     1      -1.208   1.031   0.179  0.00  0.00    +0.000 A 
ATOM      7  C   UNL     1      -1.549   0.870  -1.162  0.00  0.00    +0.000 A 
ATOM      8  C   UNL     1      -0.578   0.486  -2.082  0.00  0.00    +0.000 A 
ATOM      9  C   UNL     1       0.733   0.264  -1.659  0.00  0.00    +0.000 A 
ENDBRANCH   3   4
ENDBRANCH   1   3
BRANCH   1  10
ATOM     10  N   UNL     1       4.200  -1.520  -0.307  0.00  0.00    +0.000 NA
ATOM     11  O   UNL     1       4.646  -0.948  -1.307  0.00  0.00    +0.000 OA
ENDBRANCH   1  10
BRANCH   1  12
ATOM     12  C   UNL     1       2.272  -2.196   0.812  0.00  0.00    +0.000 C 
BRANCH  12  13
ATOM     13  C   UNL     1       2.092  -3.598   0.260  0.00  0.00    +0.000 A 
ATOM     14  C   UNL     1       2.904  -4.653   0.700  0.00  0.00    +0.000 A 
ATOM     15  C   UNL     1       2.731  -5.939   0.185  0.00  0.00    +0.000 A 
ATOM     16  C   UNL     1       1.750  -6.182  -0.775  0.00  0.00    +0.000 A 
ATOM     17  C   UNL     1       0.942  -5.140  -1.224  0.00  0.00    +0.000 A 
ATOM     18  C   UNL     1       1.112  -3.853  -0.711  0.00  0.00    +0.000 A 
ENDBRANCH  12  13
ENDBRANCH   1  12
TORSDOF 5
