MODEL 1
REMARK VINA RESULT:      -4.4      0.000      0.000
REMARK  Name = *****
REMARK  7 active torsions:
REMARK  status: ('A' for Active; 'I' for Inactive)
REMARK    1  A    between atoms: C_1  and  C_2
REMARK    2  A    between atoms: C_4  and  S_8
REMARK    3  A    between atoms: S_8  and  C_9
REMARK    4  A    between atoms: C_9  and  C_10
REMARK    5  A    between atoms: C_11  and  C_18
REMARK    6  A    between atoms: C_13  and  C_17
REMARK    7  A    between atoms: C_15  and  C_16
REMARK                            x       y       z     vdW  Elec       q    Type
REMARK                         _______ _______ _______ _____ _____    ______ ____
ROOT
ATOM      1  C   UNL     1      88.183  70.655  84.840  0.00  0.00    +0.000 C 
ENDROOT
BRANCH   1   2
ATOM      2  C   UNL     1      87.376  71.011  86.080  0.00  0.00    +0.000 A 
ATOM      3  C   UNL     1      87.890  70.745  87.375  0.00  0.00    +0.000 A 
ATOM      4  C   UNL     1      87.131  71.083  88.508  0.00  0.00    +0.000 A 
ATOM      5  C   UNL     1      85.875  71.679  88.391  0.00  0.00    +0.000 A 
ATOM      6  C   UNL     1      85.357  71.916  87.115  0.00  0.00    +0.000 A 
ATOM      7  C   UNL     1      86.088  71.591  85.959  0.00  0.00    +0.000 A 
ATOM      8  C   UNL     1      85.468  71.893  84.618  0.00  0.00    +0.000 C 
ATOM      9  C   UNL     1      85.064  72.000  89.610  0.00  0.00    +0.000 C 
ATOM     10  C   UNL     1      89.245  70.121  87.585  0.00  0.00    +0.000 C 
ENDBRANCH   1   2
BRANCH   1  11
ATOM     11  S   UNL     1      87.573  69.122  84.062  0.00  0.00    +0.000 S 
BRANCH  11  15
ATOM     12  C   UNL     1      87.650  65.602  87.955  0.00  0.00    +0.000 C 
ATOM     13  C   UNL     1      88.367  66.290  86.834  0.00  0.00    +0.000 A 
ATOM     14  C   UNL     1      87.718  67.256  86.058  0.00  0.00    +0.000 A 
ATOM     15  C   UNL     1      88.421  67.901  85.046  0.00  0.00    +0.000 A 
ATOM     16  N   UNL     1      89.721  67.643  84.781  0.00  0.00    +0.000 NA
ATOM     17  C   UNL     1      90.334  66.719  85.551  0.00  0.00    +0.000 A 
ATOM     18  C   UNL     1      89.712  66.030  86.578  0.00  0.00    +0.000 A 
ENDBRANCH  11  15
ENDBRANCH   1  11
TORSDOF 3
ENDMDL
