MODEL 1
REMARK VINA RESULT:      -4.9      0.000      0.000
REMARK  Name = *****
REMARK  4 active torsions:
REMARK  status: ('A' for Active; 'I' for Inactive)
REMARK    1  A    between atoms: C_1  and  C_2
REMARK    2  A    between atoms: C_5  and  C_8
REMARK    3  A    between atoms: C_9  and  C_10
REMARK    4  A    between atoms: C_9  and  C_12
REMARK                            x       y       z     vdW  Elec       q    Type
REMARK                         _______ _______ _______ _____ _____    ______ ____
ROOT
ATOM      1  C   UNL     1     101.470 128.126  83.420  0.00  0.00    +0.000 C 
ATOM      2  C   UNL     1     100.126 128.244  83.417  0.00  0.00    +0.000 C 
ENDROOT
BRANCH   1   7
ATOM      3  C   UNL     1     104.501 124.228  80.416  0.00  0.00    +0.000 C 
ATOM      4  C   UNL     1     103.736 125.256  81.196  0.00  0.00    +0.000 A 
ATOM      5  C   UNL     1     103.519 126.536  80.675  0.00  0.00    +0.000 A 
ATOM      6  C   UNL     1     102.781 127.479  81.396  0.00  0.00    +0.000 A 
ATOM      7  C   UNL     1     102.238 127.148  82.642  0.00  0.00    +0.000 A 
ATOM      8  C   UNL     1     102.453 125.869  83.165  0.00  0.00    +0.000 A 
ATOM      9  C   UNL     1     103.192 124.928  82.444  0.00  0.00    +0.000 A 
ENDBRANCH   1   7
BRANCH   2  10
ATOM     10  C   UNL     1      99.501 129.280  84.268  0.00  0.00    +0.000 A 
ATOM     11  C   UNL     1      98.562 128.932  85.253  0.00  0.00    +0.000 A 
ATOM     12  C   UNL     1      97.983 129.913  86.063  0.00  0.00    +0.000 A 
ATOM     13  C   UNL     1      98.338 131.251  85.899  0.00  0.00    +0.000 A 
ATOM     14  C   UNL     1      99.272 131.609  84.930  0.00  0.00    +0.000 A 
ATOM     15  C   UNL     1      99.853 130.630  84.120  0.00  0.00    +0.000 A 
ENDBRANCH   2  10
BRANCH   2  16
ATOM     16  C   UNL     1      99.280 127.378  82.653  0.00  0.00    +0.000 C 
ATOM     17  N   UNL     1      98.586 126.692  82.024  0.00  0.00    +0.000 NA
ENDBRANCH   2  16
TORSDOF 3
ENDMDL
