MODEL 1
REMARK VINA RESULT:      -4.3      0.000      0.000
REMARK  Name = *****
REMARK  6 active torsions:
REMARK  status: ('A' for Active; 'I' for Inactive)
REMARK    1  A    between atoms: C_1  and  C_2
REMARK    2  A    between atoms: C_5  and  S_8
REMARK    3  A    between atoms: S_8  and  C_9
REMARK    4  A    between atoms: C_9  and  C_11
REMARK    5  A    between atoms: C_16  and  S_17
REMARK    6  A    between atoms: S_17  and  C_18
REMARK                            x       y       z     vdW  Elec       q    Type
REMARK                         _______ _______ _______ _____ _____    ______ ____
ROOT
ATOM      1  C   UNL     1      99.369 127.417  83.101  0.00  0.00    +0.000 C 
ATOM      2  O   UNL     1      98.715 127.205  82.089  0.00  0.00    +0.000 OA
ENDROOT
BRANCH   1   3
ATOM      3  C   UNL     1      99.074 128.600  83.928  0.00  0.00    +0.000 A 
ATOM      4  C   UNL     1      99.581 129.828  83.473  0.00  0.00    +0.000 A 
ATOM      5  C   UNL     1      99.353 130.991  84.205  0.00  0.00    +0.000 A 
ATOM      6  C   UNL     1      98.616 130.931  85.386  0.00  0.00    +0.000 A 
ATOM      7  C   UNL     1      98.093 129.712  85.828  0.00  0.00    +0.000 A 
ATOM      8  C   UNL     1      98.302 128.533  85.097  0.00  0.00    +0.000 A 
BRANCH   8   9
ATOM      9  S   UNL     1      97.546 127.038  85.725  0.00  0.00    +0.000 S 
ATOM     10  C   UNL     1      96.010 127.063  84.760  0.00  0.00    +0.000 C 
ENDBRANCH   8   9
ENDBRANCH   1   3
BRANCH   1  11
ATOM     11  S   UNL     1     100.754 126.469  83.620  0.00  0.00    +0.000 S 
BRANCH  11  16
ATOM     12  C   UNL     1     105.310 128.951  80.417  0.00  0.00    +0.000 C 
ATOM     13  C   UNL     1     104.179 128.355  81.201  0.00  0.00    +0.000 A 
ATOM     14  C   UNL     1     103.418 127.306  80.676  0.00  0.00    +0.000 A 
ATOM     15  C   UNL     1     102.385 126.735  81.428  0.00  0.00    +0.000 A 
ATOM     16  C   UNL     1     102.108 127.194  82.719  0.00  0.00    +0.000 A 
ATOM     17  C   UNL     1     102.865 128.246  83.241  0.00  0.00    +0.000 A 
ATOM     18  C   UNL     1     103.900 128.815  82.493  0.00  0.00    +0.000 A 
ENDBRANCH  11  16
ENDBRANCH   1  11
TORSDOF 4
ENDMDL
