REMARK  Name = *****
REMARK  5 active torsions:
REMARK  status: ('A' for Active; 'I' for Inactive)
REMARK    1  A    between atoms: C_1  and  C_2
REMARK    2  A    between atoms: C_3  and  O_16
REMARK    3  A    between atoms: C_6  and  C_8
REMARK    4  A    between atoms: C_9  and  C_10
REMARK    5  A    between atoms: O_16  and  C_17
REMARK                            x       y       z     vdW  Elec       q    Type
REMARK                         _______ _______ _______ _____ _____    ______ ____
ROOT
ATOM      1  C   UNL     1       2.827  -0.600   0.413  0.00  0.00    +0.000 C 
ATOM      2  C   UNL     1       1.351  -0.394   0.211  0.00  0.00    +0.000 A 
ATOM      3  C   UNL     1       0.829   0.890  -0.020  0.00  0.00    +0.000 A 
ATOM      4  C   UNL     1      -0.548   1.049  -0.195  0.00  0.00    +0.000 A 
ATOM      5  C   UNL     1      -1.402  -0.059  -0.153  0.00  0.00    +0.000 A 
ATOM      6  C   UNL     1      -0.895  -1.345   0.054  0.00  0.00    +0.000 A 
ATOM      7  C   UNL     1       0.483  -1.499   0.250  0.00  0.00    +0.000 A 
ENDROOT
BRANCH   6   8
ATOM      8  C   UNL     1      -1.763  -2.529   0.134  0.00  0.00    +0.000 C 
ATOM      9  C   UNL     1      -2.841  -2.718  -0.644  0.00  0.00    +0.000 C 
BRANCH   9  10
ATOM     10  C   UNL     1      -3.699  -3.911  -0.579  0.00  0.00    +0.000 A 
ATOM     11  C   UNL     1      -4.026  -4.533   0.633  0.00  0.00    +0.000 A 
ATOM     12  C   UNL     1      -4.871  -5.647   0.655  0.00  0.00    +0.000 A 
ATOM     13  C   UNL     1      -5.405  -6.142  -0.533  0.00  0.00    +0.000 A 
ATOM     14  C   UNL     1      -5.100  -5.522  -1.742  0.00  0.00    +0.000 A 
ATOM     15  C   UNL     1      -4.256  -4.409  -1.765  0.00  0.00    +0.000 A 
ENDBRANCH   9  10
ENDBRANCH   6   8
BRANCH   3  16
ATOM     16  O   UNL     1       1.745   1.909  -0.045  0.00  0.00    +0.000 OA
ATOM     17  C   UNL     1       1.261   3.216  -0.325  0.00  0.00    +0.000 C 
ENDBRANCH   3  16
TORSDOF 3
