MODEL 1
REMARK VINA RESULT:      -5.1      0.000      0.000
REMARK  Name = *****
REMARK  3 active torsions:
REMARK  status: ('A' for Active; 'I' for Inactive)
REMARK    1  A    between atoms: C_3  and  C_11
REMARK    2  A    between atoms: C_5  and  C_7
REMARK    3  A    between atoms: C_12  and  C_13
REMARK                            x       y       z     vdW  Elec       q    Type
REMARK                         _______ _______ _______ _____ _____    ______ ____
ROOT
ATOM      1  C   UNL     1     105.778 124.982  79.234  0.00  0.00    +0.000 A 
ATOM      2  C   UNL     1     104.903 125.908  79.805  0.00  0.00    +0.000 A 
ATOM      3  C   UNL     1     104.038 125.529  80.840  0.00  0.00    +0.000 A 
ATOM      4  C   UNL     1     104.047 124.197  81.273  0.00  0.00    +0.000 A 
ATOM      5  C   UNL     1     104.923 123.255  80.707  0.00  0.00    +0.000 A 
ATOM      6  C   UNL     1     105.791 123.664  79.685  0.00  0.00    +0.000 A 
ENDROOT
BRANCH   5   7
ATOM      7  C   UNL     1     104.938 121.822  81.179  0.00  0.00    +0.000 C 
ATOM      8  F   UNL     1     106.142 121.205  81.014  0.00  0.00    +0.000 F 
ATOM      9  F   UNL     1     104.640 121.706  82.502  0.00  0.00    +0.000 F 
ATOM     10  F   UNL     1     104.031 121.047  80.522  0.00  0.00    +0.000 F 
ENDBRANCH   5   7
BRANCH   3  11
ATOM     11  C   UNL     1     103.080 126.465  81.445  0.00  0.00    +0.000 C 
ATOM     12  C   UNL     1     101.908 126.093  81.986  0.00  0.00    +0.000 C 
BRANCH  12  13
ATOM     13  C   UNL     1     100.952 127.031  82.587  0.00  0.00    +0.000 A 
ATOM     14  C   UNL     1      99.582 126.845  82.402  0.00  0.00    +0.000 A 
ATOM     15  N   UNL     1      98.621 127.669  82.888  0.00  0.00    +0.000 NA
ATOM     16  C   UNL     1      99.045 128.742  83.588  0.00  0.00    +0.000 A 
ATOM     17  C   UNL     1     100.380 129.031  83.818  0.00  0.00    +0.000 A 
ATOM     18  C   UNL     1     101.344 128.164  83.304  0.00  0.00    +0.000 A 
ENDBRANCH  12  13
ENDBRANCH   3  11
TORSDOF 3
ENDMDL
