MODEL 1
REMARK VINA RESULT:      -4.6      0.000      0.000
REMARK  Name = *****
REMARK  2 active torsions:
REMARK  status: ('A' for Active; 'I' for Inactive)
REMARK    1  A    between atoms: C_6  and  C_7
REMARK    2  A    between atoms: N_8  and  C_9
REMARK                            x       y       z     vdW  Elec       q    Type
REMARK                         _______ _______ _______ _____ _____    ______ ____
ROOT
ATOM      1  C   UNL     1     102.812 126.025  82.261  0.00  0.00    +0.000 C 
ATOM      2  N   UNL     1     101.519 125.940  82.276  0.00  0.00    +0.000 NA
ENDROOT
BRANCH   1   8
ATOM      3  C   UNL     1     104.068 124.834  80.491  0.00  0.00    +0.000 A 
ATOM      4  C   UNL     1     104.873 123.776  80.065  0.00  0.00    +0.000 A 
ATOM      5  C   UNL     1     105.265 122.799  80.977  0.00  0.00    +0.000 A 
ATOM      6  C   UNL     1     104.867 122.859  82.309  0.00  0.00    +0.000 A 
ATOM      7  C   UNL     1     104.063 123.914  82.739  0.00  0.00    +0.000 A 
ATOM      8  C   UNL     1     103.663 124.900  81.829  0.00  0.00    +0.000 A 
ATOM      9  F   UNL     1     106.038 121.786  80.564  0.00  0.00    +0.000 F 
ENDBRANCH   1   8
BRANCH   2  10
ATOM     10  C   UNL     1     100.834 127.082  82.707  0.00  0.00    +0.000 A 
ATOM     11  C   UNL     1      99.450 127.189  82.526  0.00  0.00    +0.000 A 
ATOM     12  C   UNL     1      98.767 128.322  82.970  0.00  0.00    +0.000 A 
ATOM     13  C   UNL     1      99.471 129.339  83.605  0.00  0.00    +0.000 A 
ATOM     14  C   UNL     1     100.843 129.241  83.808  0.00  0.00    +0.000 A 
ATOM     15  C   UNL     1     101.524 128.108  83.362  0.00  0.00    +0.000 A 
ATOM     16  F   UNL     1      98.817 130.426  84.032  0.00  0.00    +0.000 F 
ENDBRANCH   2  10
TORSDOF 2
ENDMDL
