REMARK  Name = *****
REMARK  3 active torsions:
REMARK  status: ('A' for Active; 'I' for Inactive)
REMARK    1  A    between atoms: C_1  and  C_2
REMARK    2  A    between atoms: C_9  and  C_11
REMARK    3  A    between atoms: C_11  and  C_12
REMARK                            x       y       z     vdW  Elec       q    Type
REMARK                         _______ _______ _______ _____ _____    ______ ____
ROOT
ATOM      1  C   UNL     1       1.036  -0.030   0.063  0.00  0.00    +0.000 C 
ATOM      2  C   UNL     1       2.538  -0.073   0.079  0.00  0.00    +0.000 A 
ATOM      3  C   UNL     1       3.212  -1.310   0.074  0.00  0.00    +0.000 A 
ATOM      4  C   UNL     1       4.614  -1.308   0.086  0.00  0.00    +0.000 A 
ATOM      5  C   UNL     1       5.284  -0.097   0.103  0.00  0.00    +0.000 A 
ATOM      6  C   UNL     1       4.668   1.147   0.109  0.00  0.00    +0.000 A 
ATOM      7  C   UNL     1       3.266   1.131   0.095  0.00  0.00    +0.000 A 
ATOM      8  O   UNL     1       6.623  -0.359   0.111  0.00  0.00    +0.000 OA
ATOM      9  C   UNL     1       6.688  -1.729   0.102  0.00  0.00    +0.000 A 
ATOM     10  N   UNL     1       5.517  -2.341   0.080  0.00  0.00    +0.000 NA
ENDROOT
BRANCH   9  11
ATOM     11  C   UNL     1       8.049  -2.332   0.098  0.00  0.00    +0.000 C 
BRANCH  11  12
ATOM     12  C   UNL     1       8.607  -2.567   1.484  0.00  0.00    +0.000 A 
ATOM     13  C   UNL     1       9.764  -1.901   1.911  0.00  0.00    +0.000 A 
ATOM     14  C   UNL     1      10.276  -2.141   3.183  0.00  0.00    +0.000 A 
ATOM     15  C   UNL     1       9.657  -3.034   4.050  0.00  0.00    +0.000 A 
ATOM     16  C   UNL     1       8.506  -3.701   3.639  0.00  0.00    +0.000 A 
ATOM     17  C   UNL     1       7.985  -3.472   2.362  0.00  0.00    +0.000 A 
ATOM     18  F   UNL     1      11.385  -1.501   3.577  0.00  0.00    +0.000 F 
ENDBRANCH  11  12
ENDBRANCH   9  11
TORSDOF 2
