REMARK  Name = *****
REMARK  4 active torsions:
REMARK  status: ('A' for Active; 'I' for Inactive)
REMARK    1  A    between atoms: C_1  and  C_2
REMARK    2  A    between atoms: C_7  and  S_8
REMARK    3  A    between atoms: S_8  and  S_9
REMARK    4  A    between atoms: S_9  and  C_10
REMARK                            x       y       z     vdW  Elec       q    Type
REMARK                         _______ _______ _______ _____ _____    ______ ____
ROOT
ATOM      1  S   UNL     1       2.998  -1.855   1.153  0.00  0.00    +0.000 S 
ENDROOT
BRANCH   1   8
ATOM      2  C   UNL     1       2.383   1.082   0.072  0.00  0.00    +0.000 C 
ATOM      3  C   UNL     1       1.297   0.047  -0.038  0.00  0.00    +0.000 A 
ATOM      4  C   UNL     1       0.068   0.412  -0.613  0.00  0.00    +0.000 A 
ATOM      5  C   UNL     1      -0.970  -0.513  -0.734  0.00  0.00    +0.000 A 
ATOM      6  C   UNL     1      -0.797  -1.816  -0.281  0.00  0.00    +0.000 A 
ATOM      7  C   UNL     1       0.418  -2.196   0.290  0.00  0.00    +0.000 A 
ATOM      8  C   UNL     1       1.474  -1.278   0.408  0.00  0.00    +0.000 A 
ENDBRANCH   1   8
BRANCH   1   9
ATOM      9  S   UNL     1       4.066  -2.462  -0.498  0.00  0.00    +0.000 S 
BRANCH   9  10
ATOM     10  C   UNL     1       3.424  -4.103  -0.771  0.00  0.00    +0.000 A 
ATOM     11  C   UNL     1       2.572  -4.345  -1.854  0.00  0.00    +0.000 A 
ATOM     12  C   UNL     1       2.065  -5.627  -2.078  0.00  0.00    +0.000 A 
ATOM     13  C   UNL     1       2.411  -6.673  -1.224  0.00  0.00    +0.000 A 
ATOM     14  C   UNL     1       3.266  -6.440  -0.148  0.00  0.00    +0.000 A 
ATOM     15  C   UNL     1       3.773  -5.159   0.078  0.00  0.00    +0.000 A 
ENDBRANCH   9  10
ENDBRANCH   1   9
TORSDOF 3
