MODEL 1
REMARK VINA RESULT:      -4.7      0.000      0.000
REMARK  Name = *****
REMARK  3 active torsions:
REMARK  status: ('A' for Active; 'I' for Inactive)
REMARK    1  A    between atoms: C_4  and  C_7
REMARK    2  A    between atoms: C_7  and  C_9
REMARK    3  A    between atoms: C_9  and  C_10
REMARK                            x       y       z     vdW  Elec       q    Type
REMARK                         _______ _______ _______ _____ _____    ______ ____
ROOT
ATOM      1  C   UNL     1     103.760 127.616  82.478  0.00  0.00    +0.000 C 
ATOM      2  F   UNL     1     103.342 128.395  81.427  0.00  0.00    +0.000 F 
ATOM      3  F   UNL     1     104.929 128.216  82.875  0.00  0.00    +0.000 F 
ENDROOT
BRANCH   1   4
ATOM      4  C   UNL     1     103.994 126.186  81.995  0.00  0.00    +0.000 A 
ATOM      5  C   UNL     1     104.125 125.908  80.623  0.00  0.00    +0.000 A 
ATOM      6  C   UNL     1     104.350 124.602  80.179  0.00  0.00    +0.000 A 
ATOM      7  C   UNL     1     104.457 123.565  81.102  0.00  0.00    +0.000 A 
ATOM      8  C   UNL     1     104.350 123.824  82.466  0.00  0.00    +0.000 A 
ATOM      9  C   UNL     1     104.124 125.129  82.912  0.00  0.00    +0.000 A 
ATOM     10 CL   UNL     1     104.735 121.958  80.556  0.00  0.00    +0.000 Cl
ENDBRANCH   1   4
BRANCH   1  11
ATOM     11  C   UNL     1     102.712 127.654  83.606  0.00  0.00    +0.000 C 
ATOM     12  O   UNL     1     103.035 127.695  84.798  0.00  0.00    +0.000 OA
BRANCH  11  16
ATOM     13  C   UNL     1      98.512 127.919  82.694  0.00  0.00    +0.000 A 
ATOM     14  C   UNL     1      99.212 126.766  82.341  0.00  0.00    +0.000 A 
ATOM     15  C   UNL     1     100.576 126.653  82.627  0.00  0.00    +0.000 A 
ATOM     16  C   UNL     1     101.253 127.694  83.274  0.00  0.00    +0.000 A 
ATOM     17  C   UNL     1     100.536 128.853  83.620  0.00  0.00    +0.000 A 
ATOM     18  C   UNL     1      99.174 128.963  83.333  0.00  0.00    +0.000 A 
ENDBRANCH  11  16
ENDBRANCH   1  11
TORSDOF 3
ENDMDL
