MODEL 1
REMARK VINA RESULT:      -4.9      0.000      0.000
REMARK  Name = *****
REMARK  4 active torsions:
REMARK  status: ('A' for Active; 'I' for Inactive)
REMARK    1  A    between atoms: C_1  and  C_2
REMARK    2  A    between atoms: C_5  and  S_8
REMARK    3  A    between atoms: S_8  and  C_10
REMARK    4  A    between atoms: C_10  and  C_11
REMARK                            x       y       z     vdW  Elec       q    Type
REMARK                         _______ _______ _______ _____ _____    ______ ____
ROOT
ATOM      1  S   UNL     1      88.994  70.504  86.785  0.00  0.00    +0.000 S 
ATOM      2  O   UNL     1      90.060  70.835  85.776  0.00  0.00    +0.000 OA
ENDROOT
BRANCH   1   7
ATOM      3  C   UNL     1      88.896  64.388  86.978  0.00  0.00    +0.000 C 
ATOM      4  C   UNL     1      88.900  65.887  86.923  0.00  0.00    +0.000 A 
ATOM      5  C   UNL     1      89.979  66.562  86.342  0.00  0.00    +0.000 A 
ATOM      6  C   UNL     1      89.999  67.958  86.293  0.00  0.00    +0.000 A 
ATOM      7  C   UNL     1      88.944  68.696  86.839  0.00  0.00    +0.000 A 
ATOM      8  C   UNL     1      87.860  68.025  87.414  0.00  0.00    +0.000 A 
ATOM      9  C   UNL     1      87.842  66.629  87.460  0.00  0.00    +0.000 A 
ENDBRANCH   1   7
BRANCH   1  10
ATOM     10  C   UNL     1      87.356  70.768  85.987  0.00  0.00    +0.000 C 
ATOM     11 CL   UNL     1      87.505  71.819  84.539  0.00  0.00    +0.000 Cl
BRANCH  10  12
ATOM     12  C   UNL     1      86.331  71.360  86.936  0.00  0.00    +0.000 A 
ATOM     13  C   UNL     1      86.496  71.310  88.332  0.00  0.00    +0.000 A 
ATOM     14  C   UNL     1      85.526  71.840  89.183  0.00  0.00    +0.000 A 
ATOM     15  C   UNL     1      84.379  72.428  88.656  0.00  0.00    +0.000 A 
ATOM     16  C   UNL     1      84.202  72.490  87.276  0.00  0.00    +0.000 A 
ATOM     17  C   UNL     1      85.170  71.962  86.421  0.00  0.00    +0.000 A 
ENDBRANCH  10  12
ENDBRANCH   1  10
TORSDOF 3
ENDMDL
