MODEL 1
REMARK VINA RESULT:      -3.8      0.000      0.000
REMARK  Name = *****
REMARK  3 active torsions:
REMARK  status: ('A' for Active; 'I' for Inactive)
REMARK    1  A    between atoms: C_4  and  O_7
REMARK    2  A    between atoms: O_7  and  C_8
REMARK    3  A    between atoms: C_8  and  C_10
REMARK                            x       y       z     vdW  Elec       q    Type
REMARK                         _______ _______ _______ _____ _____    ______ ____
ROOT
ATOM      1  O   UNL     1     102.807 126.941  82.952  0.00  0.00    +0.000 OA
ENDROOT
BRANCH   1   5
ATOM      2  C   UNL     1      98.859 128.301  83.014  0.00  0.00    +0.000 A 
ATOM      3  C   UNL     1      99.872 129.085  83.573  0.00  0.00    +0.000 A 
ATOM      4  C   UNL     1     101.190 128.632  83.564  0.00  0.00    +0.000 A 
ATOM      5  C   UNL     1     101.469 127.387  83.006  0.00  0.00    +0.000 A 
ATOM      6  C   UNL     1     100.476 126.602  82.424  0.00  0.00    +0.000 A 
ATOM      7  C   UNL     1      99.161 127.064  82.437  0.00  0.00    +0.000 A 
ENDBRANCH   1   5
BRANCH   1   8
ATOM      8  C   UNL     1     103.469 126.614  81.761  0.00  0.00    +0.000 C 
ATOM      9  S   UNL     1     103.743 127.696  80.521  0.00  0.00    +0.000 S 
BRANCH   8  10
ATOM     10  C   UNL     1     103.899 125.225  81.712  0.00  0.00    +0.000 A 
ATOM     11  C   UNL     1     104.283 124.455  80.622  0.00  0.00    +0.000 A 
ATOM     12  C   UNL     1     104.646 123.121  80.973  0.00  0.00    +0.000 A 
ATOM     13  C   UNL     1     104.534 122.900  82.325  0.00  0.00    +0.000 A 
ATOM     14  S   UNL     1     103.994 124.288  83.157  0.00  0.00    +0.000 S 
ENDBRANCH   8  10
ENDBRANCH   1   8
TORSDOF 3
ENDMDL
