REMARK  Name = *****
REMARK  4 active torsions:
REMARK  status: ('A' for Active; 'I' for Inactive)
REMARK    1  A    between atoms: C_1  and  C_2
REMARK    2  A    between atoms: C_4  and  C_8
REMARK    3  A    between atoms: C_8  and  S_10
REMARK    4  A    between atoms: S_10  and  C_11
REMARK                            x       y       z     vdW  Elec       q    Type
REMARK                         _______ _______ _______ _____ _____    ______ ____
ROOT
ATOM      1  C   UNL     1      -1.718   2.631  -0.377  0.00  0.00    +0.000 C 
ATOM      2  O   UNL     1      -2.865   2.683  -0.807  0.00  0.00    +0.000 OA
ENDROOT
BRANCH   1   6
ATOM      3  C   UNL     1       2.488  -0.170  -0.152  0.00  0.00    +0.000 C 
ATOM      4  C   UNL     1       0.995  -0.042  -0.085  0.00  0.00    +0.000 A 
ATOM      5  C   UNL     1       0.382   1.210  -0.244  0.00  0.00    +0.000 A 
ATOM      6  C   UNL     1      -1.015   1.328  -0.218  0.00  0.00    +0.000 A 
ATOM      7  C   UNL     1      -1.800   0.176  -0.070  0.00  0.00    +0.000 A 
ATOM      8  C   UNL     1      -1.196  -1.073   0.074  0.00  0.00    +0.000 A 
ATOM      9  C   UNL     1       0.195  -1.181   0.066  0.00  0.00    +0.000 A 
ENDBRANCH   1   6
BRANCH   1  10
ATOM     10  S   UNL     1      -0.894   4.088   0.180  0.00  0.00    +0.000 S 
BRANCH  10  11
ATOM     11  C   UNL     1      -1.267   5.181  -1.136  0.00  0.00    +0.000 A 
ATOM     12  C   UNL     1      -1.692   6.420  -0.847  0.00  0.00    +0.000 A 
ATOM     13  C   UNL     1      -1.961   7.509  -1.751  0.00  0.00    +0.000 A 
ATOM     14  C   UNL     1      -2.310   7.434  -3.038  0.00  0.00    +0.000 A 
ATOM     15  C   UNL     1      -2.481   6.243  -3.825  0.00  0.00    +0.000 A 
ATOM     16  C   UNL     1      -1.906   5.052  -3.631  0.00  0.00    +0.000 A 
ATOM     17  C   UNL     1      -1.031   4.633  -2.511  0.00  0.00    +0.000 A 
ATOM     18  O   UNL     1      -0.194   3.753  -2.722  0.00  0.00    +0.000 OA
ENDBRANCH  10  11
ENDBRANCH   1  10
TORSDOF 3
