MODEL 1
REMARK VINA RESULT:      -4.4      0.000      0.000
REMARK  Name = *****
REMARK  3 active torsions:
REMARK  status: ('A' for Active; 'I' for Inactive)
REMARK    1  A    between atoms: C_3  and  C_14
REMARK    2  A    between atoms: C_6  and  C_7
REMARK    3  A    between atoms: C_8  and  C_9
REMARK                            x       y       z     vdW  Elec       q    Type
REMARK                         _______ _______ _______ _____ _____    ______ ____
ROOT
ATOM      1  C   UNL     1     103.277 125.940  80.882  0.00  0.00    +0.000 A 
ATOM      2  C   UNL     1     103.967 124.842  80.359  0.00  0.00    +0.000 A 
ATOM      3  C   UNL     1     104.389 123.800  81.199  0.00  0.00    +0.000 A 
ATOM      4  C   UNL     1     104.105 123.879  82.572  0.00  0.00    +0.000 A 
ATOM      5  C   UNL     1     103.416 124.976  83.093  0.00  0.00    +0.000 A 
ATOM      6  C   UNL     1     103.001 126.008  82.249  0.00  0.00    +0.000 A 
ENDROOT
BRANCH   3   7
ATOM      7  C   UNL     1     105.137 122.607  80.651  0.00  0.00    +0.000 C 
ATOM      8  F   UNL     1     105.945 122.907  79.597  0.00  0.00    +0.000 F 
ATOM      9  F   UNL     1     105.942 122.026  81.584  0.00  0.00    +0.000 F 
ATOM     10  F   UNL     1     104.302 121.625  80.214  0.00  0.00    +0.000 F 
ENDBRANCH   3   7
BRANCH   6  11
ATOM     11  C   UNL     1     102.298 127.133  82.784  0.00  0.00    +0.000 C 
ATOM     12  C   UNL     1     101.708 128.076  83.234  0.00  0.00    +0.000 C 
BRANCH  12  13
ATOM     13  C   UNL     1     101.004 129.197  83.772  0.00  0.00    +0.000 A 
ATOM     14  C   UNL     1     101.594 130.127  84.600  0.00  0.00    +0.000 A 
ATOM     15  S   UNL     1     100.494 131.349  85.081  0.00  0.00    +0.000 S 
ATOM     16  C   UNL     1      99.225 130.635  84.181  0.00  0.00    +0.000 A 
ATOM     17  C   UNL     1      99.631 129.491  83.529  0.00  0.00    +0.000 A 
ENDBRANCH  12  13
ENDBRANCH   6  11
TORSDOF 3
ENDMDL
