MODEL 1
REMARK VINA RESULT:      -4.3      0.000      0.000
REMARK  Name = *****
REMARK  4 active torsions:
REMARK  status: ('A' for Active; 'I' for Inactive)
REMARK    1  A    between atoms: C_1  and  C_2
REMARK    2  A    between atoms: C_5  and  C_7
REMARK    3  A    between atoms: C_5  and  C_8
REMARK    4  A    between atoms: C_9  and  C_10
REMARK                            x       y       z     vdW  Elec       q    Type
REMARK                         _______ _______ _______ _____ _____    ______ ____
ROOT
ATOM      1  C   UNL     1     103.219 125.974  82.656  0.00  0.00    +0.000 C 
ATOM      2  C   UNL     1     101.938 125.976  82.242  0.00  0.00    +0.000 C 
ENDROOT
BRANCH   1   7
ATOM      3  C   UNL     1     106.150 124.781  78.638  0.00  0.00    +0.000 C 
ATOM      4  C   UNL     1     105.678 125.411  79.942  0.00  0.00    +0.000 C 
ATOM      5  C   UNL     1     106.701 125.237  81.053  0.00  0.00    +0.000 C 
ATOM      6  S   UNL     1     105.918 125.781  82.588  0.00  0.00    +0.000 S 
ATOM      7  C   UNL     1     104.295 124.982  82.285  0.00  0.00    +0.000 C 
ATOM      8  S   UNL     1     104.128 124.626  80.488  0.00  0.00    +0.000 S 
ATOM      9  C   UNL     1     104.269 123.644  83.033  0.00  0.00    +0.000 C 
ENDBRANCH   1   7
BRANCH   2  10
ATOM     10  C   UNL     1     100.960 126.988  82.660  0.00  0.00    +0.000 A 
ATOM     11  C   UNL     1     101.348 128.170  83.306  0.00  0.00    +0.000 A 
ATOM     12  C   UNL     1     100.396 129.128  83.664  0.00  0.00    +0.000 A 
ATOM     13  C   UNL     1      99.051 128.917  83.372  0.00  0.00    +0.000 A 
ATOM     14  C   UNL     1      98.655 127.751  82.718  0.00  0.00    +0.000 A 
ATOM     15  C   UNL     1      99.607 126.794  82.359  0.00  0.00    +0.000 A 
ENDBRANCH   2  10
TORSDOF 2
ENDMDL
