REMARK  Name = *****
REMARK  2 active torsions:
REMARK  status: ('A' for Active; 'I' for Inactive)
REMARK    1  A    between atoms: C_5  and  C_7
REMARK    2  A    between atoms: C_8  and  C_9
REMARK                            x       y       z     vdW  Elec       q    Type
REMARK                         _______ _______ _______ _____ _____    ______ ____
ROOT
ATOM      1  C   UNL     1      -1.698  -1.053   1.480  0.00  0.00    +0.000 C 
ATOM      2  C   UNL     1      -2.764  -1.819   1.768  0.00  0.00    +0.000 C 
ENDROOT
BRANCH   1   7
ATOM      3  C   UNL     1      -0.184   1.483   0.136  0.00  0.00    +0.000 C 
ATOM      4  C   UNL     1       1.204   0.967  -0.250  0.00  0.00    +0.000 C 
ATOM      5  C   UNL     1       1.342  -0.520  -0.113  0.00  0.00    +0.000 C 
ATOM      6  C   UNL     1       0.297  -1.346   0.051  0.00  0.00    +0.000 C 
ATOM      7  C   UNL     1      -1.139  -0.883   0.086  0.00  0.00    +0.000 C 
ATOM      8  C   UNL     1      -1.289   0.572  -0.401  0.00  0.00    +0.000 C 
ENDBRANCH   1   7
BRANCH   2   9
ATOM      9  C   UNL     1      -3.315  -2.000   3.119  0.00  0.00    +0.000 A 
ATOM     10  C   UNL     1      -3.341  -0.966   4.064  0.00  0.00    +0.000 A 
ATOM     11  C   UNL     1      -3.904  -1.171   5.327  0.00  0.00    +0.000 A 
ATOM     12  C   UNL     1      -4.457  -2.407   5.654  0.00  0.00    +0.000 A 
ATOM     13  C   UNL     1      -4.452  -3.438   4.717  0.00  0.00    +0.000 A 
ATOM     14  C   UNL     1      -3.889  -3.233   3.455  0.00  0.00    +0.000 A 
ENDBRANCH   2   9
TORSDOF 2
