MODEL 1
REMARK VINA RESULT:      -4.1      0.000      0.000
REMARK  Name = *****
REMARK  3 active torsions:
REMARK  status: ('A' for Active; 'I' for Inactive)
REMARK    1  A    between atoms: C_4  and  S_7
REMARK    2  A    between atoms: S_7  and  S_8
REMARK    3  A    between atoms: S_8  and  C_9
REMARK                            x       y       z     vdW  Elec       q    Type
REMARK                         _______ _______ _______ _____ _____    ______ ____
ROOT
ATOM      1  S   UNL     1     103.154 125.630  84.122  0.00  0.00    +0.000 S 
ENDROOT
BRANCH   1   5
ATOM      2  C   UNL     1     104.797 123.185  80.615  0.00  0.00    +0.000 A 
ATOM      3  C   UNL     1     104.279 124.461  80.395  0.00  0.00    +0.000 A 
ATOM      4  C   UNL     1     103.779 125.204  81.466  0.00  0.00    +0.000 A 
ATOM      5  C   UNL     1     103.791 124.674  82.759  0.00  0.00    +0.000 A 
ATOM      6  C   UNL     1     104.317 123.395  82.974  0.00  0.00    +0.000 A 
ATOM      7  C   UNL     1     104.817 122.652  81.902  0.00  0.00    +0.000 A 
ENDBRANCH   1   5
BRANCH   1   8
ATOM      8  S   UNL     1     103.017 127.505  83.283  0.00  0.00    +0.000 S 
BRANCH   8   9
ATOM      9  C   UNL     1     101.253 127.696  83.111  0.00  0.00    +0.000 A 
ATOM     10  C   UNL     1     100.631 128.865  83.563  0.00  0.00    +0.000 A 
ATOM     11  C   UNL     1      99.250 129.024  83.432  0.00  0.00    +0.000 A 
ATOM     12  C   UNL     1      98.485 128.017  82.845  0.00  0.00    +0.000 A 
ATOM     13  C   UNL     1      99.099 126.852  82.386  0.00  0.00    +0.000 A 
ATOM     14  C   UNL     1     100.480 126.692  82.518  0.00  0.00    +0.000 A 
ENDBRANCH   8   9
ENDBRANCH   1   8
TORSDOF 3
ENDMDL
