REMARK  Name = *****
REMARK  3 active torsions:
REMARK  status: ('A' for Active; 'I' for Inactive)
REMARK    1  A    between atoms: C_3  and  C_8
REMARK    2  A    between atoms: C_8  and  C_9
REMARK    3  A    between atoms: C_9  and  C_11
REMARK                            x       y       z     vdW  Elec       q    Type
REMARK                         _______ _______ _______ _____ _____    ______ ____
ROOT
ATOM      1  C   UNL     1      -1.045   3.783   0.109  0.00  0.00    +0.000 C 
ATOM      2  O   UNL     1      -0.673   4.282   1.172  0.00  0.00    +0.000 OA
ENDROOT
BRANCH   1   3
ATOM      3  C   UNL     1      -0.632   4.425  -1.178  0.00  0.00    +0.000 A 
ATOM      4  C   UNL     1      -0.864   3.841  -2.430  0.00  0.00    +0.000 A 
ATOM      5  C   UNL     1      -0.460   4.497  -3.599  0.00  0.00    +0.000 A 
ATOM      6  C   UNL     1       0.176   5.734  -3.522  0.00  0.00    +0.000 A 
ATOM      7  C   UNL     1       0.418   6.323  -2.285  0.00  0.00    +0.000 A 
ATOM      8  C   UNL     1       0.017   5.669  -1.116  0.00  0.00    +0.000 A 
ATOM      9 CL   UNL     1       0.665   6.536  -4.963  0.00  0.00    +0.000 Cl
ENDBRANCH   1   3
BRANCH   1  10
ATOM     10  C   UNL     1      -1.910   2.536   0.096  0.00  0.00    +0.000 C 
BRANCH  10  13
ATOM     11  C   UNL     1       0.605  -0.231   0.879  0.00  0.00    +0.000 A 
ATOM     12  C   UNL     1      -0.113   0.966   0.945  0.00  0.00    +0.000 A 
ATOM     13  C   UNL     1      -1.121   1.252   0.009  0.00  0.00    +0.000 A 
ATOM     14  C   UNL     1      -1.410   0.302  -0.979  0.00  0.00    +0.000 A 
ATOM     15  C   UNL     1      -0.687  -0.886  -1.036  0.00  0.00    +0.000 A 
ATOM     16  C   UNL     1       0.319  -1.160  -0.118  0.00  0.00    +0.000 A 
ATOM     17  F   UNL     1      -0.969  -1.781  -1.992  0.00  0.00    +0.000 F 
ENDBRANCH  10  13
ENDBRANCH   1  10
TORSDOF 3
