REMARK  Name = *****
REMARK  6 active torsions:
REMARK  status: ('A' for Active; 'I' for Inactive)
REMARK    1  A    between atoms: C_1  and  C_2
REMARK    2  A    between atoms: C_5  and  O_8
REMARK    3  A    between atoms: O_8  and  C_9
REMARK    4  A    between atoms: C_9  and  O_11
REMARK    5  A    between atoms: O_11  and  C_12
REMARK    6  A    between atoms: C_16  and  C_18
REMARK                            x       y       z     vdW  Elec       q    Type
REMARK                         _______ _______ _______ _____ _____    ______ ____
ROOT
ATOM      1  C   UNL     1      -3.537   1.289  -0.774  0.00  0.00    +0.000 C 
ATOM      2  O   UNL     1      -2.827   2.218  -1.133  0.00  0.00    +0.000 OA
ENDROOT
BRANCH   1   3
ATOM      3  O   UNL     1      -3.136   0.171  -0.056  0.00  0.00    +0.000 OA
BRANCH   3   8
ATOM      4  C   UNL     1       2.433  -0.183   1.005  0.00  0.00    +0.000 C 
ATOM      5  C   UNL     1       0.966  -0.058   0.717  0.00  0.00    +0.000 A 
ATOM      6  C   UNL     1       0.131   0.690   1.561  0.00  0.00    +0.000 A 
ATOM      7  C   UNL     1      -1.237   0.784   1.300  0.00  0.00    +0.000 A 
ATOM      8  C   UNL     1      -1.763   0.132   0.188  0.00  0.00    +0.000 A 
ATOM      9  C   UNL     1      -0.958  -0.640  -0.645  0.00  0.00    +0.000 A 
ATOM     10  C   UNL     1       0.409  -0.730  -0.380  0.00  0.00    +0.000 A 
ENDBRANCH   3   8
ENDBRANCH   1   3
BRANCH   1  11
ATOM     11  O   UNL     1      -4.901   1.155  -1.011  0.00  0.00    +0.000 OA
BRANCH  11  12
ATOM     12  C   UNL     1      -5.563   2.120  -1.790  0.00  0.00    +0.000 A 
ATOM     13  C   UNL     1      -5.060   2.573  -3.008  0.00  0.00    +0.000 A 
ATOM     14  C   UNL     1      -5.808   3.477  -3.761  0.00  0.00    +0.000 A 
ATOM     15  C   UNL     1      -7.057   3.908  -3.304  0.00  0.00    +0.000 A 
ATOM     16  C   UNL     1      -7.569   3.444  -2.086  0.00  0.00    +0.000 A 
ATOM     17  C   UNL     1      -6.817   2.531  -1.336  0.00  0.00    +0.000 A 
ATOM     18  C   UNL     1      -8.928   3.866  -1.614  0.00  0.00    +0.000 C 
ENDBRANCH  11  12
ENDBRANCH   1  11
TORSDOF 4
