MODEL 1
REMARK VINA RESULT:      -5.1      0.000      0.000
REMARK  Name = *****
REMARK  1 active torsions:
REMARK  status: ('A' for Active; 'I' for Inactive)
REMARK    1  A    between atoms: C_10  and  C_11
REMARK                            x       y       z     vdW  Elec       q    Type
REMARK                         _______ _______ _______ _____ _____    ______ ____
ROOT
ATOM      1  C   UNL     1     102.881 125.481  83.638  0.00  0.00    +0.000 C 
ATOM      2  C   UNL     1     103.734 124.245  83.351  0.00  0.00    +0.000 C 
ATOM      3  C   UNL     1     104.422 124.293  82.009  0.00  0.00    +0.000 A 
ATOM      4  C   UNL     1     105.483 123.410  81.757  0.00  0.00    +0.000 A 
ATOM      5  C   UNL     1     106.122 123.402  80.519  0.00  0.00    +0.000 A 
ATOM      6  C   UNL     1     105.705 124.272  79.515  0.00  0.00    +0.000 A 
ATOM      7  C   UNL     1     104.644 125.147  79.749  0.00  0.00    +0.000 A 
ATOM      8  C   UNL     1     103.985 125.156  80.988  0.00  0.00    +0.000 A 
ATOM      9  C   UNL     1     102.862 126.143  81.211  0.00  0.00    +0.000 C 
ATOM     10  C   UNL     1     101.989 125.801  82.431  0.00  0.00    +0.000 C 
ENDROOT
BRANCH  10  11
ATOM     11  C   UNL     1     100.986 126.903  82.730  0.00  0.00    +0.000 A 
ATOM     12  C   UNL     1     101.413 128.079  83.364  0.00  0.00    +0.000 A 
ATOM     13  C   UNL     1     100.508 129.103  83.652  0.00  0.00    +0.000 A 
ATOM     14  C   UNL     1      99.165 128.965  83.312  0.00  0.00    +0.000 A 
ATOM     15  C   UNL     1      98.725 127.801  82.685  0.00  0.00    +0.000 A 
ATOM     16  C   UNL     1      99.628 126.776  82.396  0.00  0.00    +0.000 A 
ENDBRANCH  10  11
TORSDOF 1
ENDMDL
