REMARK  Name = *****
REMARK  3 active torsions:
REMARK  status: ('A' for Active; 'I' for Inactive)
REMARK    1  A    between atoms: C_4  and  N_7
REMARK    2  A    between atoms: N_7  and  N_8
REMARK    3  A    between atoms: N_8  and  C_10
REMARK                            x       y       z     vdW  Elec       q    Type
REMARK                         _______ _______ _______ _____ _____    ______ ____
ROOT
ATOM      1  N   UNL     1      -3.791  -0.754  -0.322  0.00  0.00    +0.000 N 
ATOM      2  O   UNL     1      -3.564  -1.946  -0.288  0.00  0.00    +0.000 OA
ENDROOT
BRANCH   1   3
ATOM      3  C   UNL     1      -5.172  -0.335  -0.475  0.00  0.00    +0.000 A 
ATOM      4  C   UNL     1      -5.648   0.784   0.216  0.00  0.00    +0.000 A 
ATOM      5  C   UNL     1      -6.982   1.177   0.058  0.00  0.00    +0.000 A 
ATOM      6  C   UNL     1      -7.834   0.449  -0.784  0.00  0.00    +0.000 A 
ATOM      7  C   UNL     1      -7.352  -0.675  -1.462  0.00  0.00    +0.000 A 
ATOM      8  C   UNL     1      -6.022  -1.071  -1.307  0.00  0.00    +0.000 A 
ATOM      9 CL   UNL     1      -9.489   0.884  -1.025  0.00  0.00    +0.000 Cl
ATOM     10 CL   UNL     1      -7.512   2.571   0.931  0.00  0.00    +0.000 Cl
ENDBRANCH   1   3
BRANCH   1  11
ATOM     11  N   UNL     1      -2.763   0.220  -0.262  0.00  0.00    +0.000 N 
ATOM     12  H   UNL     1      -3.074   1.152  -0.320  0.00  0.00    +0.000 HD
BRANCH  11  16
ATOM     13  C   UNL     1       1.433  -0.091   0.154  0.00  0.00    +0.000 A 
ATOM     14  C   UNL     1       0.653  -1.243   0.199  0.00  0.00    +0.000 A 
ATOM     15  C   UNL     1      -0.738  -1.159   0.060  0.00  0.00    +0.000 A 
ATOM     16  C   UNL     1      -1.371   0.072  -0.134  0.00  0.00    +0.000 A 
ATOM     17  C   UNL     1      -0.567   1.223  -0.167  0.00  0.00    +0.000 A 
ATOM     18  C   UNL     1       0.822   1.144  -0.028  0.00  0.00    +0.000 A 
ENDBRANCH  11  16
ENDBRANCH   1  11
TORSDOF 3
