REMARK  Name = *****
REMARK  2 active torsions:
REMARK  status: ('A' for Active; 'I' for Inactive)
REMARK    1  A    between atoms: C_4  and  C_7
REMARK    2  A    between atoms: C_8  and  C_9
REMARK                            x       y       z     vdW  Elec       q    Type
REMARK                         _______ _______ _______ _____ _____    ______ ____
ROOT
ATOM      1  C   UNL     1       2.799  -0.680  -0.289  0.00  0.00    +0.000 C 
ATOM      2  C   UNL     1       3.858  -0.919   0.500  0.00  0.00    +0.000 C 
ENDROOT
BRANCH   1   6
ATOM      3  C   UNL     1      -1.424   0.334  -0.215  0.00  0.00    +0.000 C 
ATOM      4  C   UNL     1      -1.009  -1.063   0.235  0.00  0.00    +0.000 C 
ATOM      5  C   UNL     1       0.407  -1.407  -0.225  0.00  0.00    +0.000 C 
ATOM      6  C   UNL     1       1.423  -0.350   0.235  0.00  0.00    +0.000 C 
ATOM      7  C   UNL     1       0.998   1.052  -0.228  0.00  0.00    +0.000 C 
ATOM      8  C   UNL     1      -0.418   1.390   0.233  0.00  0.00    +0.000 C 
ENDBRANCH   1   6
BRANCH   2   9
ATOM      9  C   UNL     1       5.134  -1.223  -0.050  0.00  0.00    +0.000 A 
ATOM     10  C   UNL     1       6.324  -1.485   0.621  0.00  0.00    +0.000 A 
ATOM     11  C   UNL     1       7.328  -1.733  -0.345  0.00  0.00    +0.000 A 
ATOM     12  C   UNL     1       6.710  -1.614  -1.562  0.00  0.00    +0.000 A 
ATOM     13  O   UNL     1       5.401  -1.309  -1.401  0.00  0.00    +0.000 OA
ENDBRANCH   2   9
TORSDOF 2
