MODEL 1
REMARK VINA RESULT:      -4.4      0.000      0.000
REMARK  Name = *****
REMARK  6 active torsions:
REMARK  status: ('A' for Active; 'I' for Inactive)
REMARK    1  A    between atoms: C_1  and  C_2
REMARK    2  A    between atoms: C_2  and  O_3
REMARK    3  A    between atoms: O_3  and  C_4
REMARK    4  A    between atoms: C_7  and  S_10
REMARK    5  A    between atoms: S_10  and  C_11
REMARK    6  A    between atoms: C_11  and  C_12
REMARK                            x       y       z     vdW  Elec       q    Type
REMARK                         _______ _______ _______ _____ _____    ______ ____
ROOT
ATOM      1  C   UNL     1      90.234  66.373  85.098  0.00  0.00    +0.000 A 
ATOM      2  N   UNL     1      90.225  67.085  83.952  0.00  0.00    +0.000 NA
ATOM      3  N   UNL     1      90.002  68.438  83.998  0.00  0.00    +0.000 NA
ATOM      4  C   UNL     1      89.793  69.053  85.181  0.00  0.00    +0.000 A 
ATOM      5  C   UNL     1      89.798  68.337  86.370  0.00  0.00    +0.000 A 
ATOM      6  C   UNL     1      90.022  66.964  86.327  0.00  0.00    +0.000 A 
ENDROOT
BRANCH   1   7
ATOM      7  O   UNL     1      90.457  65.012  85.087  0.00  0.00    +0.000 OA
BRANCH   7   9
ATOM      8  C   UNL     1      91.924  63.814  83.640  0.00  0.00    +0.000 C 
ATOM      9  C   UNL     1      91.831  64.670  84.892  0.00  0.00    +0.000 C 
ENDBRANCH   7   9
ENDBRANCH   1   7
BRANCH   4  10
ATOM     10  S   UNL     1      89.518  70.811  85.219  0.00  0.00    +0.000 S 
BRANCH  10  11
ATOM     11  C   UNL     1      87.827  70.890  84.543  0.00  0.00    +0.000 C 
BRANCH  11  12
ATOM     12  C   UNL     1      86.835  71.289  85.610  0.00  0.00    +0.000 A 
ATOM     13  C   UNL     1      87.120  71.067  86.968  0.00  0.00    +0.000 A 
ATOM     14  C   UNL     1      86.208  71.449  87.953  0.00  0.00    +0.000 A 
ATOM     15  C   UNL     1      85.013  72.054  87.583  0.00  0.00    +0.000 A 
ATOM     16  C   UNL     1      84.713  72.288  86.247  0.00  0.00    +0.000 A 
ATOM     17  C   UNL     1      85.624  71.909  85.260  0.00  0.00    +0.000 A 
ATOM     18  F   UNL     1      84.139  72.419  88.529  0.00  0.00    +0.000 F 
ENDBRANCH  11  12
ENDBRANCH  10  11
ENDBRANCH   4  10
TORSDOF 5
ENDMDL
