REMARK  Name = *****
REMARK  4 active torsions:
REMARK  status: ('A' for Active; 'I' for Inactive)
REMARK    1  A    between atoms: C_4  and  O_7
REMARK    2  A    between atoms: O_7  and  C_8
REMARK    3  A    between atoms: C_8  and  O_10
REMARK    4  A    between atoms: O_10  and  C_11
REMARK                            x       y       z     vdW  Elec       q    Type
REMARK                         _______ _______ _______ _____ _____    ______ ____
ROOT
ATOM      1  C   UNL     1       3.909  -0.423   0.491  0.00  0.00    +0.000 C 
ATOM      2  S   UNL     1       4.015   0.118   2.053  0.00  0.00    +0.000 S 
ENDROOT
BRANCH   1   3
ATOM      3  O   UNL     1       2.777  -0.608  -0.233  0.00  0.00    +0.000 OA
BRANCH   3   7
ATOM      4  C   UNL     1      -1.334   0.435  -0.403  0.00  0.00    +0.000 C 
ATOM      5  C   UNL     1      -0.963  -1.018  -0.119  0.00  0.00    +0.000 C 
ATOM      6  C   UNL     1       0.496  -1.300  -0.462  0.00  0.00    +0.000 C 
ATOM      7  C   UNL     1       1.444  -0.337   0.259  0.00  0.00    +0.000 C 
ATOM      8  C   UNL     1       1.072   1.116  -0.049  0.00  0.00    +0.000 C 
ATOM      9  C   UNL     1      -0.386   1.407   0.295  0.00  0.00    +0.000 C 
ENDBRANCH   3   7
ENDBRANCH   1   3
BRANCH   1  10
ATOM     10  O   UNL     1       5.088  -0.729  -0.175  0.00  0.00    +0.000 OA
BRANCH  10  11
ATOM     11  C   UNL     1       4.993  -1.207  -1.490  0.00  0.00    +0.000 A 
ATOM     12  C   UNL     1       5.224  -0.322  -2.541  0.00  0.00    +0.000 A 
ATOM     13  C   UNL     1       5.167  -0.797  -3.850  0.00  0.00    +0.000 A 
ATOM     14  C   UNL     1       4.893  -2.145  -4.093  0.00  0.00    +0.000 A 
ATOM     15  C   UNL     1       4.683  -3.025  -3.028  0.00  0.00    +0.000 A 
ATOM     16  C   UNL     1       4.740  -2.558  -1.716  0.00  0.00    +0.000 A 
ENDBRANCH  10  11
ENDBRANCH   1  10
TORSDOF 4
