MODEL 1
REMARK VINA RESULT:      -4.3      0.000      0.000
REMARK  Name = *****
REMARK  4 active torsions:
REMARK  status: ('A' for Active; 'I' for Inactive)
REMARK    1  A    between atoms: C_4  and  C_7
REMARK    2  A    between atoms: C_7  and  C_8
REMARK    3  A    between atoms: C_8  and  C_9
REMARK    4  A    between atoms: C_9  and  C_11
REMARK                            x       y       z     vdW  Elec       q    Type
REMARK                         _______ _______ _______ _____ _____    ______ ____
ROOT
ATOM      1  C   UNL     1      88.678  67.400  86.015  0.00  0.00    +0.000 C 
ATOM      2  O   UNL     1      88.243  67.194  84.885  0.00  0.00    +0.000 OA
ENDROOT
BRANCH   1   3
ATOM      3  C   UNL     1      88.014  66.729  87.176  0.00  0.00    +0.000 A 
ATOM      4  C   UNL     1      86.854  67.237  87.769  0.00  0.00    +0.000 A 
ATOM      5  C   UNL     1      86.279  66.566  88.851  0.00  0.00    +0.000 A 
ATOM      6  C   UNL     1      86.846  65.396  89.352  0.00  0.00    +0.000 A 
ATOM      7  C   UNL     1      88.000  64.895  88.758  0.00  0.00    +0.000 A 
ATOM      8  C   UNL     1      88.587  65.552  87.678  0.00  0.00    +0.000 A 
ATOM      9 CL   UNL     1      88.709  63.450  89.367  0.00  0.00    +0.000 Cl
ATOM     10 CL   UNL     1      84.852  67.196  89.578  0.00  0.00    +0.000 Cl
ENDBRANCH   1   3
BRANCH   1  11
ATOM     11  C   UNL     1      89.860  68.313  86.277  0.00  0.00    +0.000 C 
BRANCH  11  12
ATOM     12  C   UNL     1      89.547  69.763  85.910  0.00  0.00    +0.000 C 
BRANCH  12  16
ATOM     13  C   UNL     1      86.617  71.416  88.607  0.00  0.00    +0.000 A 
ATOM     14  C   UNL     1      87.830  70.942  89.101  0.00  0.00    +0.000 A 
ATOM     15  C   UNL     1      88.782  70.413  88.229  0.00  0.00    +0.000 A 
ATOM     16  C   UNL     1      88.529  70.358  86.852  0.00  0.00    +0.000 A 
ATOM     17  C   UNL     1      87.304  70.833  86.365  0.00  0.00    +0.000 A 
ATOM     18  C   UNL     1      86.353  71.361  87.239  0.00  0.00    +0.000 A 
ENDBRANCH  12  16
ENDBRANCH  11  12
ENDBRANCH   1  11
TORSDOF 4
ENDMDL
