MODEL 1
REMARK VINA RESULT:      -4.6      0.000      0.000
REMARK  Name = *****
REMARK  3 active torsions:
REMARK  status: ('A' for Active; 'I' for Inactive)
REMARK    1  A    between atoms: C_6  and  C_7
REMARK    2  A    between atoms: C_7  and  N_8
REMARK    3  A    between atoms: N_8  and  C_9
REMARK                            x       y       z     vdW  Elec       q    Type
REMARK                         _______ _______ _______ _____ _____    ______ ____
ROOT
ATOM      1  N   UNL     1      88.770  70.061  86.620  0.00  0.00    +0.000 N 
ATOM      2  O   UNL     1      89.666  70.775  87.178  0.00  0.00    +0.000 OA
ENDROOT
BRANCH   1   3
ATOM      3  C   UNL     1      88.841  68.619  86.762  0.00  0.00    +0.000 A 
ATOM      4  C   UNL     1      87.772  67.952  87.372  0.00  0.00    +0.000 A 
ATOM      5  C   UNL     1      87.812  66.563  87.499  0.00  0.00    +0.000 A 
ATOM      6  C   UNL     1      88.907  65.853  87.002  0.00  0.00    +0.000 A 
ATOM      7  C   UNL     1      89.960  66.518  86.370  0.00  0.00    +0.000 A 
ATOM      8  C   UNL     1      89.926  67.907  86.237  0.00  0.00    +0.000 A 
ATOM      9 CL   UNL     1      88.955  64.141  87.163  0.00  0.00    +0.000 Cl
ENDBRANCH   1   3
BRANCH   1  10
ATOM     10  C   UNL     1      87.806  70.649  85.951  0.00  0.00    +0.000 C 
BRANCH  10  16
ATOM     11  C   UNL     1      86.351  71.360  87.867  0.00  0.00    +0.000 A 
ATOM     12  C   UNL     1      85.178  71.968  88.320  0.00  0.00    +0.000 A 
ATOM     13  C   UNL     1      84.267  72.493  87.404  0.00  0.00    +0.000 A 
ATOM     14  C   UNL     1      84.513  72.407  86.034  0.00  0.00    +0.000 A 
ATOM     15  C   UNL     1      85.686  71.802  85.577  0.00  0.00    +0.000 A 
ATOM     16  C   UNL     1      86.614  71.302  86.496  0.00  0.00    +0.000 A 
ATOM     17 CL   UNL     1      82.823  73.238  87.966  0.00  0.00    +0.000 Cl
ENDBRANCH  10  16
ENDBRANCH   1  10
TORSDOF 3
ENDMDL
