MODEL 1
REMARK VINA RESULT:      -5.0      0.000      0.000
REMARK  Name = *****
REMARK  6 active torsions:
REMARK  status: ('A' for Active; 'I' for Inactive)
REMARK    1  A    between atoms: C_1  and  C_2
REMARK    2  A    between atoms: C_5  and  C_8
REMARK    3  A    between atoms: C_8  and  O_10
REMARK    4  A    between atoms: O_10  and  C_11
REMARK    5  A    between atoms: C_13  and  C_18
REMARK    6  A    between atoms: C_14  and  C_17
REMARK                            x       y       z     vdW  Elec       q    Type
REMARK                         _______ _______ _______ _____ _____    ______ ____
ROOT
ATOM      1  C   UNL     1      87.837  70.701  85.993  0.00  0.00    +0.000 C 
ATOM      2  O   UNL     1      88.135  70.752  84.809  0.00  0.00    +0.000 OA
ENDROOT
BRANCH   1   7
ATOM      3  C   UNL     1      82.956  73.143  87.969  0.00  0.00    +0.000 C 
ATOM      4  C   UNL     1      84.206  72.480  87.472  0.00  0.00    +0.000 A 
ATOM      5  C   UNL     1      84.473  72.408  86.101  0.00  0.00    +0.000 A 
ATOM      6  C   UNL     1      85.655  71.820  85.639  0.00  0.00    +0.000 A 
ATOM      7  C   UNL     1      86.592  71.307  86.545  0.00  0.00    +0.000 A 
ATOM      8  C   UNL     1      86.333  71.391  87.918  0.00  0.00    +0.000 A 
ATOM      9  C   UNL     1      85.149  71.978  88.377  0.00  0.00    +0.000 A 
ENDBRANCH   1   7
BRANCH   1  10
ATOM     10  O   UNL     1      88.554  70.101  87.013  0.00  0.00    +0.000 OA
BRANCH  10  11
ATOM     11  C   UNL     1      88.650  68.707  86.937  0.00  0.00    +0.000 A 
ATOM     12  C   UNL     1      89.740  68.098  86.316  0.00  0.00    +0.000 A 
ATOM     13  C   UNL     1      89.851  66.699  86.307  0.00  0.00    +0.000 A 
ATOM     14  C   UNL     1      88.858  65.923  86.943  0.00  0.00    +0.000 A 
ATOM     15  C   UNL     1      87.782  66.564  87.582  0.00  0.00    +0.000 A 
ATOM     16  C   UNL     1      87.680  67.954  87.585  0.00  0.00    +0.000 A 
ATOM     17  C   UNL     1      88.931  64.420  86.957  0.00  0.00    +0.000 C 
ATOM     18  C   UNL     1      91.021  66.060  85.611  0.00  0.00    +0.000 C 
ENDBRANCH  10  11
ENDBRANCH   1  10
TORSDOF 3
ENDMDL
