REMARK  Name = *****
REMARK  5 active torsions:
REMARK  status: ('A' for Active; 'I' for Inactive)
REMARK    1  A    between atoms: C_1  and  O_2
REMARK    2  A    between atoms: O_2  and  C_3
REMARK    3  A    between atoms: C_3  and  C_4
REMARK    4  A    between atoms: C_3  and  C_10
REMARK    5  A    between atoms: C_10  and  C_11
REMARK                            x       y       z     vdW  Elec       q    Type
REMARK                         _______ _______ _______ _____ _____    ______ ____
ROOT
ATOM      1  C   UNL     1       3.342   1.205   0.119  0.00  0.00    +0.000 C 
ENDROOT
BRANCH   1   2
ATOM      2  C   UNL     1       2.721   1.939   1.301  0.00  0.00    +0.000 A 
ATOM      3  C   UNL     1       2.598   3.337   1.272  0.00  0.00    +0.000 A 
ATOM      4  C   UNL     1       2.052   4.024   2.358  0.00  0.00    +0.000 A 
ATOM      5  C   UNL     1       1.627   3.325   3.485  0.00  0.00    +0.000 A 
ATOM      6  C   UNL     1       1.748   1.938   3.530  0.00  0.00    +0.000 A 
ATOM      7  C   UNL     1       2.292   1.249   2.445  0.00  0.00    +0.000 A 
ENDBRANCH   1   2
BRANCH   1   9
ATOM      8  C   UNL     1       1.448   0.103  -0.826  0.00  0.00    +0.000 C 
ATOM      9  O   UNL     1       2.675  -0.047  -0.123  0.00  0.00    +0.000 OA
ENDBRANCH   1   9
BRANCH   1  10
ATOM     10  C   UNL     1       4.868   1.011   0.331  0.00  0.00    +0.000 C 
ATOM     11 BR   UNL     1       5.705   0.456  -1.372  0.00  0.00    +0.000 Br
BRANCH  10  12
ATOM     12  C   UNL     1       5.327   0.068   1.425  0.00  0.00    +0.000 A 
ATOM     13  C   UNL     1       5.020  -1.302   1.415  0.00  0.00    +0.000 A 
ATOM     14  C   UNL     1       5.446  -2.140   2.448  0.00  0.00    +0.000 A 
ATOM     15  C   UNL     1       6.184  -1.621   3.508  0.00  0.00    +0.000 A 
ATOM     16  C   UNL     1       6.497  -0.265   3.537  0.00  0.00    +0.000 A 
ATOM     17  C   UNL     1       6.072   0.574   2.505  0.00  0.00    +0.000 A 
ENDBRANCH  10  12
ENDBRANCH   1  10
TORSDOF 4
