MODEL 1
REMARK VINA RESULT:      -4.3      0.000      0.000
REMARK  Name = *****
REMARK  4 active torsions:
REMARK  status: ('A' for Active; 'I' for Inactive)
REMARK    1  A    between atoms: C_1  and  C_2
REMARK    2  A    between atoms: C_5  and  S_8
REMARK    3  A    between atoms: S_8  and  S_11
REMARK    4  A    between atoms: S_11  and  C_12
REMARK                            x       y       z     vdW  Elec       q    Type
REMARK                         _______ _______ _______ _____ _____    ______ ____
ROOT
ATOM      1  S   UNL     1      88.127  70.691  85.070  0.00  0.00    +0.000 S 
ATOM      2  O   UNL     1      87.659  69.663  84.160  0.00  0.00    +0.000 OA
ATOM      3  O   UNL     1      88.870  71.838  84.588  0.00  0.00    +0.000 OA
ENDROOT
BRANCH   1   8
ATOM      4  C   UNL     1      83.360  72.797  88.184  0.00  0.00    +0.000 C 
ATOM      5  C   UNL     1      84.549  72.298  87.416  0.00  0.00    +0.000 A 
ATOM      6  C   UNL     1      84.562  72.362  86.015  0.00  0.00    +0.000 A 
ATOM      7  C   UNL     1      85.652  71.872  85.295  0.00  0.00    +0.000 A 
ATOM      8  C   UNL     1      86.726  71.296  85.978  0.00  0.00    +0.000 A 
ATOM      9  C   UNL     1      86.726  71.224  87.373  0.00  0.00    +0.000 A 
ATOM     10  C   UNL     1      85.634  71.716  88.088  0.00  0.00    +0.000 A 
ENDBRANCH   1   8
BRANCH   1  11
ATOM     11  S   UNL     1      89.275  69.758  86.542  0.00  0.00    +0.000 S 
BRANCH  11  12
ATOM     12  C   UNL     1      88.760  68.016  86.383  0.00  0.00    +0.000 C 
ATOM     13  C   UNL     1      87.816  67.675  87.544  0.00  0.00    +0.000 C 
ATOM     14  C   UNL     1      87.393  66.207  87.503  0.00  0.00    +0.000 C 
ATOM     15  C   UNL     1      88.599  65.275  87.484  0.00  0.00    +0.000 C 
ATOM     16  C   UNL     1      89.549  65.614  86.340  0.00  0.00    +0.000 C 
ATOM     17  C   UNL     1      89.976  67.082  86.374  0.00  0.00    +0.000 C 
ENDBRANCH  11  12
ENDBRANCH   1  11
TORSDOF 3
ENDMDL
