MODEL 1
REMARK VINA RESULT:      -4.7      0.000      0.000
REMARK  Name = *****
REMARK  5 active torsions:
REMARK  status: ('A' for Active; 'I' for Inactive)
REMARK    1  A    between atoms: C_1  and  C_2
REMARK    2  A    between atoms: C_2  and  O_4
REMARK    3  A    between atoms: O_4  and  C_5
REMARK    4  A    between atoms: C_5  and  C_13
REMARK    5  A    between atoms: C_6  and  C_7
REMARK                            x       y       z     vdW  Elec       q    Type
REMARK                         _______ _______ _______ _____ _____    ______ ____
ROOT
ATOM      1  C   UNL     1     102.982 126.241  81.843  0.00  0.00    +0.000 C 
ATOM      2  C   UNL     1     101.958 126.084  82.703  0.00  0.00    +0.000 C 
ENDROOT
BRANCH   2   3
ATOM      3  C   UNL     1     100.874 127.054  82.885  0.00  0.00    +0.000 A 
ATOM      4  C   UNL     1      99.591 126.820  82.376  0.00  0.00    +0.000 A 
ATOM      5  C   UNL     1      98.570 127.752  82.576  0.00  0.00    +0.000 A 
ATOM      6  C   UNL     1      98.824 128.921  83.290  0.00  0.00    +0.000 A 
ATOM      7  C   UNL     1     100.097 129.158  83.807  0.00  0.00    +0.000 A 
ATOM      8  C   UNL     1     101.118 128.226  83.609  0.00  0.00    +0.000 A 
ENDBRANCH   2   3
BRANCH   1   9
ATOM      9  C   UNL     1     104.101 125.235  81.635  0.00  0.00    +0.000 C 
ATOM     10  C   UNL     1     104.182 124.804  80.162  0.00  0.00    +0.000 C 
ATOM     11  C   UNL     1     105.325 123.819  79.926  0.00  0.00    +0.000 C 
ATOM     12  C   UNL     1     105.234 122.613  80.856  0.00  0.00    +0.000 C 
ATOM     13  C   UNL     1     105.154 123.035  82.319  0.00  0.00    +0.000 C 
ATOM     14  C   UNL     1     104.001 124.008  82.560  0.00  0.00    +0.000 C 
ENDBRANCH   1   9
BRANCH   1  15
ATOM     15  O   UNL     1     103.060 127.387  81.025  0.00  0.00    +0.000 OA
BRANCH  15  17
ATOM     16  C   UNL     1     104.748 128.764  80.170  0.00  0.00    +0.000 C 
ATOM     17  C   UNL     1     104.055 128.256  81.399  0.00  0.00    +0.000 C 
ATOM     18  O   UNL     1     104.370 128.574  82.539  0.00  0.00    +0.000 OA
ENDBRANCH  15  17
ENDBRANCH   1  15
TORSDOF 4
ENDMDL
