MODEL 1
REMARK VINA RESULT:      -5.3      0.000      0.000
REMARK  Name = *****
REMARK  3 active torsions:
REMARK  status: ('A' for Active; 'I' for Inactive)
REMARK    1  A    between atoms: C_1  and  C_2
REMARK    2  A    between atoms: C_9  and  C_11
REMARK    3  A    between atoms: C_13  and  C_17
REMARK                            x       y       z     vdW  Elec       q    Type
REMARK                         _______ _______ _______ _____ _____    ______ ____
ROOT
ATOM      1  C   UNL     1     106.324 123.352  79.697  0.00  0.00    +0.000 C 
ATOM      2  C   UNL     1     105.339 123.843  80.721  0.00  0.00    +0.000 A 
ATOM      3  C   UNL     1     104.369 124.796  80.367  0.00  0.00    +0.000 A 
ATOM      4  C   UNL     1     103.493 125.179  81.376  0.00  0.00    +0.000 A 
ATOM      5  C   UNL     1     103.512 124.688  82.670  0.00  0.00    +0.000 A 
ATOM      6  C   UNL     1     104.475 123.733  83.017  0.00  0.00    +0.000 A 
ATOM      7  C   UNL     1     105.381 123.319  82.027  0.00  0.00    +0.000 A 
ATOM      8  N   UNL     1     102.516 125.275  83.406  0.00  0.00    +0.000 NA
ATOM      9  C   UNL     1     101.930 126.093  82.549  0.00  0.00    +0.000 A 
ATOM     10  O   UNL     1     102.476 126.084  81.288  0.00  0.00    +0.000 OA
ENDROOT
BRANCH   9  11
ATOM     11  C   UNL     1     100.798 126.992  82.768  0.00  0.00    +0.000 A 
ATOM     12  C   UNL     1     101.011 128.234  83.388  0.00  0.00    +0.000 A 
ATOM     13  C   UNL     1      99.952 129.130  83.613  0.00  0.00    +0.000 A 
ATOM     14  C   UNL     1      98.659 128.762  83.214  0.00  0.00    +0.000 A 
ATOM     15  C   UNL     1      98.431 127.532  82.599  0.00  0.00    +0.000 A 
ATOM     16  C   UNL     1      99.494 126.654  82.377  0.00  0.00    +0.000 A 
BRANCH  13  17
ATOM     17  C   UNL     1     100.185 130.459  84.288  0.00  0.00    +0.000 C 
ATOM     18  F   UNL     1      99.866 130.467  85.611  0.00  0.00    +0.000 F 
ATOM     19  F   UNL     1     101.485 130.859  84.216  0.00  0.00    +0.000 F 
ATOM     20  F   UNL     1      99.456 131.461  83.722  0.00  0.00    +0.000 F 
ENDBRANCH  13  17
ENDBRANCH   9  11
TORSDOF 2
ENDMDL
