REMARK  Name = *****
REMARK  4 active torsions:
REMARK  status: ('A' for Active; 'I' for Inactive)
REMARK    1  A    between atoms: C_1  and  C_2
REMARK    2  A    between atoms: C_2  and  C_3
REMARK    3  A    between atoms: C_2  and  N_9
REMARK    4  A    between atoms: C_10  and  C_12
REMARK                            x       y       z     vdW  Elec       q    Type
REMARK                         _______ _______ _______ _____ _____    ______ ____
ROOT
ATOM      1  N   UNL     1       2.612   1.181   0.791  0.00  0.00    +0.000 NA
ATOM      2  C   UNL     1       3.749   2.103   0.745  0.00  0.00    +0.000 C 
ATOM      3  O   UNL     1       3.523   1.285   1.908  0.00  0.00    +0.000 OA
ENDROOT
BRANCH   2   4
ATOM      4  C   UNL     1       3.474   3.578   0.887  0.00  0.00    +0.000 A 
ATOM      5  C   UNL     1       4.324   4.395   1.654  0.00  0.00    +0.000 A 
ATOM      6  C   UNL     1       4.096   5.769   1.784  0.00  0.00    +0.000 A 
ATOM      7  C   UNL     1       3.005   6.352   1.146  0.00  0.00    +0.000 A 
ATOM      8  C   UNL     1       2.147   5.573   0.378  0.00  0.00    +0.000 A 
ATOM      9  C   UNL     1       2.385   4.201   0.248  0.00  0.00    +0.000 A 
ATOM     10 CL   UNL     1       2.720   8.040   1.306  0.00  0.00    +0.000 Cl
ENDBRANCH   2   4
BRANCH   1  12
ATOM     11  C   UNL     1       1.891  -1.152   0.755  0.00  0.00    +0.000 C 
ATOM     12  C   UNL     1       2.892  -0.137   0.191  0.00  0.00    +0.000 C 
BRANCH  12  13
ATOM     13  C   UNL     1       2.811  -0.094  -1.330  0.00  0.00    +0.000 A 
ATOM     14  C   UNL     1       1.712   0.478  -1.992  0.00  0.00    +0.000 A 
ATOM     15  C   UNL     1       1.657   0.510  -3.386  0.00  0.00    +0.000 A 
ATOM     16  C   UNL     1       2.697  -0.033  -4.138  0.00  0.00    +0.000 A 
ATOM     17  C   UNL     1       3.791  -0.610  -3.497  0.00  0.00    +0.000 A 
ATOM     18  C   UNL     1       3.849  -0.641  -2.103  0.00  0.00    +0.000 A 
ENDBRANCH  12  13
ENDBRANCH   1  12
TORSDOF 3
