MODEL 1
REMARK VINA RESULT:      -5.1      0.000      0.000
REMARK  Name = *****
REMARK  1 active torsions:
REMARK  status: ('A' for Active; 'I' for Inactive)
REMARK    1  A    between atoms: C_8  and  C_11
REMARK                            x       y       z     vdW  Elec       q    Type
REMARK                         _______ _______ _______ _____ _____    ______ ____
ROOT
ATOM      1  C   UNL     1     106.227 123.632  79.802  0.00  0.00    +0.000 C 
ATOM      2  C   UNL     1     106.748 124.932  80.414  0.00  0.00    +0.000 C 
ATOM      3  C   UNL     1     105.906 125.181  81.664  0.00  0.00    +0.000 C 
ATOM      4  C   UNL     1     104.581 124.447  81.400  0.00  0.00    +0.000 C 
ATOM      5  C   UNL     1     105.070 123.177  80.690  0.00  0.00    +0.000 C 
ATOM      6  C   UNL     1     103.827 124.103  82.737  0.00  0.00    +0.000 C 
ATOM      7  C   UNL     1     103.047 125.295  83.384  0.00  0.00    +0.000 C 
ATOM      8  C   UNL     1     102.264 126.080  82.337  0.00  0.00    +0.000 C 
ATOM      9  C   UNL     1     102.726 125.917  81.134  0.00  0.00    +0.000 C 
ATOM     10  C   UNL     1     103.663 125.283  80.503  0.00  0.00    +0.000 C 
ENDROOT
BRANCH   8  11
ATOM     11  C   UNL     1     101.183 127.018  82.693  0.00  0.00    +0.000 A 
ATOM     12  C   UNL     1      99.846 126.735  82.364  0.00  0.00    +0.000 A 
ATOM     13  C   UNL     1      98.813 127.615  82.703  0.00  0.00    +0.000 A 
ATOM     14  C   UNL     1      99.099 128.797  83.378  0.00  0.00    +0.000 A 
ATOM     15  C   UNL     1     100.416 129.100  83.712  0.00  0.00    +0.000 A 
ATOM     16  C   UNL     1     101.447 128.218  83.373  0.00  0.00    +0.000 A 
ENDBRANCH   8  11
TORSDOF 1
ENDMDL
