MODEL 1
REMARK VINA RESULT:      -4.7      0.000      0.000
REMARK  Name = *****
REMARK  4 active torsions:
REMARK  status: ('A' for Active; 'I' for Inactive)
REMARK    1  A    between atoms: C_1  and  C_2
REMARK    2  A    between atoms: C_5  and  C_8
REMARK    3  A    between atoms: C_9  and  C_11
REMARK    4  A    between atoms: C_14  and  C_17
REMARK                            x       y       z     vdW  Elec       q    Type
REMARK                         _______ _______ _______ _____ _____    ______ ____
ROOT
ATOM      1  C   UNL     1      87.718  63.842  86.528  0.00  0.00    +0.000 C 
ATOM      2  C   UNL     1      87.418  62.965  87.729  0.00  0.00    +0.000 C 
ATOM      3  S   UNL     1      86.039  63.530  86.862  0.00  0.00    +0.000 S 
ENDROOT
BRANCH   1   8
ATOM      4  C   UNL     1      89.571  69.398  86.828  0.00  0.00    +0.000 C 
ATOM      5  C   UNL     1      89.102  67.976  86.783  0.00  0.00    +0.000 A 
ATOM      6  C   UNL     1      89.950  66.961  86.337  0.00  0.00    +0.000 A 
ATOM      7  C   UNL     1      89.499  65.638  86.268  0.00  0.00    +0.000 A 
ATOM      8  C   UNL     1      88.194  65.277  86.644  0.00  0.00    +0.000 A 
ATOM      9  C   UNL     1      87.346  66.323  87.053  0.00  0.00    +0.000 A 
ATOM     10  C   UNL     1      87.789  67.648  87.125  0.00  0.00    +0.000 A 
ENDBRANCH   1   8
BRANCH   2  11
ATOM     11  C   UNL     1      87.670  63.422  89.157  0.00  0.00    +0.000 A 
ATOM     12  C   UNL     1      88.939  63.581  89.744  0.00  0.00    +0.000 A 
ATOM     13  C   UNL     1      89.095  64.000  91.071  0.00  0.00    +0.000 A 
ATOM     14  C   UNL     1      87.981  64.289  91.860  0.00  0.00    +0.000 A 
ATOM     15  C   UNL     1      86.710  64.128  91.308  0.00  0.00    +0.000 A 
ATOM     16  C   UNL     1      86.564  63.708  89.981  0.00  0.00    +0.000 A 
ATOM     17  C   UNL     1      88.148  64.701  93.292  0.00  0.00    +0.000 C 
ENDBRANCH   2  11
TORSDOF 2
ENDMDL
