MODEL 1
REMARK VINA RESULT:      -3.5      0.000      0.000
REMARK  Name = *****
REMARK  3 active torsions:
REMARK  status: ('A' for Active; 'I' for Inactive)
REMARK    1  A    between atoms: C_5  and  S_7
REMARK    2  A    between atoms: S_7  and  S_8
REMARK    3  A    between atoms: S_8  and  C_9
REMARK                            x       y       z     vdW  Elec       q    Type
REMARK                         _______ _______ _______ _____ _____    ______ ____
ROOT
ATOM      1  S   UNL     1      87.661  64.084  87.128  0.00  0.00    +0.000 S 
ENDROOT
BRANCH   1   6
ATOM      2  C   UNL     1      88.927  64.051  91.105  0.00  0.00    +0.000 C 
ATOM      3  C   UNL     1      87.528  64.266  91.685  0.00  0.00    +0.000 C 
ATOM      4  C   UNL     1      86.631  65.038  90.762  0.00  0.00    +0.000 C 
ATOM      5  C   UNL     1      86.920  65.252  89.468  0.00  0.00    +0.000 C 
ATOM      6  C   UNL     1      88.156  64.711  88.788  0.00  0.00    +0.000 C 
ATOM      7  C   UNL     1      88.862  63.642  89.633  0.00  0.00    +0.000 C 
ENDBRANCH   1   6
BRANCH   1   8
ATOM      8  S   UNL     1      85.635  64.443  87.032  0.00  0.00    +0.000 S 
BRANCH   8   9
ATOM      9  C   UNL     1      84.871  62.920  87.734  0.00  0.00    +0.000 C 
ATOM     10  C   UNL     1      83.834  63.233  88.822  0.00  0.00    +0.000 C 
ATOM     11  C   UNL     1      83.492  61.985  89.637  0.00  0.00    +0.000 C 
ATOM     12  C   UNL     1      84.735  61.408  90.318  0.00  0.00    +0.000 C 
ATOM     13  C   UNL     1      85.928  61.369  89.408  0.00  0.00    +0.000 C 
ATOM     14  C   UNL     1      85.982  62.033  88.243  0.00  0.00    +0.000 C 
ENDBRANCH   8   9
ENDBRANCH   1   8
TORSDOF 3
ENDMDL
