MODEL 1
REMARK VINA RESULT:      -4.7      0.000      0.000
REMARK  Name = *****
REMARK  5 active torsions:
REMARK  status: ('A' for Active; 'I' for Inactive)
REMARK    1  A    between atoms: C_1  and  O_2
REMARK    2  A    between atoms: O_2  and  C_3
REMARK    3  A    between atoms: C_3  and  C_4
REMARK    4  A    between atoms: C_4  and  C_12
REMARK    5  A    between atoms: C_5  and  C_6
REMARK                            x       y       z     vdW  Elec       q    Type
REMARK                         _______ _______ _______ _____ _____    ______ ____
ROOT
ATOM      1  C   UNL     1      89.484  68.862  85.628  0.00  0.00    +0.000 C 
ATOM      2  C   UNL     1      90.027  67.935  86.447  0.00  0.00    +0.000 C 
ENDROOT
BRANCH   1   3
ATOM      3  C   UNL     1      89.378  70.344  86.011  0.00  0.00    +0.000 C 
ATOM      4  C   UNL     1      89.305  70.559  87.533  0.00  0.00    +0.000 C 
ATOM      5  C   UNL     1      87.996  70.178  88.217  0.00  0.00    +0.000 C 
ATOM      6  C   UNL     1      86.890  71.200  87.985  0.00  0.00    +0.000 C 
ATOM      7  C   UNL     1      86.242  71.129  86.608  0.00  0.00    +0.000 C 
ATOM      8  C   UNL     1      87.098  71.439  85.421  0.00  0.00    +0.000 C 
ATOM      9  C   UNL     1      88.375  71.105  85.174  0.00  0.00    +0.000 C 
ENDBRANCH   1   3
BRANCH   2  10
ATOM     10  C   UNL     1      90.138  66.503  86.158  0.00  0.00    +0.000 A 
ATOM     11  C   UNL     1      91.247  66.019  85.458  0.00  0.00    +0.000 A 
ATOM     12  C   UNL     1      91.359  64.654  85.182  0.00  0.00    +0.000 A 
ATOM     13  C   UNL     1      90.368  63.771  85.609  0.00  0.00    +0.000 A 
ATOM     14  C   UNL     1      89.263  64.249  86.312  0.00  0.00    +0.000 A 
ATOM     15  C   UNL     1      89.148  65.612  86.588  0.00  0.00    +0.000 A 
ENDBRANCH   2  10
BRANCH   1  16
ATOM     16  C   UNL     1      88.938  68.533  84.255  0.00  0.00    +0.000 C 
BRANCH  16  18
ATOM     17  C   UNL     1      89.611  69.314  82.139  0.00  0.00    +0.000 C 
ATOM     18  O   UNL     1      90.009  68.623  83.315  0.00  0.00    +0.000 OA
ENDBRANCH  16  18
ENDBRANCH   1  16
TORSDOF 4
ENDMDL
