MODEL 1
REMARK VINA RESULT:      -4.4      0.000      0.000
REMARK  Name = *****
REMARK  4 active torsions:
REMARK  status: ('A' for Active; 'I' for Inactive)
REMARK    1  A    between atoms: C_4  and  C_7
REMARK    2  A    between atoms: C_7  and  C_8
REMARK    3  A    between atoms: C_8  and  C_9
REMARK    4  A    between atoms: C_9  and  C_10
REMARK                            x       y       z     vdW  Elec       q    Type
REMARK                         _______ _______ _______ _____ _____    ______ ____
ROOT
ATOM      1  C   UNL     1      97.927 116.575  78.622  0.00  0.00    +0.000 C 
ENDROOT
BRANCH   1   2
ATOM      2  C   UNL     1      97.032 115.816  77.641  0.00  0.00    +0.000 C 
BRANCH   2   6
ATOM      3  C   UNL     1      94.811 118.533  75.135  0.00  0.00    +0.000 A 
ATOM      4  C   UNL     1      95.923 117.866  74.626  0.00  0.00    +0.000 A 
ATOM      5  C   UNL     1      96.640 116.983  75.434  0.00  0.00    +0.000 A 
ATOM      6  C   UNL     1      96.247 116.755  76.760  0.00  0.00    +0.000 A 
ATOM      7  C   UNL     1      95.131 117.438  77.264  0.00  0.00    +0.000 A 
ATOM      8  C   UNL     1      94.416 118.320  76.454  0.00  0.00    +0.000 A 
ENDBRANCH   2   6
ENDBRANCH   1   2
BRANCH   1   9
ATOM      9  C   UNL     1      97.341 116.544  80.035  0.00  0.00    +0.000 C 
BRANCH   9  10
ATOM     10  C   UNL     1      97.104 117.934  80.572  0.00  0.00    +0.000 A 
ATOM     11  C   UNL     1      95.801 118.389  80.814  0.00  0.00    +0.000 A 
ATOM     12  C   UNL     1      95.581 119.682  81.296  0.00  0.00    +0.000 A 
ATOM     13  C   UNL     1      96.663 120.525  81.533  0.00  0.00    +0.000 A 
ATOM     14  C   UNL     1      97.964 120.090  81.290  0.00  0.00    +0.000 A 
ATOM     15  C   UNL     1      98.183 118.797  80.808  0.00  0.00    +0.000 A 
ATOM     16 CL   UNL     1      96.392 122.118  82.125  0.00  0.00    +0.000 Cl
ENDBRANCH   9  10
ENDBRANCH   1   9
TORSDOF 4
ENDMDL
