MODEL 1
REMARK VINA RESULT:      -4.1      0.000      0.000
REMARK  Name = *****
REMARK  5 active torsions:
REMARK  status: ('A' for Active; 'I' for Inactive)
REMARK    1  A    between atoms: C_4  and  C_7
REMARK    2  A    between atoms: C_7  and  C_8
REMARK    3  A    between atoms: C_8  and  C_9
REMARK    4  A    between atoms: C_9  and  O_11
REMARK    5  A    between atoms: O_11  and  C_12
REMARK                            x       y       z     vdW  Elec       q    Type
REMARK                         _______ _______ _______ _____ _____    ______ ____
ROOT
ATOM      1  C   UNL     1      89.340  70.371  87.536  0.00  0.00    +0.000 C 
ENDROOT
BRANCH   1   2
ATOM      2  C   UNL     1      89.607  69.366  86.438  0.00  0.00    +0.000 C 
ATOM      3  O   UNL     1      90.131  68.273  86.587  0.00  0.00    +0.000 OA
BRANCH   2   4
ATOM      4  O   UNL     1      89.174  69.877  85.250  0.00  0.00    +0.000 OA
BRANCH   4   5
ATOM      5  C   UNL     1      89.516  71.242  85.011  0.00  0.00    +0.000 C 
ATOM      6  C   UNL     1      88.407  71.999  84.288  0.00  0.00    +0.000 C 
ATOM      7  C   UNL     1      89.119  73.152  83.589  0.00  0.00    +0.000 C 
ATOM      8  C   UNL     1      90.589  72.740  83.477  0.00  0.00    +0.000 C 
ATOM      9  C   UNL     1      90.660  71.316  84.007  0.00  0.00    +0.000 C 
ENDBRANCH   4   5
ENDBRANCH   2   4
ENDBRANCH   1   2
BRANCH   1  10
ATOM     10  C   UNL     1      88.061  70.044  88.309  0.00  0.00    +0.000 C 
BRANCH  10  14
ATOM     11  C   UNL     1      84.205  72.128  88.165  0.00  0.00    +0.000 C 
ATOM     12  C   UNL     1      85.023  72.239  89.446  0.00  0.00    +0.000 C 
ATOM     13  C   UNL     1      86.109  71.167  89.522  0.00  0.00    +0.000 C 
ATOM     14  C   UNL     1      87.018  71.178  88.282  0.00  0.00    +0.000 C 
ATOM     15  C   UNL     1      86.177  71.076  86.997  0.00  0.00    +0.000 C 
ATOM     16  C   UNL     1      85.099  72.154  86.930  0.00  0.00    +0.000 C 
ENDBRANCH  10  14
ENDBRANCH   1  10
TORSDOF 5
ENDMDL
