REMARK  Name = *****
REMARK  5 active torsions:
REMARK  status: ('A' for Active; 'I' for Inactive)
REMARK    1  A    between atoms: C_1  and  C_2
REMARK    2  A    between atoms: C_5  and  S_8
REMARK    3  A    between atoms: S_8  and  O_10
REMARK    4  A    between atoms: O_10  and  C_11
REMARK    5  A    between atoms: C_11  and  C_12
REMARK                            x       y       z     vdW  Elec       q    Type
REMARK                         _______ _______ _______ _____ _____    ______ ____
ROOT
ATOM      1  S   UNL     1      -3.262   0.178  -0.395  0.00  0.00    +0.000 S 
ATOM      2  O   UNL     1      -4.076   0.035   0.856  0.00  0.00    +0.000 OA
ENDROOT
BRANCH   1   7
ATOM      3  C   UNL     1       2.629   0.063   1.259  0.00  0.00    +0.000 C 
ATOM      4  C   UNL     1       1.182   0.054   0.862  0.00  0.00    +0.000 A 
ATOM      5  C   UNL     1       0.821   0.180  -0.484  0.00  0.00    +0.000 A 
ATOM      6  C   UNL     1      -0.525   0.214  -0.854  0.00  0.00    +0.000 A 
ATOM      7  C   UNL     1      -1.528   0.134   0.118  0.00  0.00    +0.000 A 
ATOM      8  C   UNL     1      -1.171   0.014   1.464  0.00  0.00    +0.000 A 
ATOM      9  C   UNL     1       0.177  -0.017   1.834  0.00  0.00    +0.000 A 
ENDBRANCH   1   7
BRANCH   1  10
ATOM     10  O   UNL     1      -3.197   1.752  -0.730  0.00  0.00    +0.000 OA
BRANCH  10  11
ATOM     11  C   UNL     1      -4.239   2.210  -1.586  0.00  0.00    +0.000 C 
BRANCH  11  12
ATOM     12  C   UNL     1      -4.259   3.720  -1.565  0.00  0.00    +0.000 A 
ATOM     13  C   UNL     1      -4.333   4.373  -0.319  0.00  0.00    +0.000 A 
ATOM     14  C   UNL     1      -4.390   5.765  -0.235  0.00  0.00    +0.000 A 
ATOM     15  C   UNL     1      -4.380   6.532  -1.396  0.00  0.00    +0.000 A 
ATOM     16  C   UNL     1      -4.315   5.904  -2.639  0.00  0.00    +0.000 A 
ATOM     17  C   UNL     1      -4.259   4.508  -2.726  0.00  0.00    +0.000 A 
ATOM     18 CL   UNL     1      -4.199   3.819  -4.310  0.00  0.00    +0.000 Cl
ENDBRANCH  11  12
ENDBRANCH  10  11
ENDBRANCH   1  10
TORSDOF 4
