MODEL 1
REMARK VINA RESULT:      -4.6      0.000      0.000
REMARK  Name = *****
REMARK  4 active torsions:
REMARK  status: ('A' for Active; 'I' for Inactive)
REMARK    1  A    between atoms: C_1  and  C_2
REMARK    2  A    between atoms: C_7  and  N_8
REMARK    3  A    between atoms: N_10  and  C_11
REMARK    4  A    between atoms: N_10  and  C_12
REMARK                            x       y       z     vdW  Elec       q    Type
REMARK                         _______ _______ _______ _____ _____    ______ ____
ROOT
ATOM      1  N   UNL     1     102.707 126.994  83.164  0.00  0.00    +0.000 NA
ATOM      2  C   UNL     1     102.921 125.722  83.037  0.00  0.00    +0.000 C 
ATOM      3  N   UNL     1     104.143 125.083  83.095  0.00  0.00    +0.000 N 
ATOM      4  C   UNL     1     105.353 125.892  83.240  0.00  0.00    +0.000 C 
ENDROOT
BRANCH   1  11
ATOM      5  C   UNL     1     101.897 129.552  84.283  0.00  0.00    +0.000 C 
ATOM      6  C   UNL     1     100.930 128.621  83.608  0.00  0.00    +0.000 A 
ATOM      7  C   UNL     1      99.579 128.982  83.489  0.00  0.00    +0.000 A 
ATOM      8  C   UNL     1      98.667 128.127  82.868  0.00  0.00    +0.000 A 
ATOM      9  C   UNL     1      99.094 126.902  82.361  0.00  0.00    +0.000 A 
ATOM     10  C   UNL     1     100.437 126.539  82.468  0.00  0.00    +0.000 A 
ATOM     11  C   UNL     1     101.364 127.396  83.072  0.00  0.00    +0.000 A 
ENDBRANCH   1  11
BRANCH   3  12
ATOM     12  C   UNL     1     104.349 123.805  82.521  0.00  0.00    +0.000 A 
ATOM     13  C   UNL     1     104.407 122.643  83.311  0.00  0.00    +0.000 A 
ATOM     14  C   UNL     1     104.616 121.384  82.740  0.00  0.00    +0.000 A 
ATOM     15  C   UNL     1     104.777 121.260  81.364  0.00  0.00    +0.000 A 
ATOM     16  C   UNL     1     104.734 122.395  80.560  0.00  0.00    +0.000 A 
ATOM     17  C   UNL     1     104.522 123.653  81.135  0.00  0.00    +0.000 A 
ENDBRANCH   3  12
TORSDOF 2
ENDMDL
