MODEL 1
REMARK VINA RESULT:      -4.4      0.000      0.000
REMARK  Name = *****
REMARK  3 active torsions:
REMARK  status: ('A' for Active; 'I' for Inactive)
REMARK    1  A    between atoms: C_1  and  C_2
REMARK    2  A    between atoms: C_5  and  C_8
REMARK    3  A    between atoms: C_9  and  C_11
REMARK                            x       y       z     vdW  Elec       q    Type
REMARK                         _______ _______ _______ _____ _____    ______ ____
ROOT
ATOM      1  C   UNL     1      87.609  63.907  86.255  0.00  0.00    +0.000 C 
ATOM      2  C   UNL     1      87.358  62.972  87.428  0.00  0.00    +0.000 C 
ATOM      3  O   UNL     1      86.281  63.587  86.702  0.00  0.00    +0.000 OA
ENDROOT
BRANCH   1   8
ATOM      4  C   UNL     1      89.547  69.380  86.961  0.00  0.00    +0.000 C 
ATOM      5  C   UNL     1      89.053  67.973  86.807  0.00  0.00    +0.000 A 
ATOM      6  C   UNL     1      89.924  66.952  86.421  0.00  0.00    +0.000 A 
ATOM      7  C   UNL     1      89.452  65.647  86.250  0.00  0.00    +0.000 A 
ATOM      8  C   UNL     1      88.102  65.319  86.452  0.00  0.00    +0.000 A 
ATOM      9  C   UNL     1      87.236  66.364  86.816  0.00  0.00    +0.000 A 
ATOM     10  C   UNL     1      87.701  67.672  86.990  0.00  0.00    +0.000 A 
ENDBRANCH   1   8
BRANCH   2  11
ATOM     11  C   UNL     1      87.581  63.405  88.857  0.00  0.00    +0.000 A 
ATOM     12  C   UNL     1      88.871  63.502  89.409  0.00  0.00    +0.000 A 
ATOM     13  C   UNL     1      89.072  63.909  90.731  0.00  0.00    +0.000 A 
ATOM     14  C   UNL     1      87.978  64.232  91.526  0.00  0.00    +0.000 A 
ATOM     15  C   UNL     1      86.689  64.154  91.009  0.00  0.00    +0.000 A 
ATOM     16  C   UNL     1      86.497  63.747  89.685  0.00  0.00    +0.000 A 
ATOM     17 CL   UNL     1      88.218  64.733  93.154  0.00  0.00    +0.000 Cl
ENDBRANCH   2  11
TORSDOF 2
ENDMDL
