MODEL 1
REMARK VINA RESULT:      -4.5      0.000      0.000
REMARK  Name = *****
REMARK  2 active torsions:
REMARK  status: ('A' for Active; 'I' for Inactive)
REMARK    1  A    between atoms: C_4  and  S_7
REMARK    2  A    between atoms: S_7  and  P_8
REMARK                            x       y       z     vdW  Elec       q    Type
REMARK                         _______ _______ _______ _____ _____    ______ ____
ROOT
ATOM      1  P   UNL     1     102.881 126.225  82.586  0.00  0.00    +0.000 P 
ATOM      2  O   UNL     1     102.532 127.698  83.225  0.00  0.00    +0.000 OA
ATOM      3  C   UNL     1     101.184 127.920  83.174  0.00  0.00    +0.000 A 
ATOM      4  C   UNL     1     100.531 129.039  83.647  0.00  0.00    +0.000 A 
ATOM      5  C   UNL     1      99.141 129.087  83.498  0.00  0.00    +0.000 A 
ATOM      6  C   UNL     1      98.445 128.027  82.887  0.00  0.00    +0.000 A 
ATOM      7  C   UNL     1      99.129 126.903  82.413  0.00  0.00    +0.000 A 
ATOM      8  C   UNL     1     100.497 126.876  82.571  0.00  0.00    +0.000 A 
ATOM      9  O   UNL     1     101.332 125.870  82.168  0.00  0.00    +0.000 OA
ENDROOT
BRANCH   1  10
ATOM     10  S   UNL     1     103.585 126.866  80.694  0.00  0.00    +0.000 S 
BRANCH  10  14
ATOM     11  C   UNL     1     106.222 123.257  79.693  0.00  0.00    +0.000 A 
ATOM     12  C   UNL     1     105.054 123.081  80.434  0.00  0.00    +0.000 A 
ATOM     13  C   UNL     1     104.251 124.182  80.742  0.00  0.00    +0.000 A 
ATOM     14  C   UNL     1     104.618 125.464  80.318  0.00  0.00    +0.000 A 
ATOM     15  C   UNL     1     105.784 125.630  79.565  0.00  0.00    +0.000 A 
ATOM     16  C   UNL     1     106.587 124.529  79.257  0.00  0.00    +0.000 A 
ENDBRANCH  10  14
ENDBRANCH   1  10
TORSDOF 2
ENDMDL
