MODEL 1
REMARK VINA RESULT:      -4.8      0.000      0.000
REMARK  Name = *****
REMARK  4 active torsions:
REMARK  status: ('A' for Active; 'I' for Inactive)
REMARK    1  A    between atoms: C_1  and  C_2
REMARK    2  A    between atoms: C_3  and  N_9
REMARK    3  A    between atoms: C_4  and  C_8
REMARK    4  A    between atoms: C_10  and  C_11
REMARK                            x       y       z     vdW  Elec       q    Type
REMARK                         _______ _______ _______ _____ _____    ______ ____
ROOT
ATOM      1  N   UNL     1     102.917 126.189  82.815  0.00  0.00    +0.000 NA
ATOM      2  C   UNL     1     101.618 126.162  82.697  0.00  0.00    +0.000 C 
ENDROOT
BRANCH   1   5
ATOM      3  C   UNL     1     103.562 124.352  84.944  0.00  0.00    +0.000 C 
ATOM      4  C   UNL     1     103.892 124.059  83.506  0.00  0.00    +0.000 A 
ATOM      5  C   UNL     1     103.580 124.990  82.495  0.00  0.00    +0.000 A 
ATOM      6  C   UNL     1     103.897 124.696  81.153  0.00  0.00    +0.000 A 
ATOM      7  C   UNL     1     104.557 123.499  80.842  0.00  0.00    +0.000 A 
ATOM      8  C   UNL     1     104.884 122.590  81.847  0.00  0.00    +0.000 A 
ATOM      9  C   UNL     1     104.555 122.868  83.172  0.00  0.00    +0.000 A 
ATOM     10  C   UNL     1     103.567 125.675  80.060  0.00  0.00    +0.000 C 
ENDBRANCH   1   5
BRANCH   2  11
ATOM     11  C   UNL     1     100.761 127.343  82.995  0.00  0.00    +0.000 C 
ATOM     12  C   UNL     1     101.358 128.428  83.670  0.00  0.00    +0.000 C 
ATOM     13  C   UNL     1     100.616 129.560  83.980  0.00  0.00    +0.000 C 
ATOM     14  C   UNL     1      99.281 129.609  83.614  0.00  0.00    +0.000 C 
ATOM     15  C   UNL     1      98.697 128.525  82.942  0.00  0.00    +0.000 C 
ATOM     16  C   UNL     1      99.394 127.345  82.598  0.00  0.00    +0.000 C 
ATOM     17  O   UNL     1      98.802 126.392  81.984  0.00  0.00    +0.000 OA
ENDBRANCH   2  11
TORSDOF 2
ENDMDL
