MODEL 1
REMARK VINA RESULT:      -4.7      0.000      0.000
REMARK  Name = *****
REMARK  6 active torsions:
REMARK  status: ('A' for Active; 'I' for Inactive)
REMARK    1  A    between atoms: C_1  and  C_2
REMARK    2  A    between atoms: C_5  and  C_8
REMARK    3  A    between atoms: C_8  and  C_18
REMARK    4  A    between atoms: N_9  and  C_10
REMARK    5  A    between atoms: C_11  and  C_17
REMARK    6  A    between atoms: C_13  and  C_16
REMARK                            x       y       z     vdW  Elec       q    Type
REMARK                         _______ _______ _______ _____ _____    ______ ____
ROOT
ATOM      1  C   UNL     1      87.699  63.874  86.466  0.00  0.00    +0.000 C 
ATOM      2  N   UNL     1      87.459  63.045  87.438  0.00  0.00    +0.000 NA
ATOM      3  C   UNL     1      87.447  63.379  85.060  0.00  0.00    +0.000 C 
ENDROOT
BRANCH   2   4
ATOM      4  C   UNL     1      87.615  63.421  88.782  0.00  0.00    +0.000 A 
ATOM      5  C   UNL     1      86.491  63.744  89.563  0.00  0.00    +0.000 A 
ATOM      6  C   UNL     1      86.667  64.140  90.900  0.00  0.00    +0.000 A 
ATOM      7  C   UNL     1      87.948  64.245  91.458  0.00  0.00    +0.000 A 
ATOM      8  C   UNL     1      89.060  63.938  90.670  0.00  0.00    +0.000 A 
ATOM      9  C   UNL     1      88.893  63.545  89.340  0.00  0.00    +0.000 A 
ATOM     10  C   UNL     1      88.118  64.637  92.896  0.00  0.00    +0.000 C 
ATOM     11  C   UNL     1      85.110  63.681  88.975  0.00  0.00    +0.000 C 
ENDBRANCH   2   4
BRANCH   1  16
ATOM     12  C   UNL     1      89.545  69.340  86.874  0.00  0.00    +0.000 C 
ATOM     13  C   UNL     1      89.075  67.917  86.797  0.00  0.00    +0.000 A 
ATOM     14  C   UNL     1      89.958  66.901  86.410  0.00  0.00    +0.000 A 
ATOM     15  C   UNL     1      89.519  65.581  86.307  0.00  0.00    +0.000 A 
ATOM     16  C   UNL     1      88.188  65.271  86.589  0.00  0.00    +0.000 A 
ATOM     17  C   UNL     1      87.291  66.278  86.955  0.00  0.00    +0.000 A 
ATOM     18  C   UNL     1      87.735  67.598  87.055  0.00  0.00    +0.000 A 
ENDBRANCH   1  16
TORSDOF 2
ENDMDL
