MODEL 1
REMARK VINA RESULT:      -4.8      0.000      0.000
REMARK  Name = *****
REMARK  4 active torsions:
REMARK  status: ('A' for Active; 'I' for Inactive)
REMARK    1  A    between atoms: C_1  and  C_2
REMARK    2  A    between atoms: C_5  and  C_8
REMARK    3  A    between atoms: C_8  and  C_10
REMARK    4  A    between atoms: C_10  and  C_11
REMARK                            x       y       z     vdW  Elec       q    Type
REMARK                         _______ _______ _______ _____ _____    ______ ____
ROOT
ATOM      1  C   UNL     1     103.326 127.057  81.562  0.00  0.00    +0.000 C 
ATOM      2  O   UNL     1     103.410 127.709  80.519  0.00  0.00    +0.000 OA
ENDROOT
BRANCH   1   7
ATOM      3  C   UNL     1     105.185 121.550  81.433  0.00  0.00    +0.000 C 
ATOM      4  C   UNL     1     104.682 122.963  81.476  0.00  0.00    +0.000 A 
ATOM      5  C   UNL     1     104.685 123.753  80.323  0.00  0.00    +0.000 A 
ATOM      6  C   UNL     1     104.240 125.077  80.371  0.00  0.00    +0.000 A 
ATOM      7  C   UNL     1     103.796 125.636  81.576  0.00  0.00    +0.000 A 
ATOM      8  C   UNL     1     103.808 124.851  82.735  0.00  0.00    +0.000 A 
ATOM      9  C   UNL     1     104.253 123.525  82.683  0.00  0.00    +0.000 A 
ENDBRANCH   1   7
BRANCH   1  10
ATOM     10  C   UNL     1     102.750 127.683  82.819  0.00  0.00    +0.000 C 
BRANCH  10  11
ATOM     11  C   UNL     1     101.239 127.696  82.878  0.00  0.00    +0.000 A 
ATOM     12  C   UNL     1     100.510 126.618  82.352  0.00  0.00    +0.000 A 
ATOM     13  C   UNL     1      99.116 126.605  82.421  0.00  0.00    +0.000 A 
ATOM     14  C   UNL     1      98.449 127.662  83.027  0.00  0.00    +0.000 A 
ATOM     15  C   UNL     1      99.151 128.729  83.573  0.00  0.00    +0.000 A 
ATOM     16  C   UNL     1     100.546 128.743  83.508  0.00  0.00    +0.000 A 
ATOM     17  F   UNL     1      97.112 127.648  83.092  0.00  0.00    +0.000 F 
ENDBRANCH  10  11
ENDBRANCH   1  10
TORSDOF 3
ENDMDL
