REMARK  Name = *****
REMARK  4 active torsions:
REMARK  status: ('A' for Active; 'I' for Inactive)
REMARK    1  A    between atoms: C_4  and  C_7
REMARK    2  A    between atoms: C_7  and  C_8
REMARK    3  A    between atoms: C_8  and  O_10
REMARK    4  A    between atoms: O_10  and  C_11
REMARK                            x       y       z     vdW  Elec       q    Type
REMARK                         _______ _______ _______ _____ _____    ______ ____
ROOT
ATOM      1  C   UNL     1       3.730  -1.458  -0.644  0.00  0.00    +0.000 C 
ATOM      2  O   UNL     1       3.805  -2.492  -1.293  0.00  0.00    +0.000 OA
ENDROOT
BRANCH   1   3
ATOM      3  C   UNL     1       2.806  -0.313  -0.984  0.00  0.00    +0.000 C 
BRANCH   3   7
ATOM      4  C   UNL     1      -1.328  -0.030   0.423  0.00  0.00    +0.000 C 
ATOM      5  C   UNL     1      -0.589  -1.347   0.634  0.00  0.00    +0.000 C 
ATOM      6  C   UNL     1       0.655  -1.444  -0.247  0.00  0.00    +0.000 C 
ATOM      7  C   UNL     1       1.596  -0.245  -0.042  0.00  0.00    +0.000 C 
ATOM      8  C   UNL     1       0.838   1.075  -0.256  0.00  0.00    +0.000 C 
ATOM      9  C   UNL     1      -0.405   1.167   0.626  0.00  0.00    +0.000 C 
ENDBRANCH   3   7
ENDBRANCH   1   3
BRANCH   1  10
ATOM     10  O   UNL     1       4.445  -1.141   0.507  0.00  0.00    +0.000 OA
BRANCH  10  11
ATOM     11  C   UNL     1       5.333  -2.129   0.945  0.00  0.00    +0.000 A 
ATOM     12  C   UNL     1       6.459  -2.467   0.194  0.00  0.00    +0.000 A 
ATOM     13  C   UNL     1       7.349  -3.419   0.692  0.00  0.00    +0.000 A 
ATOM     14  C   UNL     1       7.114  -4.005   1.937  0.00  0.00    +0.000 A 
ATOM     15  C   UNL     1       5.997  -3.645   2.693  0.00  0.00    +0.000 A 
ATOM     16  C   UNL     1       5.102  -2.695   2.198  0.00  0.00    +0.000 A 
ATOM     17 CL   UNL     1       8.216  -5.175   2.551  0.00  0.00    +0.000 Cl
ENDBRANCH  10  11
ENDBRANCH   1  10
TORSDOF 4
