MODEL 1
REMARK VINA RESULT:      -4.9      0.000      0.000
REMARK  Name = *****
REMARK  4 active torsions:
REMARK  status: ('A' for Active; 'I' for Inactive)
REMARK    1  A    between atoms: C_1  and  C_2
REMARK    2  A    between atoms: C_7  and  C_8
REMARK    3  A    between atoms: C_9  and  C_10
REMARK    4  A    between atoms: C_13  and  C_16
REMARK                            x       y       z     vdW  Elec       q    Type
REMARK                         _______ _______ _______ _____ _____    ______ ____
ROOT
ATOM      1  C   UNL     1     101.744 127.582  83.326  0.00  0.00    +0.000 C 
ATOM      2  C   UNL     1     102.430 127.456  82.179  0.00  0.00    +0.000 C 
ENDROOT
BRANCH   1   9
ATOM      3  C   UNL     1      98.854 128.063  82.863  0.00  0.00    +0.000 C 
ATOM      4  C   UNL     1      99.744 129.089  83.510  0.00  0.00    +0.000 A 
ATOM      5  C   UNL     1      99.195 130.325  83.890  0.00  0.00    +0.000 A 
ATOM      6  C   UNL     1      99.986 131.305  84.490  0.00  0.00    +0.000 A 
ATOM      7  C   UNL     1     101.338 131.065  84.712  0.00  0.00    +0.000 A 
ATOM      8  C   UNL     1     101.899 129.845  84.336  0.00  0.00    +0.000 A 
ATOM      9  C   UNL     1     101.114 128.845  83.739  0.00  0.00    +0.000 A 
ENDBRANCH   1   9
BRANCH   2  10
ATOM     10  C   UNL     1     103.088 126.215  81.746  0.00  0.00    +0.000 A 
ATOM     11  C   UNL     1     103.581 126.044  80.444  0.00  0.00    +0.000 A 
ATOM     12  C   UNL     1     104.228 124.861  80.078  0.00  0.00    +0.000 A 
ATOM     13  C   UNL     1     104.396 123.843  81.018  0.00  0.00    +0.000 A 
ATOM     14  C   UNL     1     103.927 124.004  82.323  0.00  0.00    +0.000 A 
ATOM     15  C   UNL     1     103.280 125.190  82.683  0.00  0.00    +0.000 A 
BRANCH  13  16
ATOM     16  C   UNL     1     105.079 122.588  80.642  0.00  0.00    +0.000 C 
ATOM     17  O   UNL     1     104.533 121.496  80.731  0.00  0.00    +0.000 OA
ENDBRANCH  13  16
ENDBRANCH   2  10
TORSDOF 3
ENDMDL
