MODEL 1
REMARK VINA RESULT:      -4.7      0.000      0.000
REMARK  Name = *****
REMARK  3 active torsions:
REMARK  status: ('A' for Active; 'I' for Inactive)
REMARK    1  A    between atoms: C_5  and  C_7
REMARK    2  A    between atoms: C_7  and  C_8
REMARK    3  A    between atoms: C_8  and  C_10
REMARK                            x       y       z     vdW  Elec       q    Type
REMARK                         _______ _______ _______ _____ _____    ______ ____
ROOT
ATOM      1  C   UNL     1     100.821 126.518  83.132  0.00  0.00    +0.000 C 
ENDROOT
BRANCH   1   6
ATOM      2  C   UNL     1     103.854 128.265  81.402  0.00  0.00    +0.000 C 
ATOM      3  C   UNL     1     104.616 127.026  80.948  0.00  0.00    +0.000 C 
ATOM      4  C   UNL     1     103.667 125.912  80.507  0.00  0.00    +0.000 C 
ATOM      5  C   UNL     1     102.616 125.567  81.568  0.00  0.00    +0.000 C 
ATOM      6  C   UNL     1     101.856 126.829  82.031  0.00  0.00    +0.000 C 
ATOM      7  C   UNL     1     102.824 127.940  82.481  0.00  0.00    +0.000 C 
ATOM      8 CL   UNL     1     103.399 124.706  82.937  0.00  0.00    +0.000 Cl
ENDBRANCH   1   6
BRANCH   1   9
ATOM      9  C   UNL     1      99.504 127.248  82.916  0.00  0.00    +0.000 C 
ATOM     10  O   UNL     1      98.703 126.908  82.047  0.00  0.00    +0.000 OA
BRANCH   9  11
ATOM     11  C   UNL     1      99.169 128.403  83.800  0.00  0.00    +0.000 A 
ATOM     12  C   UNL     1      99.566 129.685  83.398  0.00  0.00    +0.000 A 
ATOM     13  C   UNL     1      99.290 130.792  84.201  0.00  0.00    +0.000 A 
ATOM     14  C   UNL     1      98.610 130.627  85.405  0.00  0.00    +0.000 A 
ATOM     15  C   UNL     1      98.200 129.356  85.806  0.00  0.00    +0.000 A 
ATOM     16  C   UNL     1      98.475 128.244  85.006  0.00  0.00    +0.000 A 
ENDBRANCH   9  11
ENDBRANCH   1   9
TORSDOF 3
ENDMDL
