MODEL 1
REMARK VINA RESULT:      -4.5      0.000      0.000
REMARK  Name = *****
REMARK  3 active torsions:
REMARK  status: ('A' for Active; 'I' for Inactive)
REMARK    1  A    between atoms: C_2  and  C_3
REMARK    2  A    between atoms: C_4  and  C_9
REMARK    3  A    between atoms: C_10  and  C_11
REMARK                            x       y       z     vdW  Elec       q    Type
REMARK                         _______ _______ _______ _____ _____    ______ ____
ROOT
ATOM      1  C   UNL     1     101.576 128.217  83.240  0.00  0.00    +0.000 C 
ATOM      2  C   UNL     1     101.288 127.115  82.500  0.00  0.00    +0.000 C 
ATOM      3  C   UNL     1      99.869 126.623  82.295  0.00  0.00    +0.000 C 
ATOM      4  C   UNL     1      98.854 127.226  83.261  0.00  0.00    +0.000 C 
ATOM      5  C   UNL     1      99.059 128.726  83.362  0.00  0.00    +0.000 C 
ATOM      6  C   UNL     1     100.465 129.047  83.865  0.00  0.00    +0.000 C 
ENDROOT
BRANCH   1   8
ATOM      7  C   UNL     1     103.324 129.813  84.072  0.00  0.00    +0.000 C 
ATOM      8  C   UNL     1     102.949 128.675  83.472  0.00  0.00    +0.000 C 
ENDBRANCH   1   8
BRANCH   2   9
ATOM      9  C   UNL     1     102.313 126.325  81.885  0.00  0.00    +0.000 C 
ATOM     10  C   UNL     1     103.175 125.674  81.359  0.00  0.00    +0.000 C 
BRANCH  10  11
ATOM     11  C   UNL     1     104.181 124.894  80.743  0.00  0.00    +0.000 C 
ATOM     12  C   UNL     1     104.375 123.594  80.991  0.00  0.00    +0.000 C 
ATOM     13  C   UNL     1     105.521 123.050  80.206  0.00  0.00    +0.000 C 
ATOM     14  C   UNL     1     105.779 124.147  79.175  0.00  0.00    +0.000 C 
ATOM     15  C   UNL     1     105.168 125.425  79.753  0.00  0.00    +0.000 C 
ENDBRANCH  10  11
ENDBRANCH   2   9
TORSDOF 3
ENDMDL
