MODEL 1
REMARK VINA RESULT:      -5.1      0.000      0.000
REMARK  Name = *****
REMARK  4 active torsions:
REMARK  status: ('A' for Active; 'I' for Inactive)
REMARK    1  A    between atoms: C_1  and  C_2
REMARK    2  A    between atoms: C_5  and  C_8
REMARK    3  A    between atoms: C_9  and  C_10
REMARK    4  A    between atoms: C_15  and  C_16
REMARK                            x       y       z     vdW  Elec       q    Type
REMARK                         _______ _______ _______ _____ _____    ______ ____
ROOT
ATOM      1  C   UNL     1     102.439 127.145  82.121  0.00  0.00    +0.000 C 
ATOM      2  C   UNL     1     101.785 127.238  83.290  0.00  0.00    +0.000 C 
ENDROOT
BRANCH   1   7
ATOM      3  C   UNL     1     105.408 122.424  80.556  0.00  0.00    +0.000 C 
ATOM      4  C   UNL     1     104.611 123.636  80.941  0.00  0.00    +0.000 A 
ATOM      5  C   UNL     1     104.379 124.657  80.015  0.00  0.00    +0.000 A 
ATOM      6  C   UNL     1     103.664 125.801  80.383  0.00  0.00    +0.000 A 
ATOM      7  C   UNL     1     103.168 125.946  81.685  0.00  0.00    +0.000 A 
ATOM      8  C   UNL     1     103.431 124.937  82.619  0.00  0.00    +0.000 A 
ATOM      9  C   UNL     1     104.146 123.792  82.251  0.00  0.00    +0.000 A 
ENDBRANCH   1   7
BRANCH   2  10
ATOM     10  C   UNL     1     101.086 128.467  83.690  0.00  0.00    +0.000 A 
ATOM     11  C   UNL     1     101.849 129.551  84.153  0.00  0.00    +0.000 A 
ATOM     12  C   UNL     1     101.237 130.752  84.525  0.00  0.00    +0.000 A 
ATOM     13  C   UNL     1      99.853 130.885  84.437  0.00  0.00    +0.000 A 
ATOM     14  C   UNL     1      99.080 129.819  83.979  0.00  0.00    +0.000 A 
ATOM     15  C   UNL     1      99.690 128.611  83.606  0.00  0.00    +0.000 A 
BRANCH  15  16
ATOM     16  C   UNL     1      98.821 127.503  83.144  0.00  0.00    +0.000 C 
ATOM     17  O   UNL     1      98.406 127.440  81.992  0.00  0.00    +0.000 OA
ENDBRANCH  15  16
ENDBRANCH   2  10
TORSDOF 3
ENDMDL
