MODEL 1
REMARK VINA RESULT:      -4.4      0.000      0.000
REMARK  Name = *****
REMARK  6 active torsions:
REMARK  status: ('A' for Active; 'I' for Inactive)
REMARK    1  A    between atoms: C_1  and  O_2
REMARK    2  A    between atoms: O_2  and  C_3
REMARK    3  A    between atoms: C_3  and  C_5
REMARK    4  A    between atoms: C_10  and  N_11
REMARK    5  A    between atoms: N_11  and  C_12
REMARK    6  A    between atoms: C_12  and  C_13
REMARK                            x       y       z     vdW  Elec       q    Type
REMARK                         _______ _______ _______ _____ _____    ______ ____
ROOT
ATOM      1  C   UNL     1      88.989  68.702  86.891  0.00  0.00    +0.000 A 
ATOM      2  C   UNL     1      89.447  69.881  87.503  0.00  0.00    +0.000 A 
ATOM      3  C   UNL     1      88.664  70.522  88.463  0.00  0.00    +0.000 A 
ATOM      4  C   UNL     1      87.427  69.986  88.814  0.00  0.00    +0.000 A 
ATOM      5  C   UNL     1      86.984  68.802  88.217  0.00  0.00    +0.000 A 
ATOM      6  C   UNL     1      87.767  68.128  87.269  0.00  0.00    +0.000 A 
ENDROOT
BRANCH   1   7
ATOM      7  C   UNL     1      89.862  68.082  85.879  0.00  0.00    +0.000 C 
ATOM      8  O   UNL     1      89.770  68.316  84.681  0.00  0.00    +0.000 OA
BRANCH   7  10
ATOM      9  C   UNL     1      90.826  65.977  85.627  0.00  0.00    +0.000 C 
ATOM     10  O   UNL     1      90.622  67.118  86.451  0.00  0.00    +0.000 OA
ENDBRANCH   7  10
ENDBRANCH   1   7
BRANCH   6  11
ATOM     11  N   UNL     1      87.283  66.931  86.718  0.00  0.00    +0.000 NA
BRANCH  11  12
ATOM     12  C   UNL     1      86.621  66.079  87.446  0.00  0.00    +0.000 C 
ATOM     13  O   UNL     1      85.436  65.712  87.351  0.00  0.00    +0.000 OA
BRANCH  12  14
ATOM     14  C   UNL     1      87.208  65.332  88.604  0.00  0.00    +0.000 A 
ATOM     15  C   UNL     1      88.375  64.574  88.432  0.00  0.00    +0.000 A 
ATOM     16  C   UNL     1      88.884  63.828  89.496  0.00  0.00    +0.000 A 
ATOM     17  C   UNL     1      88.226  63.834  90.728  0.00  0.00    +0.000 A 
ATOM     18  C   UNL     1      87.061  64.587  90.901  0.00  0.00    +0.000 A 
ATOM     19  C   UNL     1      86.551  65.336  89.840  0.00  0.00    +0.000 A 
ENDBRANCH  12  14
ENDBRANCH  11  12
ENDBRANCH   6  11
TORSDOF 5
ENDMDL
