MODEL 1
REMARK VINA RESULT:      -4.4      0.000      0.000
REMARK  Name = *****
REMARK  2 active torsions:
REMARK  status: ('A' for Active; 'I' for Inactive)
REMARK    1  A    between atoms: C_7  and  C_8
REMARK    2  A    between atoms: C_9  and  C_10
REMARK                            x       y       z     vdW  Elec       q    Type
REMARK                         _______ _______ _______ _____ _____    ______ ____
ROOT
ATOM      1  C   UNL     1     102.867 125.387  81.873  0.00  0.00    +0.000 C 
ATOM      2  C   UNL     1     102.023 126.164  82.229  0.00  0.00    +0.000 C 
ENDROOT
BRANCH   1   9
ATOM      3  C   UNL     1     106.311 126.106  80.967  0.00  0.00    +0.000 C 
ATOM      4  C   UNL     1     105.099 126.201  80.028  0.00  0.00    +0.000 C 
ATOM      5  C   UNL     1     104.520 124.772  80.061  0.00  0.00    +0.000 C 
ATOM      6  C   UNL     1     105.805 123.941  80.119  0.00  0.00    +0.000 C 
ATOM      7  C   UNL     1     106.302 124.628  81.391  0.00  0.00    +0.000 C 
ATOM      8  C   UNL     1     105.127 124.401  82.363  0.00  0.00    +0.000 C 
ATOM      9  C   UNL     1     103.897 124.439  81.436  0.00  0.00    +0.000 C 
ENDBRANCH   1   9
BRANCH   2  10
ATOM     10  C   UNL     1     101.021 127.097  82.644  0.00  0.00    +0.000 A 
ATOM     11  C   UNL     1     101.387 128.265  83.318  0.00  0.00    +0.000 A 
ATOM     12  C   UNL     1     100.407 129.174  83.724  0.00  0.00    +0.000 A 
ATOM     13  C   UNL     1      99.063 128.918  83.454  0.00  0.00    +0.000 A 
ATOM     14  C   UNL     1      98.696 127.752  82.780  0.00  0.00    +0.000 A 
ATOM     15  C   UNL     1      99.675 126.842  82.375  0.00  0.00    +0.000 A 
ENDBRANCH   2  10
TORSDOF 2
ENDMDL
