REMARK  Name = *****
REMARK  4 active torsions:
REMARK  status: ('A' for Active; 'I' for Inactive)
REMARK    1  A    between atoms: C_1  and  C_2
REMARK    2  A    between atoms: C_5  and  C_8
REMARK    3  A    between atoms: N_9  and  C_10
REMARK    4  A    between atoms: C_15  and  S_16
REMARK                            x       y       z     vdW  Elec       q    Type
REMARK                         _______ _______ _______ _____ _____    ______ ____
ROOT
ATOM      1  C   UNL     1      -3.386   0.186  -0.267  0.00  0.00    +0.000 C 
ATOM      2  N   UNL     1      -4.109   1.086   0.324  0.00  0.00    +0.000 NA
ENDROOT
BRANCH   1   7
ATOM      3  C   UNL     1       2.383   0.135   0.019  0.00  0.00    +0.000 C 
ATOM      4  C   UNL     1       0.885   0.169  -0.076  0.00  0.00    +0.000 A 
ATOM      5  C   UNL     1       0.157   1.156   0.601  0.00  0.00    +0.000 A 
ATOM      6  C   UNL     1      -1.238   1.172   0.542  0.00  0.00    +0.000 A 
ATOM      7  C   UNL     1      -1.913   0.191  -0.188  0.00  0.00    +0.000 A 
ATOM      8  C   UNL     1      -1.199  -0.807  -0.854  0.00  0.00    +0.000 A 
ATOM      9  C   UNL     1       0.197  -0.819  -0.792  0.00  0.00    +0.000 A 
ENDBRANCH   1   7
BRANCH   2  10
ATOM     10  C   UNL     1      -5.503   0.957   0.158  0.00  0.00    +0.000 A 
ATOM     11  C   UNL     1      -6.217   0.118   1.022  0.00  0.00    +0.000 A 
ATOM     12  C   UNL     1      -7.599  -0.030   0.893  0.00  0.00    +0.000 A 
ATOM     13  C   UNL     1      -8.283   0.670  -0.098  0.00  0.00    +0.000 A 
ATOM     14  C   UNL     1      -7.587   1.524  -0.956  0.00  0.00    +0.000 A 
ATOM     15  C   UNL     1      -6.201   1.679  -0.830  0.00  0.00    +0.000 A 
BRANCH  15  16
ATOM     16  S   UNL     1      -5.360   2.799  -1.942  0.00  0.00    +0.000 S 
ATOM     17  H   UNL     1      -4.030   2.807  -1.657  0.00  0.00    +0.000 HD
ENDBRANCH  15  16
ENDBRANCH   2  10
TORSDOF 3
