MODEL 1
REMARK VINA RESULT:      -4.6      0.000      0.000
REMARK  Name = *****
REMARK  6 active torsions:
REMARK  status: ('A' for Active; 'I' for Inactive)
REMARK    1  A    between atoms: C_1  and  C_2
REMARK    2  A    between atoms: C_3  and  C_9
REMARK    3  A    between atoms: C_4  and  C_8
REMARK    4  A    between atoms: C_9  and  C_10
REMARK    5  A    between atoms: C_10  and  C_11
REMARK    6  A    between atoms: C_11  and  C_13
REMARK                            x       y       z     vdW  Elec       q    Type
REMARK                         _______ _______ _______ _____ _____    ______ ____
ROOT
ATOM      1  C   UNL     1      88.550  70.388  86.060  0.00  0.00    +0.000 C 
ENDROOT
BRANCH   1   4
ATOM      2  C   UNL     1      88.421  70.440  89.049  0.00  0.00    +0.000 C 
ATOM      3  C   UNL     1      87.292  70.965  88.202  0.00  0.00    +0.000 A 
ATOM      4  C   UNL     1      87.350  70.975  86.785  0.00  0.00    +0.000 A 
ATOM      5  C   UNL     1      86.261  71.511  86.052  0.00  0.00    +0.000 A 
ATOM      6  C   UNL     1      85.153  72.031  86.737  0.00  0.00    +0.000 A 
ATOM      7  C   UNL     1      85.104  72.021  88.127  0.00  0.00    +0.000 A 
ATOM      8  C   UNL     1      86.167  71.495  88.853  0.00  0.00    +0.000 A 
ATOM      9  C   UNL     1      86.264  71.583  84.547  0.00  0.00    +0.000 C 
ENDBRANCH   1   4
BRANCH   1  10
ATOM     10  C   UNL     1      88.291  68.946  85.618  0.00  0.00    +0.000 C 
BRANCH  10  11
ATOM     11  C   UNL     1      89.075  67.951  86.453  0.00  0.00    +0.000 C 
ATOM     12  O   UNL     1      90.303  67.972  86.516  0.00  0.00    +0.000 OA
BRANCH  11  13
ATOM     13  C   UNL     1      88.323  66.915  87.225  0.00  0.00    +0.000 A 
ATOM     14  C   UNL     1      88.755  65.585  87.315  0.00  0.00    +0.000 A 
ATOM     15  C   UNL     1      88.015  64.654  88.049  0.00  0.00    +0.000 A 
ATOM     16  C   UNL     1      86.844  65.042  88.697  0.00  0.00    +0.000 A 
ATOM     17  C   UNL     1      86.406  66.363  88.613  0.00  0.00    +0.000 A 
ATOM     18  C   UNL     1      87.143  67.295  87.879  0.00  0.00    +0.000 A 
ENDBRANCH  11  13
ENDBRANCH  10  11
ENDBRANCH   1  10
TORSDOF 4
ENDMDL
