MODEL 1
REMARK VINA RESULT:      -4.7      0.000      0.000
REMARK  Name = *****
REMARK  6 active torsions:
REMARK  status: ('A' for Active; 'I' for Inactive)
REMARK    1  A    between atoms: C_1  and  C_2
REMARK    2  A    between atoms: C_4  and  C_19
REMARK    3  A    between atoms: C_6  and  N_8
REMARK    4  A    between atoms: N_8  and  C_9
REMARK    5  A    between atoms: C_9  and  C_10
REMARK    6  A    between atoms: C_16  and  C_18
REMARK                            x       y       z     vdW  Elec       q    Type
REMARK                         _______ _______ _______ _____ _____    ______ ____
ROOT
ATOM      1  N   UNL     1      87.281  63.943  86.678  0.00  0.00    +0.000 N 
ATOM      2  C   UNL     1      86.051  64.105  86.015  0.00  0.00    +0.000 C 
ATOM      3  O   UNL     1      85.863  64.825  85.032  0.00  0.00    +0.000 OA
ATOM      4  C   UNL     1      84.875  63.310  86.539  0.00  0.00    +0.000 C 
ENDROOT
BRANCH   1  10
ATOM      5  C   UNL     1      91.894  64.375  84.777  0.00  0.00    +0.000 C 
ATOM      6  C   UNL     1      90.696  65.003  85.426  0.00  0.00    +0.000 A 
ATOM      7  C   UNL     1      90.698  66.359  85.760  0.00  0.00    +0.000 A 
ATOM      8  C   UNL     1      89.592  66.931  86.389  0.00  0.00    +0.000 A 
ATOM      9  C   UNL     1      88.468  66.134  86.667  0.00  0.00    +0.000 A 
ATOM     10  C   UNL     1      88.431  64.766  86.355  0.00  0.00    +0.000 A 
ATOM     11  C   UNL     1      89.573  64.219  85.744  0.00  0.00    +0.000 A 
ATOM     12  C   UNL     1      89.573  68.396  86.716  0.00  0.00    +0.000 C 
ENDBRANCH   1  10
BRANCH   1  13
ATOM     13  C   UNL     1      87.456  62.894  87.697  0.00  0.00    +0.000 C 
BRANCH  13  14
ATOM     14  C   UNL     1      87.702  63.380  89.114  0.00  0.00    +0.000 A 
ATOM     15  C   UNL     1      88.983  63.545  89.660  0.00  0.00    +0.000 A 
ATOM     16  C   UNL     1      89.146  64.003  90.971  0.00  0.00    +0.000 A 
ATOM     17  C   UNL     1      88.032  64.303  91.752  0.00  0.00    +0.000 A 
ATOM     18  C   UNL     1      86.754  64.148  91.224  0.00  0.00    +0.000 A 
ATOM     19  C   UNL     1      86.590  63.691  89.914  0.00  0.00    +0.000 A 
ENDBRANCH  13  14
ENDBRANCH   1  13
TORSDOF 3
ENDMDL
