MODEL 1
REMARK VINA RESULT:      -4.7      0.000      0.000
REMARK  Name = *****
REMARK  3 active torsions:
REMARK  status: ('A' for Active; 'I' for Inactive)
REMARK    1  A    between atoms: C_4  and  C_7
REMARK    2  A    between atoms: C_7  and  C_8
REMARK    3  A    between atoms: C_8  and  C_9
REMARK                            x       y       z     vdW  Elec       q    Type
REMARK                         _______ _______ _______ _____ _____    ______ ____
ROOT
ATOM      1  C   UNL     1      88.740  70.321  86.941  0.00  0.00    +0.000 C 
ATOM      2  F   UNL     1      89.977  70.901  86.827  0.00  0.00    +0.000 F 
ENDROOT
BRANCH   1   6
ATOM      3  C   UNL     1      89.033  66.006  86.853  0.00  0.00    +0.000 A 
ATOM      4  C   UNL     1      87.934  66.619  87.450  0.00  0.00    +0.000 A 
ATOM      5  C   UNL     1      87.841  68.012  87.477  0.00  0.00    +0.000 A 
ATOM      6  C   UNL     1      88.846  68.806  86.908  0.00  0.00    +0.000 A 
ATOM      7  C   UNL     1      89.946  68.175  86.306  0.00  0.00    +0.000 A 
ATOM      8  C   UNL     1      90.039  66.783  86.281  0.00  0.00    +0.000 A 
ENDBRANCH   1   6
BRANCH   1   9
ATOM      9  C   UNL     1      87.826  70.869  85.825  0.00  0.00    +0.000 C 
ATOM     10  F   UNL     1      87.588  69.870  84.915  0.00  0.00    +0.000 F 
BRANCH   9  11
ATOM     11  C   UNL     1      86.524  71.427  86.369  0.00  0.00    +0.000 A 
ATOM     12  C   UNL     1      85.539  71.915  85.497  0.00  0.00    +0.000 A 
ATOM     13  C   UNL     1      84.339  72.426  85.996  0.00  0.00    +0.000 A 
ATOM     14  C   UNL     1      84.110  72.453  87.370  0.00  0.00    +0.000 A 
ATOM     15  C   UNL     1      85.079  71.972  88.247  0.00  0.00    +0.000 A 
ATOM     16  C   UNL     1      86.280  71.462  87.751  0.00  0.00    +0.000 A 
ENDBRANCH   9  11
ENDBRANCH   1   9
TORSDOF 3
ENDMDL
