MODEL 1
REMARK VINA RESULT:      -4.7      0.000      0.000
REMARK  Name = *****
REMARK  4 active torsions:
REMARK  status: ('A' for Active; 'I' for Inactive)
REMARK    1  A    between atoms: C_1  and  C_2
REMARK    2  A    between atoms: C_4  and  C_8
REMARK    3  A    between atoms: C_8  and  O_10
REMARK    4  A    between atoms: O_10  and  C_11
REMARK                            x       y       z     vdW  Elec       q    Type
REMARK                         _______ _______ _______ _____ _____    ______ ____
ROOT
ATOM      1  C   UNL     1     103.164 126.680  81.748  0.00  0.00    +0.000 C 
ATOM      2  O   UNL     1     103.194 127.436  80.788  0.00  0.00    +0.000 OA
ENDROOT
BRANCH   1   6
ATOM      3  C   UNL     1     104.510 122.362  84.017  0.00  0.00    +0.000 C 
ATOM      4  C   UNL     1     104.369 123.203  82.782  0.00  0.00    +0.000 A 
ATOM      5  C   UNL     1     103.834 124.499  82.864  0.00  0.00    +0.000 A 
ATOM      6  C   UNL     1     103.730 125.301  81.719  0.00  0.00    +0.000 A 
ATOM      7  C   UNL     1     104.174 124.802  80.487  0.00  0.00    +0.000 A 
ATOM      8  C   UNL     1     104.721 123.522  80.403  0.00  0.00    +0.000 A 
ATOM      9  C   UNL     1     104.822 122.728  81.546  0.00  0.00    +0.000 A 
ENDBRANCH   1   6
BRANCH   1  10
ATOM     10  O   UNL     1     102.625 126.939  82.996  0.00  0.00    +0.000 OA
BRANCH  10  11
ATOM     11  C   UNL     1     101.313 127.415  82.951  0.00  0.00    +0.000 A 
ATOM     12  C   UNL     1     101.005 128.670  83.474  0.00  0.00    +0.000 A 
ATOM     13  C   UNL     1      99.680 129.094  83.462  0.00  0.00    +0.000 A 
ATOM     14  C   UNL     1      98.674 128.270  82.950  0.00  0.00    +0.000 A 
ATOM     15  C   UNL     1      98.995 127.006  82.448  0.00  0.00    +0.000 A 
ATOM     16  C   UNL     1     100.320 126.571  82.454  0.00  0.00    +0.000 A 
ATOM     17 CL   UNL     1      99.272 130.643  84.092  0.00  0.00    +0.000 Cl
ENDBRANCH  10  11
ENDBRANCH   1  10
TORSDOF 3
ENDMDL
