MODEL 1
REMARK VINA RESULT:      -4.6      0.000      0.000
REMARK  Name = *****
REMARK  2 active torsions:
REMARK  status: ('A' for Active; 'I' for Inactive)
REMARK    1  A    between atoms: C_3  and  N_8
REMARK    2  A    between atoms: C_9  and  C_10
REMARK                            x       y       z     vdW  Elec       q    Type
REMARK                         _______ _______ _______ _____ _____    ______ ____
ROOT
ATOM      1  N   UNL     1     101.762 125.925  82.847  0.00  0.00    +0.000 NA
ATOM      2  C   UNL     1     102.566 126.007  81.834  0.00  0.00    +0.000 C 
ENDROOT
BRANCH   1   5
ATOM      3  C   UNL     1      98.613 127.871  82.650  0.00  0.00    +0.000 A 
ATOM      4  C   UNL     1      99.534 126.827  82.529  0.00  0.00    +0.000 A 
ATOM      5  C   UNL     1     100.846 126.976  82.990  0.00  0.00    +0.000 A 
ATOM      6  C   UNL     1     101.241 128.191  83.552  0.00  0.00    +0.000 A 
ATOM      7  C   UNL     1     100.320 129.225  83.670  0.00  0.00    +0.000 A 
ATOM      8  C   UNL     1      99.009 129.077  83.227  0.00  0.00    +0.000 A 
ATOM      9  F   UNL     1     100.700 130.387  84.217  0.00  0.00    +0.000 F 
ENDBRANCH   1   5
BRANCH   2  10
ATOM     10  C   UNL     1     103.580 124.971  81.560  0.00  0.00    +0.000 A 
ATOM     11  C   UNL     1     104.141 124.833  80.286  0.00  0.00    +0.000 A 
ATOM     12  C   UNL     1     105.098 123.844  80.049  0.00  0.00    +0.000 A 
ATOM     13  C   UNL     1     105.490 122.999  81.087  0.00  0.00    +0.000 A 
ATOM     14  C   UNL     1     104.933 123.133  82.359  0.00  0.00    +0.000 A 
ATOM     15  C   UNL     1     103.975 124.121  82.599  0.00  0.00    +0.000 A 
ATOM     16 CL   UNL     1     106.669 121.780  80.796  0.00  0.00    +0.000 Cl
ENDBRANCH   2  10
TORSDOF 2
ENDMDL
