MODEL 1
REMARK VINA RESULT:      -4.8      0.000      0.000
REMARK  Name = *****
REMARK  3 active torsions:
REMARK  status: ('A' for Active; 'I' for Inactive)
REMARK    1  A    between atoms: C_3  and  C_4
REMARK    2  A    between atoms: C_9  and  N_10
REMARK    3  A    between atoms: C_11  and  C_12
REMARK                            x       y       z     vdW  Elec       q    Type
REMARK                         _______ _______ _______ _____ _____    ______ ____
ROOT
ATOM      1  C   UNL     1     101.229 128.269  83.616  0.00  0.00    +0.000 A 
ATOM      2  C   UNL     1     100.205 129.235  83.654  0.00  0.00    +0.000 A 
ATOM      3  C   UNL     1      98.934 128.981  83.135  0.00  0.00    +0.000 A 
ATOM      4  C   UNL     1      98.654 127.747  82.559  0.00  0.00    +0.000 A 
ATOM      5  C   UNL     1      99.652 126.776  82.495  0.00  0.00    +0.000 A 
ATOM      6  C   UNL     1     100.936 127.031  82.998  0.00  0.00    +0.000 A 
ENDROOT
BRANCH   1   9
ATOM      7  C   UNL     1     103.043 130.015  84.347  0.00  0.00    +0.000 C 
ATOM      8  C   UNL     1     103.688 129.149  83.309  0.00  0.00    +0.000 C 
ATOM      9  C   UNL     1     102.599 128.579  84.191  0.00  0.00    +0.000 C 
ENDBRANCH   1   9
BRANCH   6  10
ATOM     10  N   UNL     1     101.914 126.023  82.899  0.00  0.00    +0.000 NA
ATOM     11  C   UNL     1     102.524 125.943  81.759  0.00  0.00    +0.000 C 
BRANCH  11  12
ATOM     12  C   UNL     1     103.584 124.945  81.515  0.00  0.00    +0.000 A 
ATOM     13  C   UNL     1     104.030 124.109  82.544  0.00  0.00    +0.000 A 
ATOM     14  C   UNL     1     105.037 123.175  82.292  0.00  0.00    +0.000 A 
ATOM     15  C   UNL     1     105.590 123.080  81.016  0.00  0.00    +0.000 A 
ATOM     16  C   UNL     1     105.146 123.912  79.987  0.00  0.00    +0.000 A 
ATOM     17  C   UNL     1     104.141 124.851  80.236  0.00  0.00    +0.000 A 
ATOM     18 CL   UNL     1     106.829 121.928  80.704  0.00  0.00    +0.000 Cl
ENDBRANCH  11  12
ENDBRANCH   6  10
TORSDOF 3
ENDMDL
