MODEL 1
REMARK VINA RESULT:      -5.2      0.000      0.000
REMARK  Name = *****
REMARK  2 active torsions:
REMARK  status: ('A' for Active; 'I' for Inactive)
REMARK    1  A    between atoms: C_4  and  C_7
REMARK    2  A    between atoms: C_7  and  C_8
REMARK                            x       y       z     vdW  Elec       q    Type
REMARK                         _______ _______ _______ _____ _____    ______ ____
ROOT
ATOM      1  C   UNL     1     101.207 126.922  82.888  0.00  0.00    +0.000 C 
ATOM      2  C   UNL     1      99.778 126.665  82.430  0.00  0.00    +0.000 C 
ATOM      3  C   UNL     1      98.949 127.686  82.696  0.00  0.00    +0.000 C 
ATOM      4  C   UNL     1      99.723 128.722  83.357  0.00  0.00    +0.000 A 
ATOM      5  C   UNL     1      99.315 129.956  83.829  0.00  0.00    +0.000 A 
ATOM      6  C   UNL     1     100.266 130.776  84.442  0.00  0.00    +0.000 A 
ATOM      7  C   UNL     1     101.599 130.352  84.575  0.00  0.00    +0.000 A 
ATOM      8  C   UNL     1     102.003 129.103  84.096  0.00  0.00    +0.000 A 
ATOM      9  C   UNL     1     101.054 128.300  83.483  0.00  0.00    +0.000 A 
ENDROOT
BRANCH   1  10
ATOM     10  C   UNL     1     102.231 126.890  81.742  0.00  0.00    +0.000 C 
BRANCH  10  14
ATOM     11  C   UNL     1     104.684 123.339  81.742  0.00  0.00    +0.000 A 
ATOM     12  C   UNL     1     104.451 124.025  80.552  0.00  0.00    +0.000 A 
ATOM     13  C   UNL     1     103.654 125.171  80.549  0.00  0.00    +0.000 A 
ATOM     14  C   UNL     1     103.084 125.642  81.740  0.00  0.00    +0.000 A 
ATOM     15  C   UNL     1     103.324 124.944  82.931  0.00  0.00    +0.000 A 
ATOM     16  C   UNL     1     104.121 123.798  82.931  0.00  0.00    +0.000 A 
ENDBRANCH  10  14
ENDBRANCH   1  10
TORSDOF 2
ENDMDL
