MODEL 1
REMARK VINA RESULT:      -4.4      0.000      0.000
REMARK  Name = *****
REMARK  3 active torsions:
REMARK  status: ('A' for Active; 'I' for Inactive)
REMARK    1  A    between atoms: C_6  and  N_7
REMARK    2  A    between atoms: N_7  and  S_8
REMARK    3  A    between atoms: S_8  and  C_10
REMARK                            x       y       z     vdW  Elec       q    Type
REMARK                         _______ _______ _______ _____ _____    ______ ____
ROOT
ATOM      1  N   UNL     1     104.587 124.245  79.837  0.00  0.00    +0.000 N 
ATOM      2  H   UNL     1     104.017 123.657  79.291  0.00  0.00    +0.000 HD
ENDROOT
BRANCH   1   8
ATOM      3  C   UNL     1     103.955 126.625  80.168  0.00  0.00    +0.000 A 
ATOM      4  C   UNL     1     103.364 127.614  80.965  0.00  0.00    +0.000 A 
ATOM      5  C   UNL     1     102.797 127.271  82.188  0.00  0.00    +0.000 A 
ATOM      6  C   UNL     1     102.827 125.952  82.625  0.00  0.00    +0.000 A 
ATOM      7  C   UNL     1     103.419 124.969  81.825  0.00  0.00    +0.000 A 
ATOM      8  C   UNL     1     103.971 125.281  80.569  0.00  0.00    +0.000 A 
ATOM      9 CL   UNL     1     102.072 128.483  83.168  0.00  0.00    +0.000 Cl
ENDBRANCH   1   8
BRANCH   1  10
ATOM     10  S   UNL     1     106.235 123.964  79.846  0.00  0.00    +0.000 S 
ATOM     11  O   UNL     1     106.911 124.849  80.849  0.00  0.00    +0.000 OA
BRANCH  10  12
ATOM     12  C   UNL     1     106.066 122.339  80.622  0.00  0.00    +0.000 A 
ATOM     13  C   UNL     1     107.212 121.593  80.925  0.00  0.00    +0.000 A 
ATOM     14  C   UNL     1     107.094 120.335  81.522  0.00  0.00    +0.000 A 
ATOM     15  C   UNL     1     105.830 119.824  81.819  0.00  0.00    +0.000 A 
ATOM     16  C   UNL     1     104.684 120.561  81.526  0.00  0.00    +0.000 A 
ATOM     17  C   UNL     1     104.802 121.819  80.928  0.00  0.00    +0.000 A 
ATOM     18 CL   UNL     1     105.687 118.275  82.553  0.00  0.00    +0.000 Cl
ENDBRANCH  10  12
ENDBRANCH   1  10
TORSDOF 3
ENDMDL
