REMARK  Name = *****
REMARK  4 active torsions:
REMARK  status: ('A' for Active; 'I' for Inactive)
REMARK    1  A    between atoms: C_1  and  C_2
REMARK    2  A    between atoms: C_5  and  C_8
REMARK    3  A    between atoms: C_8  and  S_10
REMARK    4  A    between atoms: S_10  and  C_12
REMARK                            x       y       z     vdW  Elec       q    Type
REMARK                         _______ _______ _______ _____ _____    ______ ____
ROOT
ATOM      1  C   UNL     1      -3.384   0.222  -0.223  0.00  0.00    +0.000 C 
ATOM      2  C   UNL     1      -4.053  -0.939  -0.146  0.00  0.00    +0.000 C 
ENDROOT
BRANCH   1   7
ATOM      3  C   UNL     1       2.376   0.343   0.289  0.00  0.00    +0.000 C 
ATOM      4  C   UNL     1       0.881   0.337   0.162  0.00  0.00    +0.000 A 
ATOM      5  C   UNL     1       0.275   0.544  -1.083  0.00  0.00    +0.000 A 
ATOM      6  C   UNL     1      -1.116   0.506  -1.208  0.00  0.00    +0.000 A 
ATOM      7  C   UNL     1      -1.921   0.251  -0.092  0.00  0.00    +0.000 A 
ATOM      8  C   UNL     1      -1.314   0.022   1.149  0.00  0.00    +0.000 A 
ATOM      9  C   UNL     1       0.077   0.062   1.274  0.00  0.00    +0.000 A 
ENDBRANCH   1   7
BRANCH   1  10
ATOM     10  S   UNL     1      -4.266   1.752  -0.550  0.00  0.00    +0.000 S 
ATOM     11  O   UNL     1      -5.731   1.452  -0.402  0.00  0.00    +0.000 OA
BRANCH  10  12
ATOM     12  C   UNL     1      -3.802   2.713   0.910  0.00  0.00    +0.000 A 
ATOM     13  C   UNL     1      -2.629   3.477   0.897  0.00  0.00    +0.000 A 
ATOM     14  C   UNL     1      -2.261   4.219   2.021  0.00  0.00    +0.000 A 
ATOM     15  C   UNL     1      -3.066   4.207   3.159  0.00  0.00    +0.000 A 
ATOM     16  C   UNL     1      -4.240   3.455   3.176  0.00  0.00    +0.000 A 
ATOM     17  C   UNL     1      -4.608   2.711   2.054  0.00  0.00    +0.000 A 
ENDBRANCH  10  12
ENDBRANCH   1  10
TORSDOF 3
