MODEL 1
REMARK VINA RESULT:      -4.5      0.000      0.000
REMARK  Name = *****
REMARK  3 active torsions:
REMARK  status: ('A' for Active; 'I' for Inactive)
REMARK    1  A    between atoms: C_4  and  C_7
REMARK    2  A    between atoms: C_8  and  S_9
REMARK    3  A    between atoms: S_9  and  C_10
REMARK                            x       y       z     vdW  Elec       q    Type
REMARK                         _______ _______ _______ _____ _____    ______ ____
ROOT
ATOM      1  C   UNL     1      89.761  66.814  86.411  0.00  0.00    +0.000 C 
ATOM      2  C   UNL     1      88.644  66.182  86.795  0.00  0.00    +0.000 C 
ENDROOT
BRANCH   1   6
ATOM      3  C   UNL     1      89.798  70.935  85.262  0.00  0.00    +0.000 A 
ATOM      4  C   UNL     1      89.993  69.952  84.295  0.00  0.00    +0.000 A 
ATOM      5  C   UNL     1      89.991  68.602  84.657  0.00  0.00    +0.000 A 
ATOM      6  C   UNL     1      89.803  68.223  85.993  0.00  0.00    +0.000 A 
ATOM      7  C   UNL     1      89.590  69.221  86.953  0.00  0.00    +0.000 A 
ATOM      8  C   UNL     1      89.593  70.569  86.591  0.00  0.00    +0.000 A 
ENDBRANCH   1   6
BRANCH   2   9
ATOM      9  S   UNL     1      88.681  64.513  87.266  0.00  0.00    +0.000 S 
BRANCH   9  10
ATOM     10  C   UNL     1      87.914  64.650  88.870  0.00  0.00    +0.000 A 
ATOM     11  C   UNL     1      86.771  65.442  89.024  0.00  0.00    +0.000 A 
ATOM     12  C   UNL     1      86.161  65.568  90.275  0.00  0.00    +0.000 A 
ATOM     13  C   UNL     1      86.693  64.909  91.384  0.00  0.00    +0.000 A 
ATOM     14  C   UNL     1      87.836  64.124  91.241  0.00  0.00    +0.000 A 
ATOM     15  C   UNL     1      88.440  64.001  89.991  0.00  0.00    +0.000 A 
ATOM     16  F   UNL     1      89.537  63.236  89.886  0.00  0.00    +0.000 F 
ENDBRANCH   9  10
ENDBRANCH   2   9
TORSDOF 3
ENDMDL
