MODEL 1
REMARK VINA RESULT:      -4.5      0.000      0.000
REMARK  Name = *****
REMARK  7 active torsions:
REMARK  status: ('A' for Active; 'I' for Inactive)
REMARK    1  A    between atoms: C_1  and  C_2
REMARK    2  A    between atoms: C_3  and  S_9
REMARK    3  A    between atoms: C_4  and  C_8
REMARK    4  A    between atoms: S_9  and  C_10
REMARK    5  A    between atoms: C_10  and  C_11
REMARK    6  A    between atoms: C_14  and  O_17
REMARK    7  A    between atoms: O_17  and  C_18
REMARK                            x       y       z     vdW  Elec       q    Type
REMARK                         _______ _______ _______ _____ _____    ______ ____
ROOT
ATOM      1  S   UNL     1      88.210  70.241  87.738  0.00  0.00    +0.000 S 
ENDROOT
BRANCH   1   4
ATOM      2  C   UNL     1      85.926  71.618  89.387  0.00  0.00    +0.000 C 
ATOM      3  C   UNL     1      85.816  71.668  87.885  0.00  0.00    +0.000 A 
ATOM      4  C   UNL     1      86.791  71.095  87.034  0.00  0.00    +0.000 A 
ATOM      5  C   UNL     1      86.652  71.208  85.630  0.00  0.00    +0.000 A 
ATOM      6  C   UNL     1      85.525  71.860  85.102  0.00  0.00    +0.000 A 
ATOM      7  C   UNL     1      84.557  72.404  85.940  0.00  0.00    +0.000 A 
ATOM      8  C   UNL     1      84.704  72.313  87.321  0.00  0.00    +0.000 A 
ATOM      9  C   UNL     1      87.673  70.659  84.667  0.00  0.00    +0.000 C 
ENDBRANCH   1   4
BRANCH   1  10
ATOM     10  C   UNL     1      87.462  68.590  87.932  0.00  0.00    +0.000 C 
BRANCH  10  11
ATOM     11  C   UNL     1      88.305  67.523  87.282  0.00  0.00    +0.000 A 
ATOM     12  C   UNL     1      89.414  67.866  86.497  0.00  0.00    +0.000 A 
ATOM     13  C   UNL     1      90.206  66.876  85.902  0.00  0.00    +0.000 A 
ATOM     14  C   UNL     1      89.900  65.529  86.087  0.00  0.00    +0.000 A 
ATOM     15  C   UNL     1      88.798  65.182  86.872  0.00  0.00    +0.000 A 
ATOM     16  C   UNL     1      88.008  66.167  87.470  0.00  0.00    +0.000 A 
BRANCH  14  17
ATOM     17  O   UNL     1      90.586  64.466  85.566  0.00  0.00    +0.000 OA
ATOM     18  C   UNL     1      91.828  64.754  84.936  0.00  0.00    +0.000 C 
ENDBRANCH  14  17
ENDBRANCH  10  11
ENDBRANCH   1  10
TORSDOF 4
ENDMDL
