MODEL 1
REMARK VINA RESULT:      -4.7      0.000      0.000
REMARK  Name = *****
REMARK  5 active torsions:
REMARK  status: ('A' for Active; 'I' for Inactive)
REMARK    1  A    between atoms: C_1  and  C_2
REMARK    2  A    between atoms: C_5  and  S_8
REMARK    3  A    between atoms: S_8  and  S_9
REMARK    4  A    between atoms: S_9  and  C_12
REMARK    5  A    between atoms: C_17  and  C_18
REMARK                            x       y       z     vdW  Elec       q    Type
REMARK                         _______ _______ _______ _____ _____    ______ ____
ROOT
ATOM      1  S   UNL     1      87.945  70.886  85.207  0.00  0.00    +0.000 S 
ATOM      2  O   UNL     1      88.518  72.035  84.529  0.00  0.00    +0.000 OA
ATOM      3  O   UNL     1      87.628  69.679  84.472  0.00  0.00    +0.000 OA
ENDROOT
BRANCH   1   4
ATOM      4  C   UNL     1      86.487  71.474  86.069  0.00  0.00    +0.000 A 
ATOM      5  C   UNL     1      86.510  71.345  87.471  0.00  0.00    +0.000 A 
ATOM      6  C   UNL     1      85.430  71.774  88.240  0.00  0.00    +0.000 A 
ATOM      7  C   UNL     1      84.326  72.343  87.616  0.00  0.00    +0.000 A 
ATOM      8  C   UNL     1      84.302  72.486  86.227  0.00  0.00    +0.000 A 
ATOM      9  C   UNL     1      85.377  72.055  85.427  0.00  0.00    +0.000 A 
ATOM     10  C   UNL     1      85.270  72.256  83.942  0.00  0.00    +0.000 C 
ENDBRANCH   1   4
BRANCH   1  11
ATOM     11  S   UNL     1      89.221  70.358  86.786  0.00  0.00    +0.000 S 
BRANCH  11  16
ATOM     12  C   UNL     1      88.670  64.290  86.946  0.00  0.00    +0.000 C 
ATOM     13  C   UNL     1      88.828  65.782  86.928  0.00  0.00    +0.000 A 
ATOM     14  C   UNL     1      89.932  66.371  86.304  0.00  0.00    +0.000 A 
ATOM     15  C   UNL     1      90.062  67.763  86.257  0.00  0.00    +0.000 A 
ATOM     16  C   UNL     1      89.076  68.585  86.810  0.00  0.00    +0.000 A 
ATOM     17  C   UNL     1      87.971  67.997  87.432  0.00  0.00    +0.000 A 
ATOM     18  C   UNL     1      87.843  66.605  87.483  0.00  0.00    +0.000 A 
ENDBRANCH  11  16
ENDBRANCH   1  11
TORSDOF 3
ENDMDL
