REMARK  Name = *****
REMARK  5 active torsions:
REMARK  status: ('A' for Active; 'I' for Inactive)
REMARK    1  A    between atoms: C_1  and  N_2
REMARK    2  A    between atoms: N_2  and  C_3
REMARK    3  A    between atoms: N_2  and  N_17
REMARK    4  A    between atoms: C_6  and  C_9
REMARK    5  A    between atoms: C_10  and  C_11
REMARK                            x       y       z     vdW  Elec       q    Type
REMARK                         _______ _______ _______ _____ _____    ______ ____
ROOT
ATOM      1  C   UNL     1       3.123   0.157  -1.255  0.00  0.00    +0.000 A 
ATOM      2  C   UNL     1       2.584   1.090  -2.161  0.00  0.00    +0.000 A 
ATOM      3  C   UNL     1       3.244   1.438  -3.351  0.00  0.00    +0.000 A 
ATOM      4  C   UNL     1       4.478   0.874  -3.678  0.00  0.00    +0.000 A 
ATOM      5  C   UNL     1       5.026  -0.064  -2.803  0.00  0.00    +0.000 A 
ATOM      6  C   UNL     1       4.364  -0.408  -1.615  0.00  0.00    +0.000 A 
ENDROOT
BRANCH   1   8
ATOM      7  C   UNL     1       1.138   0.349   0.175  0.00  0.00    +0.000 C 
ATOM      8  N   UNL     1       2.478  -0.217  -0.035  0.00  0.00    +0.000 N 
BRANCH   8   9
ATOM      9  N   UNL     1       3.116  -1.016   0.862  0.00  0.00    +0.000 NA
ATOM     10  O   UNL     1       2.481  -1.224   1.901  0.00  0.00    +0.000 OA
ENDBRANCH   8   9
ENDBRANCH   1   8
BRANCH   4  11
ATOM     11  C   UNL     1       5.183   1.184  -4.929  0.00  0.00    +0.000 C 
ATOM     12  C   UNL     1       5.222   2.407  -5.482  0.00  0.00    +0.000 C 
BRANCH  12  13
ATOM     13  C   UNL     1       5.942   2.718  -6.726  0.00  0.00    +0.000 A 
ATOM     14  C   UNL     1       5.953   1.844  -7.821  0.00  0.00    +0.000 A 
ATOM     15  C   UNL     1       6.623   2.189  -8.999  0.00  0.00    +0.000 A 
ATOM     16  C   UNL     1       7.278   3.415  -9.096  0.00  0.00    +0.000 A 
ATOM     17  C   UNL     1       7.261   4.298  -8.019  0.00  0.00    +0.000 A 
ATOM     18  C   UNL     1       6.591   3.954  -6.842  0.00  0.00    +0.000 A 
ENDBRANCH  12  13
ENDBRANCH   4  11
TORSDOF 4
