MODEL 1
REMARK VINA RESULT:      -4.2      0.000      0.000
REMARK  Name = *****
REMARK  2 active torsions:
REMARK  status: ('A' for Active; 'I' for Inactive)
REMARK    1  A    between atoms: C_7  and  S_8
REMARK    2  A    between atoms: S_8  and  C_9
REMARK                            x       y       z     vdW  Elec       q    Type
REMARK                         _______ _______ _______ _____ _____    ______ ____
ROOT
ATOM      1  C   UNL     1      90.306  70.112  84.192  0.00  0.00    +0.000 C 
ATOM      2  C   UNL     1      89.610  68.773  84.426  0.00  0.00    +0.000 C 
ATOM      3  C   UNL     1      89.818  68.292  85.860  0.00  0.00    +0.000 C 
ATOM      4  C   UNL     1      89.588  69.355  86.891  0.00  0.00    +0.000 C 
ATOM      5  C   UNL     1      89.566  70.811  86.493  0.00  0.00    +0.000 C 
ATOM      6  C   UNL     1      89.693  71.212  85.054  0.00  0.00    +0.000 C 
ATOM      7  C   UNL     1      88.292  70.124  86.956  0.00  0.00    +0.000 C 
ENDROOT
BRANCH   7   8
ATOM      8  S   UNL     1      87.605  70.554  88.502  0.00  0.00    +0.000 S 
BRANCH   8   9
ATOM      9  C   UNL     1      86.145  71.402  87.925  0.00  0.00    +0.000 A 
ATOM     10  C   UNL     1      85.905  71.574  86.558  0.00  0.00    +0.000 A 
ATOM     11  C   UNL     1      84.755  72.237  86.123  0.00  0.00    +0.000 A 
ATOM     12  C   UNL     1      83.838  72.726  87.053  0.00  0.00    +0.000 A 
ATOM     13  C   UNL     1      84.067  72.549  88.416  0.00  0.00    +0.000 A 
ATOM     14  C   UNL     1      85.217  71.886  88.852  0.00  0.00    +0.000 A 
ENDBRANCH   8   9
ENDBRANCH   7   8
TORSDOF 2
ENDMDL
