MODEL 1
REMARK VINA RESULT:      -5.6      0.000      0.000
REMARK  Name = *****
REMARK  1 active torsions:
REMARK  status: ('A' for Active; 'I' for Inactive)
REMARK    1  A    between atoms: C_3  and  C_12
REMARK                            x       y       z     vdW  Elec       q    Type
REMARK                         _______ _______ _______ _____ _____    ______ ____
ROOT
ATOM      1  C   UNL     1     103.593 125.319  80.360  0.00  0.00    +0.000 C 
ATOM      2  C   UNL     1     102.970 126.301  81.342  0.00  0.00    +0.000 C 
ATOM      3  C   UNL     1     101.729 125.954  82.141  0.00  0.00    +0.000 C 
ATOM      4  C   UNL     1     103.105 125.767  82.757  0.00  0.00    +0.000 C 
ATOM      5  C   UNL     1     103.834 124.470  82.602  0.00  0.00    +0.000 A 
ATOM      6  C   UNL     1     104.117 124.214  81.246  0.00  0.00    +0.000 A 
ATOM      7  C   UNL     1     104.788 123.067  80.848  0.00  0.00    +0.000 A 
ATOM      8  C   UNL     1     105.180 122.161  81.832  0.00  0.00    +0.000 A 
ATOM      9  C   UNL     1     104.903 122.401  83.187  0.00  0.00    +0.000 A 
ATOM     10  C   UNL     1     104.225 123.561  83.576  0.00  0.00    +0.000 A 
ATOM     11 CL   UNL     1     106.015 120.725  81.381  0.00  0.00    +0.000 Cl
ENDROOT
BRANCH   3  12
ATOM     12  C   UNL     1     100.829 127.058  82.643  0.00  0.00    +0.000 A 
ATOM     13  C   UNL     1     101.352 128.182  83.304  0.00  0.00    +0.000 A 
ATOM     14  C   UNL     1     100.524 129.213  83.756  0.00  0.00    +0.000 A 
ATOM     15  C   UNL     1      99.149 129.144  83.547  0.00  0.00    +0.000 A 
ATOM     16  C   UNL     1      98.606 128.048  82.885  0.00  0.00    +0.000 A 
ATOM     17  C   UNL     1      99.440 127.020  82.435  0.00  0.00    +0.000 A 
ENDBRANCH   3  12
TORSDOF 1
ENDMDL
