MODEL 1
REMARK VINA RESULT:      -4.9      0.000      0.000
REMARK  Name = *****
REMARK  4 active torsions:
REMARK  status: ('A' for Active; 'I' for Inactive)
REMARK    1  A    between atoms: C_1  and  C_2
REMARK    2  A    between atoms: C_5  and  C_8
REMARK    3  A    between atoms: C_8  and  C_9
REMARK    4  A    between atoms: C_9  and  C_10
REMARK                            x       y       z     vdW  Elec       q    Type
REMARK                         _______ _______ _______ _____ _____    ______ ____
ROOT
ATOM      1  C   UNL     1      88.020  70.516  88.208  0.00  0.00    +0.000 C 
ATOM      2  F   UNL     1      88.779  71.364  88.969  0.00  0.00    +0.000 F 
ENDROOT
BRANCH   1   7
ATOM      3  C   UNL     1      83.088  73.092  86.464  0.00  0.00    +0.000 C 
ATOM      4  C   UNL     1      84.369  72.451  86.911  0.00  0.00    +0.000 A 
ATOM      5  C   UNL     1      85.303  71.999  85.972  0.00  0.00    +0.000 A 
ATOM      6  C   UNL     1      86.480  71.372  86.389  0.00  0.00    +0.000 A 
ATOM      7  C   UNL     1      86.736  71.174  87.753  0.00  0.00    +0.000 A 
ATOM      8  C   UNL     1      85.792  71.614  88.689  0.00  0.00    +0.000 A 
ATOM      9  C   UNL     1      84.617  72.242  88.272  0.00  0.00    +0.000 A 
ENDBRANCH   1   7
BRANCH   1  10
ATOM     10  C   UNL     1      88.864  70.066  87.007  0.00  0.00    +0.000 C 
BRANCH  10  11
ATOM     11  C   UNL     1      88.963  68.560  86.889  0.00  0.00    +0.000 A 
ATOM     12  C   UNL     1      87.953  67.737  87.410  0.00  0.00    +0.000 A 
ATOM     13  C   UNL     1      88.046  66.348  87.298  0.00  0.00    +0.000 A 
ATOM     14  C   UNL     1      89.148  65.783  86.671  0.00  0.00    +0.000 A 
ATOM     15  C   UNL     1      90.162  66.580  86.152  0.00  0.00    +0.000 A 
ATOM     16  C   UNL     1      90.070  67.969  86.260  0.00  0.00    +0.000 A 
ATOM     17  F   UNL     1      89.238  64.451  86.564  0.00  0.00    +0.000 F 
ENDBRANCH  10  11
ENDBRANCH   1  10
TORSDOF 3
ENDMDL
