MODEL 1
REMARK VINA RESULT:      -4.1      0.000      0.000
REMARK  Name = *****
REMARK  3 active torsions:
REMARK  status: ('A' for Active; 'I' for Inactive)
REMARK    1  A    between atoms: C_4  and  C_6
REMARK    2  A    between atoms: C_6  and  N_8
REMARK    3  A    between atoms: N_8  and  C_9
REMARK                            x       y       z     vdW  Elec       q    Type
REMARK                         _______ _______ _______ _____ _____    ______ ____
ROOT
ATOM      1  N   UNL     1      89.202  63.824  87.748  0.00  0.00    +0.000 N 
ATOM      2  H   UNL     1      90.104  63.611  88.079  0.00  0.00    +0.000 HD
ENDROOT
BRANCH   1   3
ATOM      3  C   UNL     1      88.185  63.476  88.664  0.00  0.00    +0.000 A 
ATOM      4  C   UNL     1      87.171  62.541  88.451  0.00  0.00    +0.000 A 
ATOM      5  C   UNL     1      86.219  62.274  89.445  0.00  0.00    +0.000 A 
ATOM      6  C   UNL     1      86.278  62.937  90.667  0.00  0.00    +0.000 A 
ATOM      7  C   UNL     1      87.286  63.863  90.905  0.00  0.00    +0.000 A 
ATOM      8  C   UNL     1      88.233  64.126  89.910  0.00  0.00    +0.000 A 
ATOM      9 CL   UNL     1      85.110  62.606  91.883  0.00  0.00    +0.000 Cl
ENDBRANCH   1   3
BRANCH   1  10
ATOM     10  C   UNL     1      89.212  64.401  86.484  0.00  0.00    +0.000 C 
ATOM     11  S   UNL     1      89.147  63.622  85.000  0.00  0.00    +0.000 S 
BRANCH  10  15
ATOM     12  C   UNL     1      89.919  68.130  86.294  0.00  0.00    +0.000 A 
ATOM     13  C   UNL     1      88.614  68.282  86.696  0.00  0.00    +0.000 A 
ATOM     14  S   UNL     1      87.837  66.782  86.922  0.00  0.00    +0.000 S 
ATOM     15  C   UNL     1      89.249  65.879  86.482  0.00  0.00    +0.000 A 
ATOM     16  C   UNL     1      90.282  66.757  86.173  0.00  0.00    +0.000 A 
ENDBRANCH  10  15
ENDBRANCH   1  10
TORSDOF 3
ENDMDL
