MODEL 1
REMARK VINA RESULT:      -5.0      0.000      0.000
REMARK  Name = *****
REMARK  4 active torsions:
REMARK  status: ('A' for Active; 'I' for Inactive)
REMARK    1  A    between atoms: C_1  and  C_2
REMARK    2  A    between atoms: C_2  and  C_4
REMARK    3  A    between atoms: C_8  and  C_10
REMARK    4  A    between atoms: C_11  and  C_12
REMARK                            x       y       z     vdW  Elec       q    Type
REMARK                         _______ _______ _______ _____ _____    ______ ____
ROOT
ATOM      1  C   UNL     1     104.996 123.085  81.220  0.00  0.00    +0.000 A 
ATOM      2  C   UNL     1     105.837 123.313  80.127  0.00  0.00    +0.000 A 
ATOM      3  C   UNL     1     105.705 124.484  79.379  0.00  0.00    +0.000 A 
ATOM      4  C   UNL     1     104.733 125.429  79.717  0.00  0.00    +0.000 A 
ATOM      5  C   UNL     1     103.869 125.209  80.797  0.00  0.00    +0.000 A 
ATOM      6  C   UNL     1     104.020 124.038  81.552  0.00  0.00    +0.000 A 
ENDROOT
BRANCH   1   8
ATOM      7  C   UNL     1     104.486 120.575  81.566  0.00  0.00    +0.000 C 
ATOM      8  C   UNL     1     105.103 121.856  82.062  0.00  0.00    +0.000 C 
ATOM      9  O   UNL     1     105.692 121.900  83.141  0.00  0.00    +0.000 OA
ENDBRANCH   1   8
BRANCH   5  10
ATOM     10  C   UNL     1     102.851 126.189  81.208  0.00  0.00    +0.000 C 
ATOM     11  C   UNL     1     102.027 126.031  82.257  0.00  0.00    +0.000 C 
BRANCH  11  12
ATOM     12  C   UNL     1     101.022 127.021  82.675  0.00  0.00    +0.000 A 
ATOM     13  C   UNL     1     101.365 128.215  83.322  0.00  0.00    +0.000 A 
ATOM     14  C   UNL     1     100.381 129.143  83.674  0.00  0.00    +0.000 A 
ATOM     15  C   UNL     1      99.044 128.893  83.371  0.00  0.00    +0.000 A 
ATOM     16  C   UNL     1      98.692 127.718  82.712  0.00  0.00    +0.000 A 
ATOM     17  C   UNL     1      99.675 126.789  82.362  0.00  0.00    +0.000 A 
ENDBRANCH  11  12
ENDBRANCH   5  10
TORSDOF 3
ENDMDL
