MODEL 1
REMARK VINA RESULT:      -4.9      0.000      0.000
REMARK  Name = *****
REMARK  5 active torsions:
REMARK  status: ('A' for Active; 'I' for Inactive)
REMARK    1  A    between atoms: C_1  and  C_2
REMARK    2  A    between atoms: C_6  and  S_8
REMARK    3  A    between atoms: S_8  and  C_9
REMARK    4  A    between atoms: C_9  and  C_10
REMARK    5  A    between atoms: C_12  and  C_16
REMARK                            x       y       z     vdW  Elec       q    Type
REMARK                         _______ _______ _______ _____ _____    ______ ____
ROOT
ATOM      1  C   UNL     1     103.986 125.440  80.864  0.00  0.00    +0.000 A 
ATOM      2  C   UNL     1     103.969 124.142  81.399  0.00  0.00    +0.000 A 
ATOM      3  C   UNL     1     104.806 123.137  80.885  0.00  0.00    +0.000 A 
ATOM      4  C   UNL     1     105.663 123.448  79.818  0.00  0.00    +0.000 A 
ATOM      5  C   UNL     1     105.680 124.732  79.274  0.00  0.00    +0.000 A 
ATOM      6  C   UNL     1     104.844 125.721  79.792  0.00  0.00    +0.000 A 
ENDROOT
BRANCH   3   7
ATOM      7  C   UNL     1     104.793 121.741  81.454  0.00  0.00    +0.000 C 
ATOM      8  F   UNL     1     104.018 120.869  80.750  0.00  0.00    +0.000 F 
ATOM      9  F   UNL     1     106.035 121.183  81.501  0.00  0.00    +0.000 F 
ATOM     10  F   UNL     1     104.321 121.704  82.733  0.00  0.00    +0.000 F 
ENDBRANCH   3   7
BRANCH   1  11
ATOM     11  C   UNL     1     103.070 126.509  81.412  0.00  0.00    +0.000 C 
BRANCH  11  12
ATOM     12  S   UNL     1     102.283 125.969  82.958  0.00  0.00    +0.000 S 
BRANCH  12  18
ATOM     13  C   UNL     1      99.546 130.138  84.008  0.00  0.00    +0.000 C 
ATOM     14  C   UNL     1      99.599 128.784  83.372  0.00  0.00    +0.000 A 
ATOM     15  C   UNL     1      98.489 128.262  82.741  0.00  0.00    +0.000 A 
ATOM     16  N   UNL     1      98.532 127.046  82.172  0.00  0.00    +0.000 NA
ATOM     17  N   UNL     1      99.695 126.346  82.239  0.00  0.00    +0.000 NA
ATOM     18  C   UNL     1     100.765 126.883  82.866  0.00  0.00    +0.000 A 
ATOM     19  N   UNL     1     100.759 128.098  83.447  0.00  0.00    +0.000 NA
ENDBRANCH  12  18
ENDBRANCH  11  12
ENDBRANCH   1  11
TORSDOF 4
ENDMDL
