MODEL 1
REMARK VINA RESULT:      -4.4      0.000      0.000
REMARK  Name = *****
REMARK  4 active torsions:
REMARK  status: ('A' for Active; 'I' for Inactive)
REMARK    1  A    between atoms: C_4  and  C_7
REMARK    2  A    between atoms: C_7  and  N_8
REMARK    3  A    between atoms: N_8  and  C_9
REMARK    4  A    between atoms: C_9  and  C_11
REMARK                            x       y       z     vdW  Elec       q    Type
REMARK                         _______ _______ _______ _____ _____    ______ ____
ROOT
ATOM      1  N   UNL     1      87.866  62.523  86.757  0.00  0.00    +0.000 N 
ATOM      2  H   UNL     1      88.473  61.845  87.133  0.00  0.00    +0.000 HD
ENDROOT
BRANCH   1   3
ATOM      3  C   UNL     1      86.811  62.935  87.553  0.00  0.00    +0.000 C 
ATOM      4  S   UNL     1      85.205  62.964  87.068  0.00  0.00    +0.000 S 
BRANCH   3   5
ATOM      5  C   UNL     1      87.230  63.354  88.921  0.00  0.00    +0.000 A 
ATOM      6  C   UNL     1      88.583  63.559  89.225  0.00  0.00    +0.000 A 
ATOM      7  C   UNL     1      88.957  63.939  90.517  0.00  0.00    +0.000 A 
ATOM      8  C   UNL     1      87.982  64.113  91.499  0.00  0.00    +0.000 A 
ATOM      9  C   UNL     1      86.634  63.910  91.204  0.00  0.00    +0.000 A 
ATOM     10  C   UNL     1      86.256  63.529  89.913  0.00  0.00    +0.000 A 
ATOM     11 CL   UNL     1      88.445  64.579  93.088  0.00  0.00    +0.000 Cl
ENDBRANCH   3   5
ENDBRANCH   1   3
BRANCH   1  12
ATOM     12  C   UNL     1      88.160  63.001  85.414  0.00  0.00    +0.000 C 
BRANCH  12  16
ATOM     13  C   UNL     1      91.226  66.023  85.603  0.00  0.00    +0.000 A 
ATOM     14  C   UNL     1      91.523  64.759  85.097  0.00  0.00    +0.000 A 
ATOM     15  C   UNL     1      90.529  63.783  85.027  0.00  0.00    +0.000 A 
ATOM     16  C   UNL     1      89.223  64.066  85.455  0.00  0.00    +0.000 A 
ATOM     17  C   UNL     1      88.938  65.338  85.975  0.00  0.00    +0.000 A 
ATOM     18  C   UNL     1      89.935  66.312  86.044  0.00  0.00    +0.000 A 
ENDBRANCH  12  16
ENDBRANCH   1  12
TORSDOF 4
ENDMDL
