MODEL 1
REMARK VINA RESULT:      -4.8      0.000      0.000
REMARK  Name = *****
REMARK  3 active torsions:
REMARK  status: ('A' for Active; 'I' for Inactive)
REMARK    1  A    between atoms: C_1  and  C_2
REMARK    2  A    between atoms: N_3  and  C_17
REMARK    3  A    between atoms: C_9  and  C_11
REMARK                            x       y       z     vdW  Elec       q    Type
REMARK                         _______ _______ _______ _____ _____    ______ ____
ROOT
ATOM      1  C   UNL     1     106.424 121.251  81.590  0.00  0.00    +0.000 C 
ATOM      2  C   UNL     1     105.652 122.506  81.394  0.00  0.00    +0.000 C 
ATOM      3  N   UNL     1     104.761 123.035  82.216  0.00  0.00    +0.000 N 
ATOM      4  C   UNL     1     104.195 124.226  81.776  0.00  0.00    +0.000 A 
ATOM      5  C   UNL     1     104.687 124.617  80.535  0.00  0.00    +0.000 A 
ATOM      6  S   UNL     1     105.845 123.466  79.990  0.00  0.00    +0.000 S 
ATOM      7  C   UNL     1     104.244 125.787  79.906  0.00  0.00    +0.000 A 
ATOM      8  C   UNL     1     103.282 126.563  80.563  0.00  0.00    +0.000 A 
ATOM      9  C   UNL     1     102.767 126.202  81.815  0.00  0.00    +0.000 A 
ATOM     10  C   UNL     1     103.231 125.021  82.428  0.00  0.00    +0.000 A 
ATOM     11  C   UNL     1     104.384 122.437  83.492  0.00  0.00    +0.000 C 
ENDROOT
BRANCH   9  12
ATOM     12  C   UNL     1     101.753 127.035  82.478  0.00  0.00    +0.000 A 
ATOM     13  C   UNL     1     102.121 128.193  83.180  0.00  0.00    +0.000 A 
ATOM     14  C   UNL     1     101.158 128.991  83.804  0.00  0.00    +0.000 A 
ATOM     15  C   UNL     1      99.812 128.641  83.737  0.00  0.00    +0.000 A 
ATOM     16  C   UNL     1      99.427 127.493  83.048  0.00  0.00    +0.000 A 
ATOM     17  C   UNL     1     100.391 126.696  82.423  0.00  0.00    +0.000 A 
ENDBRANCH   9  12
TORSDOF 1
ENDMDL
