MODEL 1
REMARK VINA RESULT:      -4.7      0.000      0.000
REMARK  Name = *****
REMARK  2 active torsions:
REMARK  status: ('A' for Active; 'I' for Inactive)
REMARK    1  A    between atoms: C_4  and  C_7
REMARK    2  A    between atoms: C_8  and  C_9
REMARK                            x       y       z     vdW  Elec       q    Type
REMARK                         _______ _______ _______ _____ _____    ______ ____
ROOT
ATOM      1  C   UNL     1     102.963 126.187  81.247  0.00  0.00    +0.000 C 
ATOM      2  C   UNL     1     102.051 125.964  82.207  0.00  0.00    +0.000 C 
ENDROOT
BRANCH   1   6
ATOM      3  C   UNL     1     105.790 123.222  80.016  0.00  0.00    +0.000 A 
ATOM      4  C   UNL     1     105.718 124.431  79.326  0.00  0.00    +0.000 A 
ATOM      5  C   UNL     1     104.804 125.411  79.722  0.00  0.00    +0.000 A 
ATOM      6  C   UNL     1     103.960 125.196  80.819  0.00  0.00    +0.000 A 
ATOM      7  C   UNL     1     104.030 123.970  81.494  0.00  0.00    +0.000 A 
ATOM      8  C   UNL     1     104.945 122.990  81.099  0.00  0.00    +0.000 A 
ENDBRANCH   1   6
BRANCH   2   9
ATOM      9  C   UNL     1     101.052 126.952  82.637  0.00  0.00    +0.000 A 
ATOM     10  C   UNL     1     101.406 128.143  83.286  0.00  0.00    +0.000 A 
ATOM     11  C   UNL     1     100.427 129.071  83.652  0.00  0.00    +0.000 A 
ATOM     12  C   UNL     1      99.086 128.825  83.362  0.00  0.00    +0.000 A 
ATOM     13  C   UNL     1      98.724 127.652  82.703  0.00  0.00    +0.000 A 
ATOM     14  C   UNL     1      99.702 126.724  82.337  0.00  0.00    +0.000 A 
ENDBRANCH   2   9
TORSDOF 2
ENDMDL
