MODEL 1
REMARK VINA RESULT:      -4.8      0.000      0.000
REMARK  Name = *****
REMARK  5 active torsions:
REMARK  status: ('A' for Active; 'I' for Inactive)
REMARK    1  A    between atoms: C_1  and  C_2
REMARK    2  A    between atoms: C_4  and  C_17
REMARK    3  A    between atoms: C_6  and  C_8
REMARK    4  A    between atoms: C_8  and  O_10
REMARK    5  A    between atoms: O_10  and  C_11
REMARK                            x       y       z     vdW  Elec       q    Type
REMARK                         _______ _______ _______ _____ _____    ______ ____
ROOT
ATOM      1  C   UNL     1      89.669  69.042  85.760  0.00  0.00    +0.000 C 
ATOM      2  O   UNL     1      89.820  69.178  84.556  0.00  0.00    +0.000 OA
ENDROOT
BRANCH   1   8
ATOM      3  C   UNL     1      88.385  70.966  90.186  0.00  0.00    +0.000 C 
ATOM      4  C   UNL     1      88.109  70.803  88.720  0.00  0.00    +0.000 A 
ATOM      5  C   UNL     1      86.952  71.347  88.149  0.00  0.00    +0.000 A 
ATOM      6  C   UNL     1      86.674  71.179  86.787  0.00  0.00    +0.000 A 
ATOM      7  C   UNL     1      87.550  70.423  85.995  0.00  0.00    +0.000 A 
ATOM      8  C   UNL     1      88.705  69.856  86.555  0.00  0.00    +0.000 A 
ATOM      9  C   UNL     1      88.976  70.050  87.917  0.00  0.00    +0.000 A 
ATOM     10  C   UNL     1      85.418  71.747  86.192  0.00  0.00    +0.000 C 
ENDBRANCH   1   8
BRANCH   1  11
ATOM     11  O   UNL     1      90.330  68.159  86.593  0.00  0.00    +0.000 OA
BRANCH  11  12
ATOM     12  C   UNL     1      90.088  66.811  86.311  0.00  0.00    +0.000 A 
ATOM     13  C   UNL     1      91.040  66.114  85.571  0.00  0.00    +0.000 A 
ATOM     14  C   UNL     1      90.850  64.754  85.327  0.00  0.00    +0.000 A 
ATOM     15  C   UNL     1      89.722  64.104  85.833  0.00  0.00    +0.000 A 
ATOM     16  C   UNL     1      88.783  64.810  86.590  0.00  0.00    +0.000 A 
ATOM     17  C   UNL     1      88.968  66.169  86.839  0.00  0.00    +0.000 A 
ENDBRANCH  11  12
ENDBRANCH   1  11
TORSDOF 3
ENDMDL
