MODEL 1
REMARK VINA RESULT:      -4.7      0.000      0.000
REMARK  Name = *****
REMARK  1 active torsions:
REMARK  status: ('A' for Active; 'I' for Inactive)
REMARK    1  A    between atoms: C_4  and  N_7
REMARK                            x       y       z     vdW  Elec       q    Type
REMARK                         _______ _______ _______ _____ _____    ______ ____
ROOT
ATOM      1  N   UNL     1      89.329  66.920  86.417  0.00  0.00    +0.000 N 
ATOM      2  C   UNL     1      87.918  66.739  86.746  0.00  0.00    +0.000 C 
ATOM      3  C   UNL     1      87.736  65.741  87.851  0.00  0.00    +0.000 A 
ATOM      4  C   UNL     1      86.868  65.980  88.925  0.00  0.00    +0.000 A 
ATOM      5  C   UNL     1      86.698  65.012  89.915  0.00  0.00    +0.000 A 
ATOM      6  C   UNL     1      87.383  63.801  89.834  0.00  0.00    +0.000 A 
ATOM      7  C   UNL     1      88.242  63.556  88.760  0.00  0.00    +0.000 A 
ATOM      8  C   UNL     1      88.422  64.526  87.771  0.00  0.00    +0.000 A 
ATOM      9  S   UNL     1      89.496  64.214  86.393  0.00  0.00    +0.000 S 
ATOM     10  C   UNL     1      90.113  65.828  86.038  0.00  0.00    +0.000 C 
ATOM     11  O   UNL     1      91.203  65.933  85.484  0.00  0.00    +0.000 OA
ENDROOT
BRANCH   1  15
ATOM     12  C   UNL     1      89.552  71.078  85.206  0.00  0.00    +0.000 C 
ATOM     13  C   UNL     1      89.812  70.729  86.670  0.00  0.00    +0.000 C 
ATOM     14  C   UNL     1      89.261  69.349  87.024  0.00  0.00    +0.000 C 
ATOM     15  C   UNL     1      89.818  68.268  86.082  0.00  0.00    +0.000 C 
ATOM     16  C   UNL     1      89.565  68.621  84.608  0.00  0.00    +0.000 C 
ATOM     17  C   UNL     1      90.103  70.010  84.265  0.00  0.00    +0.000 C 
ENDBRANCH   1  15
TORSDOF 1
ENDMDL
