MODEL 1
REMARK VINA RESULT:      -5.0      0.000      0.000
REMARK  Name = *****
REMARK  4 active torsions:
REMARK  status: ('A' for Active; 'I' for Inactive)
REMARK    1  A    between atoms: C_4  and  C_7
REMARK    2  A    between atoms: C_7  and  C_17
REMARK    3  A    between atoms: C_8  and  C_9
REMARK    4  A    between atoms: C_9  and  C_10
REMARK                            x       y       z     vdW  Elec       q    Type
REMARK                         _______ _______ _______ _____ _____    ______ ____
ROOT
ATOM      1  C   UNL     1      89.784  66.832  86.185  0.00  0.00    +0.000 C 
ATOM      2  C   UNL     1      88.811  66.357  86.988  0.00  0.00    +0.000 C 
ENDROOT
BRANCH   1   6
ATOM      3  C   UNL     1      89.837  71.001  85.186  0.00  0.00    +0.000 A 
ATOM      4  C   UNL     1      89.622  70.600  86.503  0.00  0.00    +0.000 A 
ATOM      5  C   UNL     1      89.602  69.242  86.828  0.00  0.00    +0.000 A 
ATOM      6  C   UNL     1      89.795  68.268  85.836  0.00  0.00    +0.000 A 
ATOM      7  C   UNL     1      90.016  68.687  84.514  0.00  0.00    +0.000 A 
ATOM      8  C   UNL     1      90.035  70.046  84.191  0.00  0.00    +0.000 A 
ENDBRANCH   1   6
BRANCH   1   9
ATOM      9  C   UNL     1      90.810  65.985  85.661  0.00  0.00    +0.000 C 
ATOM     10  N   UNL     1      91.651  65.293  85.259  0.00  0.00    +0.000 NA
ENDBRANCH   1   9
BRANCH   2  11
ATOM     11  C   UNL     1      88.642  64.935  87.458  0.00  0.00    +0.000 C 
BRANCH  11  12
ATOM     12  C   UNL     1      87.937  64.863  88.787  0.00  0.00    +0.000 A 
ATOM     13  C   UNL     1      86.808  65.654  89.044  0.00  0.00    +0.000 A 
ATOM     14  C   UNL     1      86.173  65.597  90.288  0.00  0.00    +0.000 A 
ATOM     15  C   UNL     1      86.661  64.755  91.287  0.00  0.00    +0.000 A 
ATOM     16  C   UNL     1      87.786  63.970  91.045  0.00  0.00    +0.000 A 
ATOM     17  C   UNL     1      88.415  64.032  89.804  0.00  0.00    +0.000 A 
ATOM     18  F   UNL     1      89.503  63.278  89.594  0.00  0.00    +0.000 F 
ENDBRANCH  11  12
ENDBRANCH   2  11
TORSDOF 4
ENDMDL
