MODEL 1
REMARK VINA RESULT:      -5.0      0.000      0.000
REMARK  Name = *****
REMARK  5 active torsions:
REMARK  status: ('A' for Active; 'I' for Inactive)
REMARK    1  A    between atoms: C_1  and  C_2
REMARK    2  A    between atoms: C_3  and  C_18
REMARK    3  A    between atoms: C_4  and  O_8
REMARK    4  A    between atoms: O_8  and  C_9
REMARK    5  A    between atoms: C_9  and  C_11
REMARK                            x       y       z     vdW  Elec       q    Type
REMARK                         _______ _______ _______ _____ _____    ______ ____
ROOT
ATOM      1  O   UNL     1     102.410 126.750  83.201  0.00  0.00    +0.000 OA
ENDROOT
BRANCH   1   5
ATOM      2  C   UNL     1      99.413 130.644  83.906  0.00  0.00    +0.000 C 
ATOM      3  C   UNL     1      99.683 129.233  83.460  0.00  0.00    +0.000 A 
ATOM      4  C   UNL     1     100.951 128.634  83.615  0.00  0.00    +0.000 A 
ATOM      5  C   UNL     1     101.125 127.317  83.154  0.00  0.00    +0.000 A 
ATOM      6  C   UNL     1     100.087 126.598  82.562  0.00  0.00    +0.000 A 
ATOM      7  C   UNL     1      98.833 127.184  82.445  0.00  0.00    +0.000 A 
ATOM      8  C   UNL     1      98.632 128.491  82.892  0.00  0.00    +0.000 A 
ATOM      9  C   UNL     1     102.117 129.393  84.188  0.00  0.00    +0.000 C 
ENDBRANCH   1   5
BRANCH   1  10
ATOM     10  C   UNL     1     103.006 126.528  81.976  0.00  0.00    +0.000 C 
ATOM     11  O   UNL     1     103.112 127.312  81.044  0.00  0.00    +0.000 OA
BRANCH  10  12
ATOM     12  C   UNL     1     103.615 125.182  81.952  0.00  0.00    +0.000 A 
ATOM     13  C   UNL     1     103.780 124.507  83.170  0.00  0.00    +0.000 A 
ATOM     14  C   UNL     1     104.354 123.234  83.197  0.00  0.00    +0.000 A 
ATOM     15  C   UNL     1     104.774 122.632  82.010  0.00  0.00    +0.000 A 
ATOM     16  C   UNL     1     104.626 123.306  80.798  0.00  0.00    +0.000 A 
ATOM     17  C   UNL     1     104.052 124.576  80.774  0.00  0.00    +0.000 A 
ATOM     18  F   UNL     1     103.963 125.201  79.590  0.00  0.00    +0.000 F 
ENDBRANCH  10  12
ENDBRANCH   1  10
TORSDOF 3
ENDMDL
