MODEL 1
REMARK VINA RESULT:      -3.6      0.000      0.000
REMARK  Name = *****
REMARK  3 active torsions:
REMARK  status: ('A' for Active; 'I' for Inactive)
REMARK    1  A    between atoms: N_6  and  S_7
REMARK    2  A    between atoms: S_7  and  S_8
REMARK    3  A    between atoms: S_8  and  C_9
REMARK                            x       y       z     vdW  Elec       q    Type
REMARK                         _______ _______ _______ _____ _____    ______ ____
ROOT
ATOM      1  S   UNL     1      88.156  70.226  88.216  0.00  0.00    +0.000 S 
ENDROOT
BRANCH   1   2
ATOM      2  C   UNL     1      86.733  71.090  87.578  0.00  0.00    +0.000 A 
ATOM      3  C   UNL     1      86.577  71.282  86.201  0.00  0.00    +0.000 A 
ATOM      4  C   UNL     1      85.458  71.957  85.706  0.00  0.00    +0.000 A 
ATOM      5  C   UNL     1      84.492  72.435  86.591  0.00  0.00    +0.000 A 
ATOM      6  C   UNL     1      84.635  72.244  87.963  0.00  0.00    +0.000 A 
ATOM      7  C   UNL     1      85.754  71.570  88.457  0.00  0.00    +0.000 A 
ATOM      8 CL   UNL     1      83.114  73.268  85.982  0.00  0.00    +0.000 Cl
ENDBRANCH   1   2
BRANCH   1   9
ATOM      9  S   UNL     1      88.047  68.444  87.202  0.00  0.00    +0.000 S 
BRANCH   9  15
ATOM     10  C   UNL     1      89.854  69.480  85.464  0.00  0.00    +0.000 C 
ATOM     11  C   UNL     1      89.431  68.998  84.070  0.00  0.00    +0.000 C 
ATOM     12  O   UNL     1      90.078  67.763  83.733  0.00  0.00    +0.000 OA
ATOM     13  C   UNL     1      89.778  66.757  84.710  0.00  0.00    +0.000 C 
ATOM     14  C   UNL     1      90.206  67.204  86.114  0.00  0.00    +0.000 C 
ATOM     15  N   UNL     1      89.567  68.478  86.513  0.00  0.00    +0.000 NA
ENDBRANCH   9  15
ENDBRANCH   1   9
TORSDOF 3
ENDMDL
