MODEL 1
REMARK VINA RESULT:      -4.3      0.000      0.000
REMARK  Name = *****
REMARK  2 active torsions:
REMARK  status: ('A' for Active; 'I' for Inactive)
REMARK    1  A    between atoms: C_5  and  C_7
REMARK    2  A    between atoms: C_8  and  C_9
REMARK                            x       y       z     vdW  Elec       q    Type
REMARK                         _______ _______ _______ _____ _____    ______ ____
ROOT
ATOM      1  C   UNL     1     101.934 126.079  82.337  0.00  0.00    +0.000 C 
ATOM      2  C   UNL     1     102.826 125.611  81.682  0.00  0.00    +0.000 C 
ENDROOT
BRANCH   1   7
ATOM      3  C   UNL     1      98.529 127.669  82.969  0.00  0.00    +0.000 C 
ATOM      4  C   UNL     1      99.085 129.080  83.176  0.00  0.00    +0.000 C 
ATOM      5  C   UNL     1     100.494 129.082  83.693  0.00  0.00    +0.000 C 
ATOM      6  C   UNL     1     101.279 127.993  83.692  0.00  0.00    +0.000 C 
ATOM      7  C   UNL     1     100.845 126.658  83.143  0.00  0.00    +0.000 C 
ATOM      8  C   UNL     1      99.559 126.759  82.303  0.00  0.00    +0.000 C 
ENDBRANCH   1   7
BRANCH   2   9
ATOM      9  C   UNL     1     103.886 125.051  80.905  0.00  0.00    +0.000 A 
ATOM     10  C   UNL     1     104.579 125.768  79.955  0.00  0.00    +0.000 A 
ATOM     11  S   UNL     1     105.788 124.823  79.194  0.00  0.00    +0.000 S 
ATOM     12  C   UNL     1     105.387 123.452  80.136  0.00  0.00    +0.000 A 
ATOM     13  C   UNL     1     104.353 123.709  81.010  0.00  0.00    +0.000 A 
ENDBRANCH   2   9
TORSDOF 2
ENDMDL
