REMARK  Name = *****
REMARK  1 active torsions:
REMARK  status: ('A' for Active; 'I' for Inactive)
REMARK    1  A    between atoms: C_4  and  C_7
REMARK                            x       y       z     vdW  Elec       q    Type
REMARK                         _______ _______ _______ _____ _____    ______ ____
ROOT
ATOM      1  C   UNL     1       0.610  -2.809   0.180  0.00  0.00    +0.000 C 
ATOM      2  C   UNL     1       1.195  -3.266   1.303  0.00  0.00    +0.000 C 
ATOM      3  C   UNL     1       1.605  -4.698   1.527  0.00  0.00    +0.000 C 
ATOM      4  C   UNL     1       3.119  -4.803   1.802  0.00  0.00    +0.000 C 
ATOM      5  C   UNL     1       3.671  -5.802   0.788  0.00  0.00    +0.000 C 
ATOM      6  C   UNL     1       2.699  -5.725  -0.377  0.00  0.00    +0.000 C 
ATOM      7  C   UNL     1       1.348  -5.637   0.331  0.00  0.00    +0.000 C 
ATOM      8  C   UNL     1       0.194  -5.193  -0.562  0.00  0.00    +0.000 C 
ATOM      9  C   UNL     1       0.282  -3.723  -0.975  0.00  0.00    +0.000 C 
ENDROOT
BRANCH   1  13
ATOM     10  C   UNL     1      -0.608   1.280  -0.587  0.00  0.00    +0.000 C 
ATOM     11  C   UNL     1       0.771   0.839  -1.063  0.00  0.00    +0.000 C 
ATOM     12  C   UNL     1       0.852  -0.686  -1.174  0.00  0.00    +0.000 C 
ATOM     13  C   UNL     1       0.261  -1.401   0.021  0.00  0.00    +0.000 C 
ATOM     14  C   UNL     1      -0.541  -0.770   0.899  0.00  0.00    +0.000 C 
ATOM     15  C   UNL     1      -0.942   0.671   0.775  0.00  0.00    +0.000 C 
ENDBRANCH   1  13
TORSDOF 1
