MODEL 1
REMARK VINA RESULT:      -4.4      0.000      0.000
REMARK  Name = *****
REMARK  7 active torsions:
REMARK  status: ('A' for Active; 'I' for Inactive)
REMARK    1  A    between atoms: C_1  and  C_2
REMARK    2  A    between atoms: C_2  and  N_3
REMARK    3  A    between atoms: C_2  and  C_18
REMARK    4  A    between atoms: N_3  and  C_4
REMARK    5  A    between atoms: N_3  and  C_11
REMARK    6  A    between atoms: C_4  and  C_5
REMARK    7  A    between atoms: C_11  and  C_12
REMARK                            x       y       z     vdW  Elec       q    Type
REMARK                         _______ _______ _______ _____ _____    ______ ____
ROOT
ATOM      1  N   UNL     1      87.254  63.735  88.520  0.00  0.00    +0.000 NA
ENDROOT
BRANCH   1   3
ATOM      2  C   UNL     1      86.802  65.011  90.555  0.00  0.00    +0.000 C 
ATOM      3  C   UNL     1      87.677  64.154  89.679  0.00  0.00    +0.000 C 
ATOM      4  C   UNL     1      89.052  63.792  90.175  0.00  0.00    +0.000 C 
ENDBRANCH   1   3
BRANCH   1   5
ATOM      5  C   UNL     1      86.873  62.295  88.249  0.00  0.00    +0.000 C 
BRANCH   5   6
ATOM      6  C   UNL     1      85.645  61.860  89.008  0.00  0.00    +0.000 A 
ATOM      7  C   UNL     1      85.693  60.810  89.940  0.00  0.00    +0.000 A 
ATOM      8  C   UNL     1      84.545  60.423  90.633  0.00  0.00    +0.000 A 
ATOM      9  C   UNL     1      83.340  61.085  90.414  0.00  0.00    +0.000 A 
ATOM     10  C   UNL     1      83.282  62.142  89.509  0.00  0.00    +0.000 A 
ATOM     11  C   UNL     1      84.427  62.532  88.815  0.00  0.00    +0.000 A 
ENDBRANCH   5   6
ENDBRANCH   1   5
BRANCH   1  12
ATOM     12  C   UNL     1      87.098  64.643  87.318  0.00  0.00    +0.000 C 
BRANCH  12  13
ATOM     13  C   UNL     1      88.418  65.088  86.743  0.00  0.00    +0.000 A 
ATOM     14  C   UNL     1      89.259  64.195  86.058  0.00  0.00    +0.000 A 
ATOM     15  C   UNL     1      90.477  64.631  85.531  0.00  0.00    +0.000 A 
ATOM     16  C   UNL     1      90.865  65.960  85.672  0.00  0.00    +0.000 A 
ATOM     17  C   UNL     1      90.033  66.861  86.331  0.00  0.00    +0.000 A 
ATOM     18  C   UNL     1      88.815  66.431  86.859  0.00  0.00    +0.000 A 
ENDBRANCH  12  13
ENDBRANCH   1  12
TORSDOF 5
ENDMDL
