MODEL 1
REMARK VINA RESULT:      -4.7      0.000      0.000
REMARK  Name = *****
REMARK  5 active torsions:
REMARK  status: ('A' for Active; 'I' for Inactive)
REMARK    1  A    between atoms: C_1  and  C_2
REMARK    2  A    between atoms: C_2  and  N_3
REMARK    3  A    between atoms: N_3  and  C_4
REMARK    4  A    between atoms: C_8  and  C_10
REMARK    5  A    between atoms: C_11  and  C_13
REMARK                            x       y       z     vdW  Elec       q    Type
REMARK                         _______ _______ _______ _____ _____    ______ ____
ROOT
ATOM      1  N   UNL     1     103.360 126.276  82.236  0.00  0.00    +0.000 N 
ATOM      2  C   UNL     1     103.657 125.011  82.788  0.00  0.00    +0.000 C 
ATOM      3  O   UNL     1     103.172 124.525  83.807  0.00  0.00    +0.000 OA
ENDROOT
BRANCH   1   4
ATOM      4  C   UNL     1     102.194 127.016  82.673  0.00  0.00    +0.000 A 
ATOM      5  C   UNL     1     102.321 128.197  83.421  0.00  0.00    +0.000 A 
ATOM      6  C   UNL     1     101.201 128.910  83.865  0.00  0.00    +0.000 A 
ATOM      7  C   UNL     1      99.920 128.452  83.580  0.00  0.00    +0.000 A 
ATOM      8  C   UNL     1      99.750 127.269  82.862  0.00  0.00    +0.000 A 
ATOM      9  C   UNL     1     100.885 126.570  82.410  0.00  0.00    +0.000 A 
ATOM     10  C   UNL     1      98.374 126.785  82.514  0.00  0.00    +0.000 C 
ENDBRANCH   1   4
BRANCH   2  11
ATOM     11  C   UNL     1     104.665 124.162  82.114  0.00  0.00    +0.000 A 
ATOM     12  C   UNL     1     105.870 123.884  82.769  0.00  0.00    +0.000 A 
ATOM     13  C   UNL     1     106.811 123.055  82.158  0.00  0.00    +0.000 A 
ATOM     14  C   UNL     1     106.530 122.501  80.911  0.00  0.00    +0.000 A 
ATOM     15  C   UNL     1     105.321 122.753  80.266  0.00  0.00    +0.000 A 
ATOM     16  C   UNL     1     104.376 123.581  80.873  0.00  0.00    +0.000 A 
ATOM     17  F   UNL     1     107.434 121.706  80.326  0.00  0.00    +0.000 F 
ENDBRANCH   2  11
BRANCH   1  19
ATOM     18  C   UNL     1     103.671 127.478  80.075  0.00  0.00    +0.000 C 
ATOM     19  C   UNL     1     104.324 126.950  81.347  0.00  0.00    +0.000 C 
ENDBRANCH   1  19
TORSDOF 3
ENDMDL
