REMARK  Name = *****
REMARK  5 active torsions:
REMARK  status: ('A' for Active; 'I' for Inactive)
REMARK    1  A    between atoms: C_2  and  S_3
REMARK    2  A    between atoms: S_3  and  N_4
REMARK    3  A    between atoms: N_4  and  C_5
REMARK    4  A    between atoms: N_4  and  C_12
REMARK    5  A    between atoms: C_5  and  C_6
REMARK                            x       y       z     vdW  Elec       q    Type
REMARK                         _______ _______ _______ _____ _____    ______ ____
ROOT
ATOM      1  N   UNL     1       4.448   1.257  -0.600  0.00  0.00    +0.000 N 
ENDROOT
BRANCH   1   2
ATOM      2  C   UNL     1       5.791   1.590  -0.910  0.00  0.00    +0.000 A 
ATOM      3  C   UNL     1       6.840   0.689  -0.631  0.00  0.00    +0.000 A 
ATOM      4  C   UNL     1       8.175   0.979  -0.935  0.00  0.00    +0.000 A 
ATOM      5  C   UNL     1       8.503   2.185  -1.540  0.00  0.00    +0.000 A 
ATOM      6  C   UNL     1       7.495   3.093  -1.841  0.00  0.00    +0.000 A 
ATOM      7  C   UNL     1       6.161   2.796  -1.533  0.00  0.00    +0.000 A 
ENDBRANCH   1   2
BRANCH   1   8
ATOM      8  S   UNL     1       4.126   0.471   0.862  0.00  0.00    +0.000 S 
BRANCH   8  10
ATOM      9  C   UNL     1       3.019  -1.982  -0.198  0.00  0.00    +0.000 C 
ATOM     10  C   UNL     1       3.479  -0.965   0.242  0.00  0.00    +0.000 C 
ENDBRANCH   8  10
ENDBRANCH   1   8
BRANCH   1  11
ATOM     11  C   UNL     1       3.343   2.086  -1.123  0.00  0.00    +0.000 C 
BRANCH  11  12
ATOM     12  C   UNL     1       3.177   2.012  -2.632  0.00  0.00    +0.000 A 
ATOM     13  C   UNL     1       3.391   0.821  -3.341  0.00  0.00    +0.000 A 
ATOM     14  C   UNL     1       3.191   0.768  -4.722  0.00  0.00    +0.000 A 
ATOM     15  C   UNL     1       2.760   1.900  -5.409  0.00  0.00    +0.000 A 
ATOM     16  C   UNL     1       2.524   3.085  -4.716  0.00  0.00    +0.000 A 
ATOM     17  C   UNL     1       2.725   3.140  -3.336  0.00  0.00    +0.000 A 
ENDBRANCH  11  12
ENDBRANCH   1  11
TORSDOF 5
