REMARK  Name = *****
REMARK  5 active torsions:
REMARK  status: ('A' for Active; 'I' for Inactive)
REMARK    1  A    between atoms: C_1  and  C_2
REMARK    2  A    between atoms: C_7  and  O_8
REMARK    3  A    between atoms: O_8  and  C_9
REMARK    4  A    between atoms: C_9  and  C_10
REMARK    5  A    between atoms: C_15  and  C_16
REMARK                            x       y       z     vdW  Elec       q    Type
REMARK                         _______ _______ _______ _____ _____    ______ ____
ROOT
ATOM      1  C   UNL     1       2.260  -2.497   0.491  0.00  0.00    +0.000 C 
ENDROOT
BRANCH   1   2
ATOM      2  C   UNL     1       2.750  -3.916   0.291  0.00  0.00    +0.000 A 
ATOM      3  C   UNL     1       4.005  -4.097  -0.325  0.00  0.00    +0.000 A 
ATOM      4  C   UNL     1       4.524  -5.371  -0.548  0.00  0.00    +0.000 A 
ATOM      5  C   UNL     1       3.797  -6.491  -0.167  0.00  0.00    +0.000 A 
ATOM      6  C   UNL     1       2.546  -6.334   0.429  0.00  0.00    +0.000 A 
ATOM      7  C   UNL     1       2.000  -5.054   0.663  0.00  0.00    +0.000 A 
BRANCH   7   8
ATOM      8  C   UNL     1       0.628  -4.979   1.282  0.00  0.00    +0.000 C 
ATOM      9 CL   UNL     1      -0.628  -5.420   0.104  0.00  0.00    +0.000 Cl
ENDBRANCH   7   8
ENDBRANCH   1   2
BRANCH   1  10
ATOM     10  O   UNL     1       1.438  -2.135  -0.622  0.00  0.00    +0.000 OA
BRANCH  10  17
ATOM     11  C   UNL     1       2.496   0.607  -0.638  0.00  0.00    +0.000 C 
ATOM     12  C   UNL     1       1.078   0.244  -0.306  0.00  0.00    +0.000 A 
ATOM     13  C   UNL     1       0.175   1.261   0.040  0.00  0.00    +0.000 A 
ATOM     14  C   UNL     1      -1.160   0.965   0.325  0.00  0.00    +0.000 A 
ATOM     15  C   UNL     1      -1.611  -0.351   0.264  0.00  0.00    +0.000 A 
ATOM     16  C   UNL     1      -0.721  -1.373  -0.059  0.00  0.00    +0.000 A 
ATOM     17  C   UNL     1       0.622  -1.081  -0.307  0.00  0.00    +0.000 A 
ENDBRANCH  10  17
ENDBRANCH   1  10
TORSDOF 4
