MODEL 1
REMARK VINA RESULT:      -4.4      0.000      0.000
REMARK  Name = *****
REMARK  3 active torsions:
REMARK  status: ('A' for Active; 'I' for Inactive)
REMARK    1  A    between atoms: C_2  and  C_3
REMARK    2  A    between atoms: C_2  and  S_9
REMARK    3  A    between atoms: S_9  and  C_11
REMARK                            x       y       z     vdW  Elec       q    Type
REMARK                         _______ _______ _______ _____ _____    ______ ____
ROOT
ATOM      1  C   UNL     1      88.650  70.606  88.504  0.00  0.00    +0.000 C 
ATOM      2  C   UNL     1      87.905  70.687  87.392  0.00  0.00    +0.000 C 
ENDROOT
BRANCH   2   3
ATOM      3  C   UNL     1      86.572  71.301  87.429  0.00  0.00    +0.000 A 
ATOM      4  C   UNL     1      85.954  71.579  88.656  0.00  0.00    +0.000 A 
ATOM      5  C   UNL     1      84.691  72.171  88.691  0.00  0.00    +0.000 A 
ATOM      6  C   UNL     1      84.035  72.488  87.503  0.00  0.00    +0.000 A 
ATOM      7  C   UNL     1      84.639  72.212  86.278  0.00  0.00    +0.000 A 
ATOM      8  C   UNL     1      85.901  71.617  86.240  0.00  0.00    +0.000 A 
ENDBRANCH   2   3
BRANCH   2   9
ATOM      9  S   UNL     1      88.557  70.099  85.824  0.00  0.00    +0.000 S 
ATOM     10  O   UNL     1      89.939  70.669  85.684  0.00  0.00    +0.000 OA
BRANCH   9  11
ATOM     11  C   UNL     1      88.775  68.343  86.204  0.00  0.00    +0.000 A 
ATOM     12  C   UNL     1      90.017  67.733  85.988  0.00  0.00    +0.000 A 
ATOM     13  C   UNL     1      90.193  66.378  86.275  0.00  0.00    +0.000 A 
ATOM     14  C   UNL     1      89.133  65.630  86.786  0.00  0.00    +0.000 A 
ATOM     15  C   UNL     1      87.897  66.234  87.012  0.00  0.00    +0.000 A 
ATOM     16  C   UNL     1      87.719  67.587  86.723  0.00  0.00    +0.000 A 
ENDBRANCH   9  11
ENDBRANCH   2   9
TORSDOF 3
ENDMDL
