REMARK  Name = *****
REMARK  4 active torsions:
REMARK  status: ('A' for Active; 'I' for Inactive)
REMARK    1  A    between atoms: C_1  and  C_2
REMARK    2  A    between atoms: C_2  and  C_8
REMARK    3  A    between atoms: C_8  and  C_9
REMARK    4  A    between atoms: C_9  and  C_10
REMARK                            x       y       z     vdW  Elec       q    Type
REMARK                         _______ _______ _______ _____ _____    ______ ____
ROOT
ATOM      1  C   UNL     1       3.231   1.059   0.656  0.00  0.00    +0.000 C 
ENDROOT
BRANCH   1   3
ATOM      2  C   UNL     1       2.613   0.370  -1.701  0.00  0.00    +0.000 C 
ATOM      3  C   UNL     1       2.545   0.029  -0.229  0.00  0.00    +0.000 C 
ATOM      4  C   UNL     1       1.921  -1.052   0.288  0.00  0.00    +0.000 C 
ATOM      5  C   UNL     1       1.870  -1.416   1.753  0.00  0.00    +0.000 C 
ATOM      6  C   UNL     1       1.645  -2.924   1.803  0.00  0.00    +0.000 C 
ATOM      7  C   UNL     1       0.608  -3.261   0.746  0.00  0.00    +0.000 C 
ATOM      8  S   UNL     1       1.101  -2.257  -0.685  0.00  0.00    +0.000 S 
ENDBRANCH   1   3
BRANCH   1   9
ATOM      9  C   UNL     1       4.746   0.839   0.736  0.00  0.00    +0.000 C 
BRANCH   9  10
ATOM     10  C   UNL     1       5.405   1.844   1.650  0.00  0.00    +0.000 A 
ATOM     11  C   UNL     1       5.593   1.554   3.008  0.00  0.00    +0.000 A 
ATOM     12  C   UNL     1       6.184   2.492   3.856  0.00  0.00    +0.000 A 
ATOM     13  C   UNL     1       6.587   3.729   3.356  0.00  0.00    +0.000 A 
ATOM     14  C   UNL     1       6.399   4.029   2.008  0.00  0.00    +0.000 A 
ATOM     15  C   UNL     1       5.809   3.092   1.158  0.00  0.00    +0.000 A 
ENDBRANCH   9  10
ENDBRANCH   1   9
TORSDOF 3
