REMARK  Name = *****
REMARK  3 active torsions:
REMARK  status: ('A' for Active; 'I' for Inactive)
REMARK    1  A    between atoms: C_2  and  C_3
REMARK    2  A    between atoms: C_3  and  C_11
REMARK    3  A    between atoms: N_4  and  C_5
REMARK                            x       y       z     vdW  Elec       q    Type
REMARK                         _______ _______ _______ _____ _____    ______ ____
ROOT
ATOM      1  C   UNL     1       3.713   0.028  -0.020  0.00  0.00    +0.000 C 
ATOM      2  N   UNL     1       4.283  -1.114   0.228  0.00  0.00    +0.000 NA
ENDROOT
BRANCH   2   3
ATOM      3  C   UNL     1       3.578  -2.324   0.176  0.00  0.00    +0.000 A 
ATOM      4  C   UNL     1       3.547  -3.072  -1.004  0.00  0.00    +0.000 A 
ATOM      5  C   UNL     1       2.872  -4.293  -1.050  0.00  0.00    +0.000 A 
ATOM      6  C   UNL     1       2.234  -4.780   0.091  0.00  0.00    +0.000 A 
ATOM      7  C   UNL     1       2.278  -4.050   1.278  0.00  0.00    +0.000 A 
ATOM      8  C   UNL     1       2.955  -2.829   1.321  0.00  0.00    +0.000 A 
ENDBRANCH   2   3
BRANCH   1   9
ATOM      9  C   UNL     1       4.456   1.313   0.034  0.00  0.00    +0.000 A 
ATOM     10  C   UNL     1       3.831   2.544  -0.209  0.00  0.00    +0.000 A 
ATOM     11  C   UNL     1       4.567   3.731  -0.148  0.00  0.00    +0.000 A 
ATOM     12  C   UNL     1       5.927   3.697   0.154  0.00  0.00    +0.000 A 
ATOM     13  C   UNL     1       6.557   2.478   0.397  0.00  0.00    +0.000 A 
ATOM     14  C   UNL     1       5.825   1.290   0.337  0.00  0.00    +0.000 A 
ENDBRANCH   1   9
BRANCH   1  16
ATOM     15  C   UNL     1       1.136   0.022  -0.645  0.00  0.00    +0.000 C 
ATOM     16  C   UNL     1       2.304   0.028  -0.362  0.00  0.00    +0.000 C 
ENDBRANCH   1  16
TORSDOF 3
