REMARK  Name = *****
REMARK  3 active torsions:
REMARK  status: ('A' for Active; 'I' for Inactive)
REMARK    1  A    between atoms: C_4  and  C_7
REMARK    2  A    between atoms: C_7  and  O_9
REMARK    3  A    between atoms: O_9  and  C_10
REMARK                            x       y       z     vdW  Elec       q    Type
REMARK                         _______ _______ _______ _____ _____    ______ ____
ROOT
ATOM      1  O   UNL     1      -3.002  -0.394  -1.535  0.00  0.00    +0.000 OA
ENDROOT
BRANCH   1   2
ATOM      2  C   UNL     1      -4.215  -0.100  -2.168  0.00  0.00    +0.000 A 
ATOM      3  C   UNL     1      -5.376  -0.783  -1.795  0.00  0.00    +0.000 A 
ATOM      4  C   UNL     1      -6.572  -0.532  -2.469  0.00  0.00    +0.000 A 
ATOM      5  C   UNL     1      -6.590   0.393  -3.514  0.00  0.00    +0.000 A 
ATOM      6  C   UNL     1      -5.427   1.063  -3.897  0.00  0.00    +0.000 A 
ATOM      7  C   UNL     1      -4.229   0.810  -3.228  0.00  0.00    +0.000 A 
ATOM      8 CL   UNL     1      -8.062   0.702  -4.351  0.00  0.00    +0.000 Cl
ATOM      9 CL   UNL     1      -5.362  -1.943  -0.520  0.00  0.00    +0.000 Cl
ENDBRANCH   1   2
BRANCH   1  10
ATOM     10  C   UNL     1      -2.529   0.628  -0.734  0.00  0.00    +0.000 C 
ATOM     11  O   UNL     1      -3.050   1.715  -0.537  0.00  0.00    +0.000 OA
BRANCH  10  15
ATOM     12  C   UNL     1       1.337  -0.372   0.809  0.00  0.00    +0.000 A 
ATOM     13  C   UNL     1       0.465  -1.396   0.440  0.00  0.00    +0.000 A 
ATOM     14  C   UNL     1      -0.804  -1.091  -0.059  0.00  0.00    +0.000 A 
ATOM     15  C   UNL     1      -1.201   0.246  -0.190  0.00  0.00    +0.000 A 
ATOM     16  C   UNL     1      -0.327   1.270   0.197  0.00  0.00    +0.000 A 
ATOM     17  C   UNL     1       0.942   0.960   0.690  0.00  0.00    +0.000 A 
ENDBRANCH  10  15
ENDBRANCH   1  10
TORSDOF 3
