MODEL 1
REMARK VINA RESULT:      -4.6      0.000      0.000
REMARK  Name = *****
REMARK  3 active torsions:
REMARK  status: ('A' for Active; 'I' for Inactive)
REMARK    1  A    between atoms: C_4  and  N_7
REMARK    2  A    between atoms: N_7  and  C_8
REMARK    3  A    between atoms: C_8  and  C_10
REMARK                            x       y       z     vdW  Elec       q    Type
REMARK                         _______ _______ _______ _____ _____    ______ ____
ROOT
ATOM      1  C   UNL     1      89.027  64.432  86.737  0.00  0.00    +0.000 C 
ATOM      2  S   UNL     1      89.177  63.657  85.258  0.00  0.00    +0.000 S 
ENDROOT
BRANCH   1   3
ATOM      3  C   UNL     1      88.986  65.925  86.776  0.00  0.00    +0.000 A 
ATOM      4  C   UNL     1      90.039  66.682  86.247  0.00  0.00    +0.000 A 
ATOM      5  C   UNL     1      89.992  68.076  86.317  0.00  0.00    +0.000 A 
ATOM      6  C   UNL     1      88.900  68.705  86.916  0.00  0.00    +0.000 A 
ATOM      7  C   UNL     1      87.851  67.954  87.447  0.00  0.00    +0.000 A 
ATOM      8  C   UNL     1      87.893  66.560  87.381  0.00  0.00    +0.000 A 
ATOM      9 CL   UNL     1      88.847  70.422  87.002  0.00  0.00    +0.000 Cl
ENDBRANCH   1   3
BRANCH   1  10
ATOM     10  N   UNL     1      88.967  63.893  88.016  0.00  0.00    +0.000 N 
ATOM     11  H   UNL     1      89.830  63.905  88.490  0.00  0.00    +0.000 HD
BRANCH  10  15
ATOM     12  C   UNL     1      85.848  62.391  90.447  0.00  0.00    +0.000 A 
ATOM     13  C   UNL     1      86.039  61.840  89.185  0.00  0.00    +0.000 A 
ATOM     14  C   UNL     1      87.062  62.309  88.352  0.00  0.00    +0.000 A 
ATOM     15  C   UNL     1      87.913  63.330  88.773  0.00  0.00    +0.000 A 
ATOM     16  C   UNL     1      87.698  63.887  90.044  0.00  0.00    +0.000 A 
ATOM     17  C   UNL     1      86.677  63.420  90.878  0.00  0.00    +0.000 A 
ENDBRANCH  10  15
ENDBRANCH   1  10
TORSDOF 3
ENDMDL
