MODEL 1
REMARK VINA RESULT:      -5.1      0.000      0.000
REMARK  Name = *****
REMARK  8 active torsions:
REMARK  status: ('A' for Active; 'I' for Inactive)
REMARK    1  A    between atoms: C_1  and  C_2
REMARK    2  A    between atoms: C_3  and  C_9
REMARK    3  A    between atoms: C_4  and  C_8
REMARK    4  A    between atoms: C_9  and  C_10
REMARK    5  A    between atoms: C_10  and  C_11
REMARK    6  A    between atoms: C_11  and  C_13
REMARK    7  A    between atoms: C_15  and  C_20
REMARK    8  A    between atoms: C_17  and  C_19
REMARK                            x       y       z     vdW  Elec       q    Type
REMARK                         _______ _______ _______ _____ _____    ______ ____
ROOT
ATOM      1  C   UNL     1      89.667  68.462  86.542  0.00  0.00    +0.000 C 
ENDROOT
BRANCH   1   2
ATOM      2  C   UNL     1      89.406  69.953  86.440  0.00  0.00    +0.000 C 
ATOM      3  O   UNL     1      90.048  70.680  85.683  0.00  0.00    +0.000 OA
BRANCH   2   4
ATOM      4  C   UNL     1      88.330  70.552  87.291  0.00  0.00    +0.000 A 
ATOM      5  C   UNL     1      87.126  71.025  86.753  0.00  0.00    +0.000 A 
ATOM      6  C   UNL     1      86.136  71.561  87.589  0.00  0.00    +0.000 A 
ATOM      7  C   UNL     1      86.374  71.651  88.966  0.00  0.00    +0.000 A 
ATOM      8  C   UNL     1      87.579  71.199  89.517  0.00  0.00    +0.000 A 
ATOM      9  C   UNL     1      88.545  70.637  88.674  0.00  0.00    +0.000 A 
ATOM     10  C   UNL     1      87.811  71.259  90.998  0.00  0.00    +0.000 C 
ATOM     11  C   UNL     1      84.857  72.092  87.007  0.00  0.00    +0.000 C 
ENDBRANCH   2   4
ENDBRANCH   1   2
BRANCH   1  12
ATOM     12  C   UNL     1      88.437  67.643  86.144  0.00  0.00    +0.000 C 
BRANCH  12  15
ATOM     13  C   UNL     1      86.428  67.718  88.359  0.00  0.00    +0.000 C 
ATOM     14  C   UNL     1      87.301  66.513  88.128  0.00  0.00    +0.000 A 
ATOM     15  C   UNL     1      88.237  66.450  87.065  0.00  0.00    +0.000 A 
ATOM     16  C   UNL     1      89.007  65.272  86.890  0.00  0.00    +0.000 A 
ATOM     17  C   UNL     1      88.824  64.188  87.761  0.00  0.00    +0.000 A 
ATOM     18  C   UNL     1      87.902  64.255  88.801  0.00  0.00    +0.000 A 
ATOM     19  C   UNL     1      87.145  65.408  88.980  0.00  0.00    +0.000 A 
ATOM     20  C   UNL     1      89.999  65.121  85.766  0.00  0.00    +0.000 C 
ENDBRANCH  12  15
ENDBRANCH   1  12
TORSDOF 4
ENDMDL
