MODEL 1
REMARK VINA RESULT:      -4.6      0.000      0.000
REMARK  Name = *****
REMARK  3 active torsions:
REMARK  status: ('A' for Active; 'I' for Inactive)
REMARK    1  A    between atoms: C_2  and  C_8
REMARK    2  A    between atoms: C_8  and  O_10
REMARK    3  A    between atoms: O_10  and  C_11
REMARK                            x       y       z     vdW  Elec       q    Type
REMARK                         _______ _______ _______ _____ _____    ______ ____
ROOT
ATOM      1  C   UNL     1      89.867  65.557  85.830  0.00  0.00    +0.000 A 
ATOM      2  C   UNL     1      91.018  64.916  85.381  0.00  0.00    +0.000 A 
ATOM      3  C   UNL     1      90.940  63.613  84.905  0.00  0.00    +0.000 A 
ATOM      4  C   UNL     1      89.717  62.950  84.888  0.00  0.00    +0.000 A 
ATOM      5  C   UNL     1      88.571  63.587  85.350  0.00  0.00    +0.000 A 
ATOM      6  C   UNL     1      88.644  64.891  85.827  0.00  0.00    +0.000 A 
ATOM      7  F   UNL     1      87.544  65.506  86.284  0.00  0.00    +0.000 F 
ATOM      8  F   UNL     1      87.397  62.941  85.347  0.00  0.00    +0.000 F 
ATOM      9  F   UNL     1      89.646  61.691  84.435  0.00  0.00    +0.000 F 
ATOM     10  F   UNL     1      92.046  62.991  84.472  0.00  0.00    +0.000 F 
ATOM     11  F   UNL     1      92.197  65.554  85.410  0.00  0.00    +0.000 F 
ENDROOT
BRANCH   1  12
ATOM     12  O   UNL     1      89.943  66.859  86.318  0.00  0.00    +0.000 OA
BRANCH  12  13
ATOM     13  C   UNL     1      89.629  67.783  85.325  0.00  0.00    +0.000 C 
ATOM     14  O   UNL     1      90.202  67.886  84.248  0.00  0.00    +0.000 OA
BRANCH  13  16
ATOM     15  C   UNL     1      88.236  68.564  87.346  0.00  0.00    +0.000 C 
ATOM     16  C   UNL     1      88.482  68.647  85.806  0.00  0.00    +0.000 C 
ATOM     17  C   UNL     1      88.805  70.147  85.602  0.00  0.00    +0.000 C 
ATOM     18  C   UNL     1      89.560  70.481  86.895  0.00  0.00    +0.000 C 
ATOM     19  C   UNL     1      88.413  70.029  87.799  0.00  0.00    +0.000 C 
ATOM     20  C   UNL     1      87.297  70.845  87.188  0.00  0.00    +0.000 C 
ATOM     21  C   UNL     1      87.535  70.923  85.869  0.00  0.00    +0.000 C 
ENDBRANCH  13  16
ENDBRANCH  12  13
ENDBRANCH   1  12
TORSDOF 3
ENDMDL
