MODEL 1
REMARK VINA RESULT:      -4.0      0.000      0.000
REMARK  Name = *****
REMARK  6 active torsions:
REMARK  status: ('A' for Active; 'I' for Inactive)
REMARK    1  A    between atoms: C_1  and  C_2
REMARK    2  A    between atoms: C_6  and  C_16
REMARK    3  A    between atoms: C_7  and  C_8
REMARK    4  A    between atoms: C_7  and  C_9
REMARK    5  A    between atoms: C_9  and  C_10
REMARK    6  A    between atoms: C_10  and  C_11
REMARK                            x       y       z     vdW  Elec       q    Type
REMARK                         _______ _______ _______ _____ _____    ______ ____
ROOT
ATOM      1  C   UNL     1      85.976  68.487  87.042  0.00  0.00    +0.000 C 
ATOM      2  C   UNL     1      86.937  69.024  88.114  0.00  0.00    +0.000 C 
ATOM      3  C   UNL     1      86.311  68.790  89.508  0.00  0.00    +0.000 C 
ATOM      4  C   UNL     1      85.422  69.904  89.969  0.00  0.00    +0.000 C 
ATOM      5  C   UNL     1      85.388  71.117  89.398  0.00  0.00    +0.000 C 
ATOM      6  C   UNL     1      86.245  71.536  88.224  0.00  0.00    +0.000 C 
ATOM      7  C   UNL     1      87.410  70.520  87.919  0.00  0.00    +0.000 C 
ATOM      8  C   UNL     1      88.551  70.778  88.955  0.00  0.00    +0.000 C 
ATOM      9  C   UNL     1      85.316  71.878  87.050  0.00  0.00    +0.000 C 
ENDROOT
BRANCH   7  10
ATOM     10  C   UNL     1      88.021  70.702  86.491  0.00  0.00    +0.000 C 
BRANCH  10  11
ATOM     11  C   UNL     1      89.523  70.406  86.356  0.00  0.00    +0.000 C 
BRANCH  11  12
ATOM     12  C   UNL     1      89.774  69.117  85.644  0.00  0.00    +0.000 A 
ATOM     13  C   UNL     1      89.889  68.923  84.282  0.00  0.00    +0.000 A 
ATOM     14  O   UNL     1      90.117  67.617  83.997  0.00  0.00    +0.000 OA
ATOM     15  C   UNL     1      90.149  66.956  85.182  0.00  0.00    +0.000 A 
ATOM     16  C   UNL     1      89.943  67.828  86.224  0.00  0.00    +0.000 A 
ENDBRANCH  11  12
ENDBRANCH  10  11
ENDBRANCH   7  10
TORSDOF 3
ENDMDL
