MODEL 1
REMARK VINA RESULT:      -4.5      0.000      0.000
REMARK  Name = *****
REMARK  3 active torsions:
REMARK  status: ('A' for Active; 'I' for Inactive)
REMARK    1  A    between atoms: C_5  and  C_6
REMARK    2  A    between atoms: C_6  and  C_9
REMARK    3  A    between atoms: C_9  and  C_12
REMARK                            x       y       z     vdW  Elec       q    Type
REMARK                         _______ _______ _______ _____ _____    ______ ____
ROOT
ATOM      1  C   UNL     1     100.313 127.597  83.111  0.00  0.00    +0.000 C 
ATOM      2  C   UNL     1      99.213 127.167  82.550  0.00  0.00    +0.000 C 
ATOM      3  O   UNL     1      98.226 126.785  82.037  0.00  0.00    +0.000 OA
ENDROOT
BRANCH   1   8
ATOM      4  C   UNL     1      99.362 129.946  83.497  0.00  0.00    +0.000 A 
ATOM      5  C   UNL     1      99.704 131.140  84.095  0.00  0.00    +0.000 A 
ATOM      6  S   UNL     1     101.243 131.071  84.828  0.00  0.00    +0.000 S 
ATOM      7  C   UNL     1     101.458 129.441  84.350  0.00  0.00    +0.000 A 
ATOM      8  C   UNL     1     100.382 128.944  83.634  0.00  0.00    +0.000 A 
ENDBRANCH   1   8
BRANCH   1   9
ATOM      9  C   UNL     1     101.452 126.676  83.150  0.00  0.00    +0.000 C 
ATOM     10  C   UNL     1     101.581 125.926  84.213  0.00  0.00    +0.000 C 
ATOM     11  O   UNL     1     101.703 125.259  85.173  0.00  0.00    +0.000 OA
BRANCH   9  12
ATOM     12  C   UNL     1     102.431 126.603  82.088  0.00  0.00    +0.000 A 
ATOM     13  C   UNL     1     102.844 125.421  81.499  0.00  0.00    +0.000 A 
ATOM     14  S   UNL     1     104.008 125.663  80.265  0.00  0.00    +0.000 S 
ATOM     15  C   UNL     1     103.987 127.352  80.504  0.00  0.00    +0.000 A 
ATOM     16  C   UNL     1     103.111 127.724  81.501  0.00  0.00    +0.000 A 
ENDBRANCH   9  12
ENDBRANCH   1   9
TORSDOF 3
ENDMDL
