MODEL 1
REMARK VINA RESULT:      -4.0      0.000      0.000
REMARK  Name = *****
REMARK  5 active torsions:
REMARK  status: ('A' for Active; 'I' for Inactive)
REMARK    1  A    between atoms: C_1  and  C_2
REMARK    2  A    between atoms: C_7  and  C_8
REMARK    3  A    between atoms: C_8  and  S_10
REMARK    4  A    between atoms: S_10  and  C_11
REMARK    5  A    between atoms: C_11  and  C_12
REMARK                            x       y       z     vdW  Elec       q    Type
REMARK                         _______ _______ _______ _____ _____    ______ ____
ROOT
ATOM      1  C   UNL     1      87.854  65.459  87.271  0.00  0.00    +0.000 C 
ATOM      2  C   UNL     1      88.752  66.380  86.896  0.00  0.00    +0.000 C 
ENDROOT
BRANCH   1   9
ATOM      3  C   UNL     1      85.586  66.326  89.022  0.00  0.00    +0.000 C 
ATOM      4  C   UNL     1      86.705  65.456  89.525  0.00  0.00    +0.000 A 
ATOM      5  C   UNL     1      86.694  65.036  90.866  0.00  0.00    +0.000 A 
ATOM      6  C   UNL     1      87.712  64.225  91.371  0.00  0.00    +0.000 A 
ATOM      7  C   UNL     1      88.755  63.823  90.543  0.00  0.00    +0.000 A 
ATOM      8  C   UNL     1      88.781  64.231  89.210  0.00  0.00    +0.000 A 
ATOM      9  C   UNL     1      87.761  65.043  88.683  0.00  0.00    +0.000 A 
ENDBRANCH   1   9
BRANCH   1  10
ATOM     10  S   UNL     1      86.698  64.758  86.192  0.00  0.00    +0.000 S 
BRANCH  10  11
ATOM     11  C   UNL     1      86.768  62.996  86.628  0.00  0.00    +0.000 C 
BRANCH  11  12
ATOM     12  C   UNL     1      85.804  62.590  87.716  0.00  0.00    +0.000 A 
ATOM     13  C   UNL     1      86.214  61.746  88.760  0.00  0.00    +0.000 A 
ATOM     14  C   UNL     1      85.319  61.373  89.764  0.00  0.00    +0.000 A 
ATOM     15  C   UNL     1      84.007  61.841  89.739  0.00  0.00    +0.000 A 
ATOM     16  C   UNL     1      83.588  62.682  88.711  0.00  0.00    +0.000 A 
ATOM     17  C   UNL     1      84.479  63.055  87.704  0.00  0.00    +0.000 A 
ENDBRANCH  11  12
ENDBRANCH  10  11
ENDBRANCH   1  10
TORSDOF 4
ENDMDL
