MODEL 1
REMARK VINA RESULT:      -4.9      0.000      0.000
REMARK  Name = *****
REMARK  5 active torsions:
REMARK  status: ('A' for Active; 'I' for Inactive)
REMARK    1  A    between atoms: C_1  and  C_2
REMARK    2  A    between atoms: C_5  and  S_8
REMARK    3  A    between atoms: S_8  and  C_10
REMARK    4  A    between atoms: C_10  and  C_11
REMARK    5  A    between atoms: C_10  and  C_12
REMARK                            x       y       z     vdW  Elec       q    Type
REMARK                         _______ _______ _______ _____ _____    ______ ____
ROOT
ATOM      1  S   UNL     1      89.020  70.530  86.699  0.00  0.00    +0.000 S 
ATOM      2  O   UNL     1      90.123  70.875  85.739  0.00  0.00    +0.000 OA
ENDROOT
BRANCH   1   7
ATOM      3  C   UNL     1      88.903  64.418  86.958  0.00  0.00    +0.000 C 
ATOM      4  C   UNL     1      88.944  65.917  86.925  0.00  0.00    +0.000 A 
ATOM      5  C   UNL     1      87.884  66.666  87.449  0.00  0.00    +0.000 A 
ATOM      6  C   UNL     1      87.903  68.061  87.386  0.00  0.00    +0.000 A 
ATOM      7  C   UNL     1      88.982  68.726  86.796  0.00  0.00    +0.000 A 
ATOM      8  C   UNL     1      90.029  67.980  86.244  0.00  0.00    +0.000 A 
ATOM      9  C   UNL     1      90.008  66.584  86.307  0.00  0.00    +0.000 A 
ENDBRANCH   1   7
BRANCH   1  10
ATOM     10  C   UNL     1      87.403  70.793  85.848  0.00  0.00    +0.000 C 
ATOM     11  C   UNL     1      87.547  71.678  84.610  0.00  0.00    +0.000 C 
BRANCH  10  12
ATOM     12  C   UNL     1      86.375  71.347  86.821  0.00  0.00    +0.000 A 
ATOM     13  C   UNL     1      86.573  71.295  88.210  0.00  0.00    +0.000 A 
ATOM     14  C   UNL     1      85.619  71.812  89.088  0.00  0.00    +0.000 A 
ATOM     15  C   UNL     1      84.455  72.391  88.590  0.00  0.00    +0.000 A 
ATOM     16  C   UNL     1      84.243  72.453  87.215  0.00  0.00    +0.000 A 
ATOM     17  C   UNL     1      85.195  71.934  86.335  0.00  0.00    +0.000 A 
ENDBRANCH  10  12
ENDBRANCH   1  10
TORSDOF 3
ENDMDL
