REMARK  Name = *****
REMARK  4 active torsions:
REMARK  status: ('A' for Active; 'I' for Inactive)
REMARK    1  A    between atoms: C_4  and  C_7
REMARK    2  A    between atoms: C_7  and  O_8
REMARK    3  A    between atoms: O_8  and  C_9
REMARK    4  A    between atoms: C_9  and  C_11
REMARK                            x       y       z     vdW  Elec       q    Type
REMARK                         _______ _______ _______ _____ _____    ______ ____
ROOT
ATOM      1  O   UNL     1      -3.725  -0.809  -0.460  0.00  0.00    +0.000 OA
ENDROOT
BRANCH   1   2
ATOM      2  C   UNL     1      -4.387  -0.799   0.733  0.00  0.00    +0.000 C 
ATOM      3  O   UNL     1      -4.385   0.145   1.516  0.00  0.00    +0.000 OA
BRANCH   2   4
ATOM      4  C   UNL     1      -5.084  -2.061   0.909  0.00  0.00    +0.000 A 
ATOM      5  C   UNL     1      -5.118  -3.173   0.085  0.00  0.00    +0.000 A 
ATOM      6  C   UNL     1      -5.923  -4.224   0.613  0.00  0.00    +0.000 A 
ATOM      7  C   UNL     1      -6.480  -3.885   1.824  0.00  0.00    +0.000 A 
ATOM      8  S   UNL     1      -6.032  -2.311   2.317  0.00  0.00    +0.000 S 
ENDBRANCH   2   4
ENDBRANCH   1   2
BRANCH   1   9
ATOM      9  C   UNL     1      -2.951   0.359  -0.750  0.00  0.00    +0.000 C 
BRANCH   9  13
ATOM     10  C   UNL     1       1.136  -0.368   0.409  0.00  0.00    +0.000 A 
ATOM     11  C   UNL     1       0.658  -0.861  -0.803  0.00  0.00    +0.000 A 
ATOM     12  C   UNL     1      -0.664  -0.622  -1.182  0.00  0.00    +0.000 A 
ATOM     13  C   UNL     1      -1.517   0.120  -0.354  0.00  0.00    +0.000 A 
ATOM     14  C   UNL     1      -1.029   0.600   0.869  0.00  0.00    +0.000 A 
ATOM     15  C   UNL     1       0.293   0.360   1.246  0.00  0.00    +0.000 A 
ENDBRANCH   9  13
ENDBRANCH   1   9
TORSDOF 4
