REMARK  Name = *****
REMARK  1 active torsions:
REMARK  status: ('A' for Active; 'I' for Inactive)
REMARK    1  A    between atoms: C_10  and  C_13
REMARK                            x       y       z     vdW  Elec       q    Type
REMARK                         _______ _______ _______ _____ _____    ______ ____
ROOT
ATOM      1  C   UNL     1       2.757   0.602  -0.368  0.00  0.00    +0.000 C 
ATOM      2  C   UNL     1       2.220  -0.746  -0.849  0.00  0.00    +0.000 C 
ATOM      3  C   UNL     1       1.305  -1.441   0.161  0.00  0.00    +0.000 C 
ATOM      4  C   UNL     1      -0.112  -0.919   0.119  0.00  0.00    +0.000 A 
ATOM      5  C   UNL     1      -0.377   0.392   0.518  0.00  0.00    +0.000 A 
ATOM      6  C   UNL     1       0.702   1.338   0.971  0.00  0.00    +0.000 C 
ATOM      7  C   UNL     1       1.694   1.677  -0.141  0.00  0.00    +0.000 C 
ATOM      8  N   UNL     1      -1.626   0.907   0.494  0.00  0.00    +0.000 NA
ATOM      9  N   UNL     1      -2.681   0.149   0.081  0.00  0.00    +0.000 NA
ATOM     10  C   UNL     1      -2.490  -1.129  -0.317  0.00  0.00    +0.000 A 
ATOM     11  C   UNL     1      -1.207  -1.687  -0.321  0.00  0.00    +0.000 A 
ATOM     12 CL   UNL     1      -0.963  -3.298  -0.926  0.00  0.00    +0.000 Cl
ENDROOT
BRANCH  10  13
ATOM     13  C   UNL     1      -3.721  -1.817  -0.735  0.00  0.00    +0.000 A 
ATOM     14  C   UNL     1      -4.500  -1.303  -1.787  0.00  0.00    +0.000 A 
ATOM     15  C   UNL     1      -5.676  -1.939  -2.191  0.00  0.00    +0.000 A 
ATOM     16  C   UNL     1      -6.101  -3.096  -1.543  0.00  0.00    +0.000 A 
ATOM     17  C   UNL     1      -5.353  -3.614  -0.488  0.00  0.00    +0.000 A 
ATOM     18  C   UNL     1      -4.177  -2.976  -0.084  0.00  0.00    +0.000 A 
ENDBRANCH  10  13
TORSDOF 1
