REMARK  Name = *****
REMARK  5 active torsions:
REMARK  status: ('A' for Active; 'I' for Inactive)
REMARK    1  A    between atoms: C_1  and  C_2
REMARK    2  A    between atoms: C_7  and  C_8
REMARK    3  A    between atoms: C_8  and  C_9
REMARK    4  A    between atoms: C_9  and  C_10
REMARK    5  A    between atoms: C_10  and  C_12
REMARK                            x       y       z     vdW  Elec       q    Type
REMARK                         _______ _______ _______ _____ _____    ______ ____
ROOT
ATOM      1  C   UNL     1       3.432  -2.042   0.911  0.00  0.00    +0.000 C 
ATOM      2  O   UNL     1       4.432  -1.384   0.621  0.00  0.00    +0.000 OA
ENDROOT
BRANCH   1   3
ATOM      3  C   UNL     1       3.070  -2.172   2.341  0.00  0.00    +0.000 A 
ATOM      4  C   UNL     1       2.559  -3.355   2.872  0.00  0.00    +0.000 A 
ATOM      5  C   UNL     1       2.227  -3.447   4.221  0.00  0.00    +0.000 A 
ATOM      6  C   UNL     1       2.416  -2.343   5.048  0.00  0.00    +0.000 A 
ATOM      7  C   UNL     1       2.940  -1.155   4.537  0.00  0.00    +0.000 A 
ATOM      8  C   UNL     1       3.273  -1.070   3.182  0.00  0.00    +0.000 A 
ATOM      9 CL   UNL     1       2.003  -2.445   6.714  0.00  0.00    +0.000 Cl
ATOM     10  F   UNL     1       2.385  -4.437   2.101  0.00  0.00    +0.000 F 
ENDBRANCH   1   3
BRANCH   1  11
ATOM     11  C   UNL     1       2.594  -2.713  -0.163  0.00  0.00    +0.000 C 
BRANCH  11  12
ATOM     12  C   UNL     1       1.085  -2.465  -0.056  0.00  0.00    +0.000 C 
BRANCH  12  19
ATOM     13  C   UNL     1      -1.117  -1.688   1.857  0.00  0.00    +0.000 C 
ATOM     14  C   UNL     1      -0.375  -0.666   1.036  0.00  0.00    +0.000 A 
ATOM     15  C   UNL     1      -0.725   0.687   1.186  0.00  0.00    +0.000 A 
ATOM     16  C   UNL     1      -0.087   1.679   0.444  0.00  0.00    +0.000 A 
ATOM     17  C   UNL     1       0.906   1.332  -0.462  0.00  0.00    +0.000 A 
ATOM     18  C   UNL     1       1.270  -0.006  -0.618  0.00  0.00    +0.000 A 
ATOM     19  C   UNL     1       0.658  -1.022   0.140  0.00  0.00    +0.000 A 
ENDBRANCH  12  19
ENDBRANCH  11  12
ENDBRANCH   1  11
TORSDOF 4
