MODEL 1
REMARK VINA RESULT:      -4.2      0.000      0.000
REMARK  Name = *****
REMARK  5 active torsions:
REMARK  status: ('A' for Active; 'I' for Inactive)
REMARK    1  A    between atoms: C_1  and  P_2
REMARK    2  A    between atoms: P_2  and  C_3
REMARK    3  A    between atoms: P_2  and  P_9
REMARK    4  A    between atoms: P_9  and  C_10
REMARK    5  A    between atoms: P_9  and  C_11
REMARK                            x       y       z     vdW  Elec       q    Type
REMARK                         _______ _______ _______ _____ _____    ______ ____
ROOT
ATOM      1  C   UNL     1     105.317 127.937  80.830  0.00  0.00    +0.000 C 
ATOM      2  P   UNL     1     104.706 126.594  81.901  0.00  0.00    +0.000 P 
ENDROOT
BRANCH   2   3
ATOM      3  C   UNL     1     103.032 127.101  82.405  0.00  0.00    +0.000 A 
ATOM      4  C   UNL     1     101.939 126.280  82.080  0.00  0.00    +0.000 A 
ATOM      5  C   UNL     1     100.637 126.622  82.457  0.00  0.00    +0.000 A 
ATOM      6  C   UNL     1     100.406 127.788  83.180  0.00  0.00    +0.000 A 
ATOM      7  C   UNL     1     101.477 128.605  83.530  0.00  0.00    +0.000 A 
ATOM      8  C   UNL     1     102.779 128.260  83.151  0.00  0.00    +0.000 A 
ENDBRANCH   2   3
BRANCH   2   9
ATOM      9  P   UNL     1     104.285 124.982  80.338  0.00  0.00    +0.000 P 
ATOM     10  C   UNL     1     105.789 125.112  79.318  0.00  0.00    +0.000 C 
BRANCH   9  11
ATOM     11  C   UNL     1     104.473 123.440  81.284  0.00  0.00    +0.000 A 
ATOM     12  C   UNL     1     104.352 123.472  82.684  0.00  0.00    +0.000 A 
ATOM     13  C   UNL     1     104.477 122.309  83.449  0.00  0.00    +0.000 A 
ATOM     14  C   UNL     1     104.713 121.089  82.826  0.00  0.00    +0.000 A 
ATOM     15  C   UNL     1     104.816 121.031  81.440  0.00  0.00    +0.000 A 
ATOM     16  C   UNL     1     104.691 122.196  80.675  0.00  0.00    +0.000 A 
ENDBRANCH   9  11
ENDBRANCH   2   9
TORSDOF 3
ENDMDL
