REMARK  Name = *****
REMARK  3 active torsions:
REMARK  status: ('A' for Active; 'I' for Inactive)
REMARK    1  A    between atoms: C_5  and  N_7
REMARK    2  A    between atoms: N_7  and  C_8
REMARK    3  A    between atoms: C_8  and  C_10
REMARK                            x       y       z     vdW  Elec       q    Type
REMARK                         _______ _______ _______ _____ _____    ______ ____
ROOT
ATOM      1  N   UNL     1      -0.929  -2.034  -0.219  0.00  0.00    +0.000 N 
ATOM      2  H   UNL     1      -0.342  -2.809  -0.373  0.00  0.00    +0.000 HD
ENDROOT
BRANCH   1   7
ATOM      3  C   UNL     1       0.000   1.589   0.227  0.00  0.00    +0.000 A 
ATOM      4  C   UNL     1       1.384   1.482   0.337  0.00  0.00    +0.000 A 
ATOM      5  C   UNL     1       1.983   0.230   0.256  0.00  0.00    +0.000 A 
ATOM      6  C   UNL     1       1.192  -0.907   0.073  0.00  0.00    +0.000 A 
ATOM      7  C   UNL     1      -0.215  -0.821  -0.025  0.00  0.00    +0.000 A 
ATOM      8  C   UNL     1      -0.792   0.447   0.044  0.00  0.00    +0.000 A 
ATOM      9 CL   UNL     1       1.998  -2.440  -0.027  0.00  0.00    +0.000 Cl
ENDBRANCH   1   7
BRANCH   1  10
ATOM     10  C   UNL     1      -2.277  -2.361  -0.237  0.00  0.00    +0.000 C 
ATOM     11  S   UNL     1      -3.610  -1.405   0.104  0.00  0.00    +0.000 S 
BRANCH  10  12
ATOM     12  C   UNL     1      -2.483  -3.796  -0.596  0.00  0.00    +0.000 A 
ATOM     13  C   UNL     1      -2.085  -4.242  -1.862  0.00  0.00    +0.000 A 
ATOM     14  C   UNL     1      -2.251  -5.585  -2.193  0.00  0.00    +0.000 A 
ATOM     15  C   UNL     1      -2.802  -6.481  -1.276  0.00  0.00    +0.000 A 
ATOM     16  C   UNL     1      -3.192  -6.033  -0.012  0.00  0.00    +0.000 A 
ATOM     17  C   UNL     1      -3.032  -4.690   0.332  0.00  0.00    +0.000 A 
ATOM     18 CL   UNL     1      -1.769  -6.144  -3.747  0.00  0.00    +0.000 Cl
ENDBRANCH  10  12
ENDBRANCH   1  10
TORSDOF 3
