MODEL 1
REMARK VINA RESULT:      -4.5      0.000      0.000
REMARK  Name = *****
REMARK  3 active torsions:
REMARK  status: ('A' for Active; 'I' for Inactive)
REMARK    1  A    between atoms: C_7  and  C_8
REMARK    2  A    between atoms: C_8  and  C_9
REMARK    3  A    between atoms: C_9  and  C_10
REMARK                            x       y       z     vdW  Elec       q    Type
REMARK                         _______ _______ _______ _____ _____    ______ ____
ROOT
ATOM      1  C   UNL     1      87.768  69.406  87.191  0.00  0.00    +0.000 C 
ENDROOT
BRANCH   1   8
ATOM      2  C   UNL     1      90.273  67.085  86.300  0.00  0.00    +0.000 C 
ATOM      3  C   UNL     1      89.657  68.226  85.944  0.00  0.00    +0.000 C 
ATOM      4  C   UNL     1      89.334  68.541  84.504  0.00  0.00    +0.000 C 
ATOM      5  C   UNL     1      89.931  69.886  84.094  0.00  0.00    +0.000 C 
ATOM      6  C   UNL     1      89.538  71.005  85.058  0.00  0.00    +0.000 C 
ATOM      7  C   UNL     1      89.885  70.646  86.505  0.00  0.00    +0.000 C 
ATOM      8  C   UNL     1      89.290  69.297  86.956  0.00  0.00    +0.000 C 
ENDBRANCH   1   8
BRANCH   1   9
ATOM      9  C   UNL     1      87.383  70.603  88.068  0.00  0.00    +0.000 C 
BRANCH   9  10
ATOM     10  C   UNL     1      86.191  71.339  87.506  0.00  0.00    +0.000 A 
ATOM     11  C   UNL     1      85.199  71.838  88.360  0.00  0.00    +0.000 A 
ATOM     12  C   UNL     1      84.087  72.502  87.840  0.00  0.00    +0.000 A 
ATOM     13  C   UNL     1      83.954  72.670  86.463  0.00  0.00    +0.000 A 
ATOM     14  C   UNL     1      84.933  72.173  85.604  0.00  0.00    +0.000 A 
ATOM     15  C   UNL     1      86.046  71.507  86.122  0.00  0.00    +0.000 A 
ENDBRANCH   9  10
ENDBRANCH   1   9
TORSDOF 3
ENDMDL
