MODEL 1
REMARK VINA RESULT:      -4.4      0.000      0.000
REMARK  Name = *****
REMARK  3 active torsions:
REMARK  status: ('A' for Active; 'I' for Inactive)
REMARK    1  A    between atoms: C_4  and  C_7
REMARK    2  A    between atoms: C_7  and  O_8
REMARK    3  A    between atoms: O_8  and  C_9
REMARK                            x       y       z     vdW  Elec       q    Type
REMARK                         _______ _______ _______ _____ _____    ______ ____
ROOT
ATOM      1  O   UNL     1     102.516 127.001  83.199  0.00  0.00    +0.000 OA
ENDROOT
BRANCH   1   2
ATOM      2  C   UNL     1     101.250 127.513  83.133  0.00  0.00    +0.000 A 
ATOM      3  C   UNL     1     100.850 128.773  83.575  0.00  0.00    +0.000 A 
ATOM      4  C   UNL     1      99.516 129.154  83.441  0.00  0.00    +0.000 A 
ATOM      5  C   UNL     1      98.572 128.305  82.876  0.00  0.00    +0.000 A 
ATOM      6  C   UNL     1      98.968 127.045  82.434  0.00  0.00    +0.000 A 
ATOM      7  C   UNL     1     100.302 126.654  82.565  0.00  0.00    +0.000 A 
ATOM      8  F   UNL     1      99.136 130.365  83.868  0.00  0.00    +0.000 F 
ENDBRANCH   1   2
BRANCH   1   9
ATOM      9  C   UNL     1     102.643 125.613  83.511  0.00  0.00    +0.000 C 
BRANCH   9  13
ATOM     10  C   UNL     1     104.959 123.601  80.467  0.00  0.00    +0.000 A 
ATOM     11  C   UNL     1     104.243 124.752  80.145  0.00  0.00    +0.000 A 
ATOM     12  C   UNL     1     103.485 125.401  81.121  0.00  0.00    +0.000 A 
ATOM     13  C   UNL     1     103.422 124.899  82.429  0.00  0.00    +0.000 A 
ATOM     14  C   UNL     1     104.160 123.748  82.743  0.00  0.00    +0.000 A 
ATOM     15  C   UNL     1     104.920 123.101  81.767  0.00  0.00    +0.000 A 
ENDBRANCH   9  13
ENDBRANCH   1   9
TORSDOF 3
ENDMDL
