REMARK  Name = *****
REMARK  3 active torsions:
REMARK  status: ('A' for Active; 'I' for Inactive)
REMARK    1  A    between atoms: C_1  and  C_2
REMARK    2  A    between atoms: C_2  and  C_11
REMARK    3  A    between atoms: N_3  and  C_4
REMARK                            x       y       z     vdW  Elec       q    Type
REMARK                         _______ _______ _______ _____ _____    ______ ____
ROOT
ATOM      1  C   UNL     1       1.216  -0.497   0.809  0.00  0.00    +0.000 C 
ATOM      2  C   UNL     1       2.469   0.020   0.127  0.00  0.00    +0.000 C 
ATOM      3  N   UNL     1       2.914  -0.425  -1.013  0.00  0.00    +0.000 NA
ENDROOT
BRANCH   3   4
ATOM      4  C   UNL     1       2.224  -1.430  -1.699  0.00  0.00    +0.000 A 
ATOM      5  C   UNL     1       1.164  -1.106  -2.553  0.00  0.00    +0.000 A 
ATOM      6  C   UNL     1       0.494  -2.109  -3.256  0.00  0.00    +0.000 A 
ATOM      7  C   UNL     1       0.899  -3.431  -3.112  0.00  0.00    +0.000 A 
ATOM      8  C   UNL     1       1.963  -3.768  -2.283  0.00  0.00    +0.000 A 
ATOM      9  C   UNL     1       2.631  -2.763  -1.582  0.00  0.00    +0.000 A 
ATOM     10  F   UNL     1       0.258  -4.395  -3.786  0.00  0.00    +0.000 F 
ENDBRANCH   3   4
BRANCH   2  11
ATOM     11  C   UNL     1       3.231   1.119   0.799  0.00  0.00    +0.000 A 
ATOM     12  C   UNL     1       2.599   2.038   1.646  0.00  0.00    +0.000 A 
ATOM     13  C   UNL     1       3.341   3.058   2.251  0.00  0.00    +0.000 A 
ATOM     14  C   UNL     1       4.709   3.164   2.006  0.00  0.00    +0.000 A 
ATOM     15  C   UNL     1       5.345   2.263   1.154  0.00  0.00    +0.000 A 
ATOM     16  C   UNL     1       4.605   1.244   0.548  0.00  0.00    +0.000 A 
ATOM     17 CL   UNL     1       5.616   4.420   2.752  0.00  0.00    +0.000 Cl
ENDBRANCH   2  11
TORSDOF 2
