MODEL 1
REMARK VINA RESULT:      -5.1      0.000      0.000
REMARK  Name = *****
REMARK  3 active torsions:
REMARK  status: ('A' for Active; 'I' for Inactive)
REMARK    1  A    between atoms: C_1  and  C_2
REMARK    2  A    between atoms: C_4  and  C_8
REMARK    3  A    between atoms: C_9  and  C_10
REMARK                            x       y       z     vdW  Elec       q    Type
REMARK                         _______ _______ _______ _____ _____    ______ ____
ROOT
ATOM      1  C   UNL     1     102.055 126.234  82.025  0.00  0.00    +0.000 C 
ATOM      2  C   UNL     1     102.925 125.527  81.593  0.00  0.00    +0.000 C 
ENDROOT
BRANCH   1   6
ATOM      3  C   UNL     1     100.684 130.343  84.457  0.00  0.00    +0.000 C 
ATOM      4  C   UNL     1     100.335 129.072  83.743  0.00  0.00    +0.000 A 
ATOM      5  C   UNL     1     101.344 128.245  83.230  0.00  0.00    +0.000 A 
ATOM      6  C   UNL     1     101.018 127.075  82.537  0.00  0.00    +0.000 A 
ATOM      7  C   UNL     1      99.680 126.731  82.344  0.00  0.00    +0.000 A 
ATOM      8  C   UNL     1      98.669 127.556  82.838  0.00  0.00    +0.000 A 
ATOM      9  C   UNL     1      98.995 128.724  83.531  0.00  0.00    +0.000 A 
ENDBRANCH   1   6
BRANCH   2  10
ATOM     10  C   UNL     1     103.960 124.686  81.077  0.00  0.00    +0.000 A 
ATOM     11  C   UNL     1     104.624 125.036  79.900  0.00  0.00    +0.000 A 
ATOM     12  C   UNL     1     105.631 124.209  79.405  0.00  0.00    +0.000 A 
ATOM     13  C   UNL     1     105.980 123.037  80.074  0.00  0.00    +0.000 A 
ATOM     14  C   UNL     1     105.316 122.686  81.250  0.00  0.00    +0.000 A 
ATOM     15  C   UNL     1     104.307 123.510  81.751  0.00  0.00    +0.000 A 
ATOM     16 CL   UNL     1     106.452 124.639  77.954  0.00  0.00    +0.000 Cl
ENDBRANCH   2  10
TORSDOF 2
ENDMDL
