MODEL 1
REMARK VINA RESULT:      -4.5      0.000      0.000
REMARK  Name = *****
REMARK  4 active torsions:
REMARK  status: ('A' for Active; 'I' for Inactive)
REMARK    1  A    between atoms: C_1  and  C_2
REMARK    2  A    between atoms: C_7  and  S_8
REMARK    3  A    between atoms: S_8  and  C_9
REMARK    4  A    between atoms: C_10  and  C_11
REMARK                            x       y       z     vdW  Elec       q    Type
REMARK                         _______ _______ _______ _____ _____    ______ ____
ROOT
ATOM      1  S   UNL     1     101.145 126.501  83.540  0.00  0.00    +0.000 S 
ENDROOT
BRANCH   1   8
ATOM      2  C   UNL     1     102.925 129.111  83.902  0.00  0.00    +0.000 C 
ATOM      3  C   UNL     1     103.153 128.268  82.677  0.00  0.00    +0.000 A 
ATOM      4  C   UNL     1     104.132 128.666  81.749  0.00  0.00    +0.000 A 
ATOM      5  C   UNL     1     104.382 127.911  80.603  0.00  0.00    +0.000 A 
ATOM      6  C   UNL     1     103.661 126.745  80.367  0.00  0.00    +0.000 A 
ATOM      7  C   UNL     1     102.684 126.337  81.275  0.00  0.00    +0.000 A 
ATOM      8  C   UNL     1     102.416 127.093  82.426  0.00  0.00    +0.000 A 
ENDBRANCH   1   8
BRANCH   1   9
ATOM      9  C   UNL     1      99.769 126.701  82.504  0.00  0.00    +0.000 C 
ATOM     10  C   UNL     1      98.856 127.675  82.631  0.00  0.00    +0.000 C 
BRANCH  10  11
ATOM     11  C   UNL     1      98.868 128.745  83.632  0.00  0.00    +0.000 A 
ATOM     12  C   UNL     1      98.336 128.522  84.907  0.00  0.00    +0.000 A 
ATOM     13  C   UNL     1      98.349 129.542  85.861  0.00  0.00    +0.000 A 
ATOM     14  C   UNL     1      98.892 130.787  85.544  0.00  0.00    +0.000 A 
ATOM     15  C   UNL     1      99.420 131.014  84.274  0.00  0.00    +0.000 A 
ATOM     16  C   UNL     1      99.410 129.996  83.319  0.00  0.00    +0.000 A 
ENDBRANCH  10  11
ENDBRANCH   1   9
TORSDOF 3
ENDMDL
