MODEL 1
REMARK VINA RESULT:      -4.6      0.000      0.000
REMARK  Name = *****
REMARK  4 active torsions:
REMARK  status: ('A' for Active; 'I' for Inactive)
REMARK    1  A    between atoms: C_4  and  C_7
REMARK    2  A    between atoms: C_7  and  C_8
REMARK    3  A    between atoms: C_7  and  S_9
REMARK    4  A    between atoms: C_8  and  C_11
REMARK                            x       y       z     vdW  Elec       q    Type
REMARK                         _______ _______ _______ _____ _____    ______ ____
ROOT
ATOM      1  C   UNL     1      89.465  70.040  86.411  0.00  0.00    +0.000 C 
ENDROOT
BRANCH   1   5
ATOM      2  C   UNL     1      86.498  71.483  89.107  0.00  0.00    +0.000 A 
ATOM      3  C   UNL     1      86.205  71.412  87.747  0.00  0.00    +0.000 A 
ATOM      4  C   UNL     1      87.164  70.939  86.847  0.00  0.00    +0.000 A 
ATOM      5  C   UNL     1      88.426  70.533  87.299  0.00  0.00    +0.000 A 
ATOM      6  C   UNL     1      88.705  70.604  88.672  0.00  0.00    +0.000 A 
ATOM      7  C   UNL     1      87.747  71.079  89.571  0.00  0.00    +0.000 A 
ENDBRANCH   1   5
BRANCH   1   8
ATOM      8  S   UNL     1      89.651  68.490  85.607  0.00  0.00    +0.000 S 
ATOM      9  O   UNL     1      90.419  67.634  86.570  0.00  0.00    +0.000 OA
ENDBRANCH   1   8
BRANCH   1  10
ATOM     10  C   UNL     1      89.512  70.160  85.084  0.00  0.00    +0.000 C 
BRANCH  10  11
ATOM     11  C   UNL     1      89.896  71.341  84.332  0.00  0.00    +0.000 A 
ATOM     12  C   UNL     1      91.199  71.405  83.821  0.00  0.00    +0.000 A 
ATOM     13  C   UNL     1      91.627  72.521  83.098  0.00  0.00    +0.000 A 
ATOM     14  C   UNL     1      90.755  73.584  82.877  0.00  0.00    +0.000 A 
ATOM     15  C   UNL     1      89.456  73.531  83.376  0.00  0.00    +0.000 A 
ATOM     16  C   UNL     1      89.026  72.416  84.100  0.00  0.00    +0.000 A 
ENDBRANCH  10  11
ENDBRANCH   1  10
TORSDOF 4
ENDMDL
