MODEL 1
REMARK VINA RESULT:      -4.6      0.000      0.000
REMARK  Name = *****
REMARK  3 active torsions:
REMARK  status: ('A' for Active; 'I' for Inactive)
REMARK    1  A    between atoms: C_1  and  N_2
REMARK    2  A    between atoms: C_6  and  C_7
REMARK    3  A    between atoms: C_8  and  C_9
REMARK                            x       y       z     vdW  Elec       q    Type
REMARK                         _______ _______ _______ _____ _____    ______ ____
ROOT
ATOM      1  C   UNL     1     104.880 121.564  84.141  0.00  0.00    +0.000 C 
ATOM      2  N   UNL     1     104.828 122.315  82.909  0.00  0.00    +0.000 N 
ATOM      3  C   UNL     1     104.147 123.508  82.820  0.00  0.00    +0.000 C 
ATOM      4  O   UNL     1     103.552 124.048  83.742  0.00  0.00    +0.000 OA
ATOM      5  C   UNL     1     104.228 124.042  81.428  0.00  0.00    +0.000 C 
ATOM      6  C   UNL     1     103.721 125.183  80.938  0.00  0.00    +0.000 C 
ATOM      7  S   UNL     1     105.125 122.937  80.440  0.00  0.00    +0.000 S 
ATOM      8  C   UNL     1     105.375 121.815  81.761  0.00  0.00    +0.000 C 
ATOM      9  O   UNL     1     105.952 120.748  81.622  0.00  0.00    +0.000 OA
ENDROOT
BRANCH   6  10
ATOM     10  C   UNL     1     102.955 126.181  81.653  0.00  0.00    +0.000 C 
ATOM     11  C   UNL     1     101.626 126.084  81.827  0.00  0.00    +0.000 C 
BRANCH  11  12
ATOM     12  C   UNL     1     100.811 127.071  82.553  0.00  0.00    +0.000 A 
ATOM     13  C   UNL     1     101.376 128.135  83.269  0.00  0.00    +0.000 A 
ATOM     14  C   UNL     1     100.562 129.068  83.917  0.00  0.00    +0.000 A 
ATOM     15  C   UNL     1      99.176 128.956  83.846  0.00  0.00    +0.000 A 
ATOM     16  C   UNL     1      98.602 127.913  83.124  0.00  0.00    +0.000 A 
ATOM     17  C   UNL     1      99.414 126.979  82.477  0.00  0.00    +0.000 A 
ENDBRANCH  11  12
ENDBRANCH   6  10
TORSDOF 2
ENDMDL
