MODEL 1
REMARK VINA RESULT:      -4.5      0.000      0.000
REMARK  Name = *****
REMARK  2 active torsions:
REMARK  status: ('A' for Active; 'I' for Inactive)
REMARK    1  A    between atoms: C_5  and  C_7
REMARK    2  A    between atoms: C_8  and  C_9
REMARK                            x       y       z     vdW  Elec       q    Type
REMARK                         _______ _______ _______ _____ _____    ______ ____
ROOT
ATOM      1  C   UNL     1     103.303 126.180  82.365  0.00  0.00    +0.000 C 
ATOM      2  C   UNL     1     101.986 125.928  82.284  0.00  0.00    +0.000 C 
ENDROOT
BRANCH   1   7
ATOM      3  C   UNL     1     104.948 123.414  80.265  0.00  0.00    +0.000 C 
ATOM      4  C   UNL     1     104.657 122.291  81.263  0.00  0.00    +0.000 C 
ATOM      5  C   UNL     1     104.565 122.778  82.678  0.00  0.00    +0.000 C 
ATOM      6  C   UNL     1     104.452 124.074  83.004  0.00  0.00    +0.000 C 
ATOM      7  C   UNL     1     104.373 125.185  81.984  0.00  0.00    +0.000 C 
ATOM      8  C   UNL     1     104.103 124.651  80.564  0.00  0.00    +0.000 C 
ENDBRANCH   1   7
BRANCH   2   9
ATOM      9  C   UNL     1     100.940 126.896  82.642  0.00  0.00    +0.000 A 
ATOM     10  C   UNL     1     101.309 128.085  83.284  0.00  0.00    +0.000 A 
ATOM     11  C   UNL     1     100.346 129.044  83.614  0.00  0.00    +0.000 A 
ATOM     12  C   UNL     1      99.007 128.828  83.293  0.00  0.00    +0.000 A 
ATOM     13  C   UNL     1      98.631 127.656  82.640  0.00  0.00    +0.000 A 
ATOM     14  C   UNL     1      99.594 126.697  82.312  0.00  0.00    +0.000 A 
ENDBRANCH   2   9
TORSDOF 2
ENDMDL
