MODEL 1
REMARK VINA RESULT:      -4.6      0.000      0.000
REMARK  Name = *****
REMARK  4 active torsions:
REMARK  status: ('A' for Active; 'I' for Inactive)
REMARK    1  A    between atoms: C_4  and  C_7
REMARK    2  A    between atoms: C_7  and  C_8
REMARK    3  A    between atoms: C_8  and  N_9
REMARK    4  A    between atoms: C_8  and  C_11
REMARK                            x       y       z     vdW  Elec       q    Type
REMARK                         _______ _______ _______ _____ _____    ______ ____
ROOT
ATOM      1  C   UNL     1      87.924  70.605  88.151  0.00  0.00    +0.000 C 
ENDROOT
BRANCH   1   2
ATOM      2  C   UNL     1      86.669  71.236  87.585  0.00  0.00    +0.000 A 
ATOM      3  C   UNL     1      86.551  71.380  86.193  0.00  0.00    +0.000 A 
ATOM      4  C   UNL     1      85.414  71.963  85.627  0.00  0.00    +0.000 A 
ATOM      5  C   UNL     1      84.380  72.409  86.445  0.00  0.00    +0.000 A 
ATOM      6  C   UNL     1      84.484  72.276  87.828  0.00  0.00    +0.000 A 
ATOM      7  C   UNL     1      85.622  71.695  88.396  0.00  0.00    +0.000 A 
ENDBRANCH   1   2
BRANCH   1   8
ATOM      8  N   UNL     1      88.009  70.551  89.451  0.00  0.00    +0.000 NA
ATOM      9 CL   UNL     1      88.759  71.924  90.186  0.00  0.00    +0.000 Cl
ENDBRANCH   1   8
BRANCH   1  10
ATOM     10  C   UNL     1      88.966  70.090  87.153  0.00  0.00    +0.000 C 
BRANCH  10  14
ATOM     11  C   UNL     1      89.076  65.803  86.571  0.00  0.00    +0.000 A 
ATOM     12  C   UNL     1      87.993  66.378  87.231  0.00  0.00    +0.000 A 
ATOM     13  C   UNL     1      87.942  67.760  87.426  0.00  0.00    +0.000 A 
ATOM     14  C   UNL     1      88.969  68.587  86.951  0.00  0.00    +0.000 A 
ATOM     15  C   UNL     1      90.065  67.991  86.306  0.00  0.00    +0.000 A 
ATOM     16  C   UNL     1      90.115  66.609  86.112  0.00  0.00    +0.000 A 
ENDBRANCH  10  14
ENDBRANCH   1  10
TORSDOF 4
ENDMDL
