MODEL 1
REMARK VINA RESULT:      -4.9      0.000      0.000
REMARK  Name = *****
REMARK  2 active torsions:
REMARK  status: ('A' for Active; 'I' for Inactive)
REMARK    1  A    between atoms: C_8  and  C_9
REMARK    2  A    between atoms: C_10  and  C_11
REMARK                            x       y       z     vdW  Elec       q    Type
REMARK                         _______ _______ _______ _____ _____    ______ ____
ROOT
ATOM      1  C   UNL     1     102.754 125.564  82.726  0.00  0.00    +0.000 C 
ATOM      2  C   UNL     1     102.937 125.608  81.396  0.00  0.00    +0.000 C 
ENDROOT
BRANCH   1  10
ATOM      3  C   UNL     1      99.476 129.328  83.306  0.00  0.00    +0.000 C 
ATOM      4  C   UNL     1      98.649 128.221  82.639  0.00  0.00    +0.000 C 
ATOM      5  C   UNL     1      99.099 127.069  83.211  0.00  0.00    +0.000 C 
ATOM      6  C   UNL     1      99.382 127.437  84.673  0.00  0.00    +0.000 C 
ATOM      7  C   UNL     1     100.414 128.455  84.195  0.00  0.00    +0.000 C 
ATOM      8  C   UNL     1     101.345 127.629  83.272  0.00  0.00    +0.000 C 
ATOM      9  C   UNL     1     100.414 126.588  82.629  0.00  0.00    +0.000 C 
ATOM     10  C   UNL     1     101.611 126.153  83.444  0.00  0.00    +0.000 C 
ENDBRANCH   1  10
BRANCH   2  11
ATOM     11  C   UNL     1     104.078 125.006  80.694  0.00  0.00    +0.000 A 
ATOM     12  C   UNL     1     104.886 125.826  79.892  0.00  0.00    +0.000 A 
ATOM     13  C   UNL     1     105.993 125.296  79.226  0.00  0.00    +0.000 A 
ATOM     14  C   UNL     1     106.301 123.950  79.370  0.00  0.00    +0.000 A 
ATOM     15  C   UNL     1     105.524 123.123  80.173  0.00  0.00    +0.000 A 
ATOM     16  C   UNL     1     104.416 123.652  80.839  0.00  0.00    +0.000 A 
ATOM     17  F   UNL     1     107.363 123.442  78.732  0.00  0.00    +0.000 F 
ENDBRANCH   2  11
TORSDOF 2
ENDMDL
