REMARK  Name = *****
REMARK  5 active torsions:
REMARK  status: ('A' for Active; 'I' for Inactive)
REMARK    1  A    between atoms: C_4  and  C_7
REMARK    2  A    between atoms: C_7  and  C_8
REMARK    3  A    between atoms: C_7  and  S_16
REMARK    4  A    between atoms: C_8  and  C_9
REMARK    5  A    between atoms: C_8  and  S_15
REMARK                            x       y       z     vdW  Elec       q    Type
REMARK                         _______ _______ _______ _____ _____    ______ ____
ROOT
ATOM      1  C   UNL     1      -2.646   0.255  -0.853  0.00  0.00    +0.000 C 
ENDROOT
BRANCH   1   5
ATOM      2  C   UNL     1       1.232  -0.163   1.058  0.00  0.00    +0.000 A 
ATOM      3  C   UNL     1       0.906  -0.987  -0.015  0.00  0.00    +0.000 A 
ATOM      4  C   UNL     1      -0.340  -0.872  -0.636  0.00  0.00    +0.000 A 
ATOM      5  C   UNL     1      -1.282   0.074  -0.196  0.00  0.00    +0.000 A 
ATOM      6  C   UNL     1      -0.934   0.892   0.895  0.00  0.00    +0.000 A 
ATOM      7  C   UNL     1       0.312   0.776   1.514  0.00  0.00    +0.000 A 
ENDBRANCH   1   5
BRANCH   1   8
ATOM      8  S   UNL     1      -3.568  -1.345  -0.938  0.00  0.00    +0.000 S 
ATOM      9  H   UNL     1      -2.923  -2.195  -1.782  0.00  0.00    +0.000 HD
ENDBRANCH   1   8
BRANCH   1  10
ATOM     10  C   UNL     1      -2.687   1.016  -2.219  0.00  0.00    +0.000 C 
BRANCH  10  11
ATOM     11  C   UNL     1      -2.340   2.498  -2.103  0.00  0.00    +0.000 A 
ATOM     12  C   UNL     1      -3.363   3.456  -2.220  0.00  0.00    +0.000 A 
ATOM     13  C   UNL     1      -3.086   4.820  -2.106  0.00  0.00    +0.000 A 
ATOM     14  C   UNL     1      -1.783   5.250  -1.871  0.00  0.00    +0.000 A 
ATOM     15  C   UNL     1      -0.757   4.317  -1.752  0.00  0.00    +0.000 A 
ATOM     16  C   UNL     1      -1.032   2.952  -1.868  0.00  0.00    +0.000 A 
ENDBRANCH  10  11
BRANCH  10  17
ATOM     17  S   UNL     1      -1.792   0.222  -3.621  0.00  0.00    +0.000 S 
ATOM     18  H   UNL     1      -0.453   0.264  -3.386  0.00  0.00    +0.000 HD
ENDBRANCH  10  17
ENDBRANCH   1  10
TORSDOF 5
