MODEL 1
REMARK VINA RESULT:      -4.7      0.000      0.000
REMARK  Name = *****
REMARK  2 active torsions:
REMARK  status: ('A' for Active; 'I' for Inactive)
REMARK    1  A    between atoms: C_1  and  C_9
REMARK    2  A    between atoms: C_2  and  C_3
REMARK                            x       y       z     vdW  Elec       q    Type
REMARK                         _______ _______ _______ _____ _____    ______ ____
ROOT
ATOM      1  C   UNL     1     102.079 125.962  82.304  0.00  0.00    +0.000 C 
ATOM      2  C   UNL     1     102.884 126.108  81.238  0.00  0.00    +0.000 C 
ENDROOT
BRANCH   2   3
ATOM      3  C   UNL     1     103.920 125.157  80.788  0.00  0.00    +0.000 A 
ATOM      4  C   UNL     1     104.777 125.394  79.705  0.00  0.00    +0.000 A 
ATOM      5  C   UNL     1     105.738 124.449  79.328  0.00  0.00    +0.000 A 
ATOM      6  C   UNL     1     105.856 123.253  80.031  0.00  0.00    +0.000 A 
ATOM      7  C   UNL     1     105.014 122.999  81.109  0.00  0.00    +0.000 A 
ATOM      8  C   UNL     1     104.053 123.944  81.483  0.00  0.00    +0.000 A 
ENDBRANCH   2   3
BRANCH   1   9
ATOM      9  C   UNL     1     101.070 126.959  82.692  0.00  0.00    +0.000 A 
ATOM     10  C   UNL     1     101.413 128.158  83.330  0.00  0.00    +0.000 A 
ATOM     11  C   UNL     1     100.430 129.096  83.656  0.00  0.00    +0.000 A 
ATOM     12  C   UNL     1      99.097 128.849  83.338  0.00  0.00    +0.000 A 
ATOM     13  C   UNL     1      98.745 127.667  82.689  0.00  0.00    +0.000 A 
ATOM     14  C   UNL     1      99.727 126.729  82.363  0.00  0.00    +0.000 A 
ENDBRANCH   1   9
TORSDOF 2
ENDMDL
