REMARK  Name = *****
REMARK  2 active torsions:
REMARK  status: ('A' for Active; 'I' for Inactive)
REMARK    1  A    between atoms: C_4  and  S_8
REMARK    2  A    between atoms: S_8  and  C_9
REMARK                            x       y       z     vdW  Elec       q    Type
REMARK                         _______ _______ _______ _____ _____    ______ ____
ROOT
ATOM      1  C   UNL     1       0.244   0.050   1.293  0.00  0.00    +0.000 C 
ATOM      2  C   UNL     1       0.024  -1.107   0.315  0.00  0.00    +0.000 C 
ATOM      3  C   UNL     1       1.089  -0.811  -0.766  0.00  0.00    +0.000 C 
ATOM      4  C   UNL     1       1.147   0.748  -0.776  0.00  0.00    +0.000 C 
ATOM      5  C   UNL     1       0.017   1.127   0.222  0.00  0.00    +0.000 C 
ATOM      6  C   UNL     1      -1.327   0.650  -0.287  0.00  0.00    +0.000 C 
ATOM      7  C   UNL     1      -1.318  -0.691  -0.237  0.00  0.00    +0.000 C 
ENDROOT
BRANCH   4   8
ATOM      8  S   UNL     1       0.955   1.508  -2.429  0.00  0.00    +0.000 S 
BRANCH   8   9
ATOM      9  C   UNL     1       2.414   0.878  -3.238  0.00  0.00    +0.000 A 
ATOM     10  C   UNL     1       2.271   0.073  -4.372  0.00  0.00    +0.000 A 
ATOM     11  C   UNL     1       3.398  -0.428  -5.028  0.00  0.00    +0.000 A 
ATOM     12  C   UNL     1       4.673  -0.120  -4.559  0.00  0.00    +0.000 A 
ATOM     13  C   UNL     1       4.823   0.694  -3.437  0.00  0.00    +0.000 A 
ATOM     14  C   UNL     1       3.697   1.195  -2.780  0.00  0.00    +0.000 A 
ENDBRANCH   8   9
ENDBRANCH   4   8
TORSDOF 2
