MODEL 1
REMARK VINA RESULT:      -4.7      0.000      0.000
REMARK  Name = *****
REMARK  3 active torsions:
REMARK  status: ('A' for Active; 'I' for Inactive)
REMARK    1  A    between atoms: C_4  and  C_7
REMARK    2  A    between atoms: C_7  and  C_8
REMARK    3  A    between atoms: C_8  and  C_9
REMARK                            x       y       z     vdW  Elec       q    Type
REMARK                         _______ _______ _______ _____ _____    ______ ____
ROOT
ATOM      1  C   UNL     1      87.588  70.470  88.340  0.00  0.00    +0.000 C 
ATOM      2 BR   UNL     1      88.360  71.515  89.820  0.00  0.00    +0.000 Br
ENDROOT
BRANCH   1   6
ATOM      3  C   UNL     1      84.122  72.594  86.856  0.00  0.00    +0.000 A 
ATOM      4  C   UNL     1      84.302  72.401  88.224  0.00  0.00    +0.000 A 
ATOM      5  C   UNL     1      85.427  71.720  88.693  0.00  0.00    +0.000 A 
ATOM      6  C   UNL     1      86.390  71.223  87.801  0.00  0.00    +0.000 A 
ATOM      7  C   UNL     1      86.193  71.426  86.425  0.00  0.00    +0.000 A 
ATOM      8  C   UNL     1      85.067  72.107  85.958  0.00  0.00    +0.000 A 
ENDBRANCH   1   6
BRANCH   1   9
ATOM      9  C   UNL     1      88.692  70.169  87.317  0.00  0.00    +0.000 C 
BRANCH   9  10
ATOM     10  C   UNL     1      88.852  68.687  87.052  0.00  0.00    +0.000 A 
ATOM     11  C   UNL     1      87.905  67.772  87.536  0.00  0.00    +0.000 A 
ATOM     12  C   UNL     1      88.066  66.405  87.309  0.00  0.00    +0.000 A 
ATOM     13  C   UNL     1      89.172  65.953  86.601  0.00  0.00    +0.000 A 
ATOM     14  C   UNL     1      90.124  66.842  86.116  0.00  0.00    +0.000 A 
ATOM     15  C   UNL     1      89.965  68.210  86.341  0.00  0.00    +0.000 A 
ATOM     16  F   UNL     1      89.327  64.639  86.385  0.00  0.00    +0.000 F 
ENDBRANCH   9  10
ENDBRANCH   1   9
TORSDOF 3
ENDMDL
