MODEL 1
REMARK VINA RESULT:      -5.0      0.000      0.000
REMARK  Name = *****
REMARK  1 active torsions:
REMARK  status: ('A' for Active; 'I' for Inactive)
REMARK    1  A    between atoms: C_2  and  C_11
REMARK                            x       y       z     vdW  Elec       q    Type
REMARK                         _______ _______ _______ _____ _____    ______ ____
ROOT
ATOM      1  C   UNL     1     101.784 125.994  82.053  0.00  0.00    +0.000 C 
ATOM      2  C   UNL     1     103.234 126.398  81.747  0.00  0.00    +0.000 C 
ATOM      3  S   UNL     1     103.999 127.097  83.247  0.00  0.00    +0.000 S 
ATOM      4  C   UNL     1     102.899 128.518  83.414  0.00  0.00    +0.000 C 
ATOM      5  C   UNL     1     101.424 128.233  83.256  0.00  0.00    +0.000 A 
ATOM      6  C   UNL     1     100.524 129.198  83.749  0.00  0.00    +0.000 A 
ATOM      7  C   UNL     1      99.145 129.039  83.617  0.00  0.00    +0.000 A 
ATOM      8  C   UNL     1      98.638 127.911  82.983  0.00  0.00    +0.000 A 
ATOM      9  C   UNL     1      99.512 126.950  82.477  0.00  0.00    +0.000 A 
ATOM     10  C   UNL     1     100.906 127.104  82.591  0.00  0.00    +0.000 A 
ENDROOT
BRANCH   2  11
ATOM     11  C   UNL     1     104.049 125.243  81.191  0.00  0.00    +0.000 A 
ATOM     12  C   UNL     1     104.769 125.409  79.996  0.00  0.00    +0.000 A 
ATOM     13  C   UNL     1     105.515 124.358  79.458  0.00  0.00    +0.000 A 
ATOM     14  C   UNL     1     105.556 123.126  80.108  0.00  0.00    +0.000 A 
ATOM     15  C   UNL     1     104.853 122.945  81.297  0.00  0.00    +0.000 A 
ATOM     16  C   UNL     1     104.106 123.994  81.835  0.00  0.00    +0.000 A 
ENDBRANCH   2  11
TORSDOF 1
ENDMDL
