MODEL 1
REMARK VINA RESULT:      -5.2      0.000      0.000
REMARK  Name = *****
REMARK  0 active torsions:
REMARK  status: ('A' for Active; 'I' for Inactive)
REMARK                            x       y       z     vdW  Elec       q    Type
REMARK                         _______ _______ _______ _____ _____    ______ ____
ROOT
ATOM      1  C   UNL     1      97.619 118.907  83.181  0.00  0.00    +0.000 A 
ATOM      2  C   UNL     1      98.296 119.599  82.184  0.00  0.00    +0.000 A 
ATOM      3  C   UNL     1      98.356 119.068  80.900  0.00  0.00    +0.000 A 
ATOM      4  C   UNL     1      97.737 117.844  80.619  0.00  0.00    +0.000 A 
ATOM      5  C   UNL     1      97.799 117.317  79.311  0.00  0.00    +0.000 C 
ATOM      6  C   UNL     1      97.477 116.527  78.478  0.00  0.00    +0.000 C 
ATOM      7  C   UNL     1      96.726 115.414  78.044  0.00  0.00    +0.000 A 
ATOM      8  C   UNL     1      96.715 115.076  76.685  0.00  0.00    +0.000 A 
ATOM      9  C   UNL     1      95.945 114.006  76.242  0.00  0.00    +0.000 A 
ATOM     10  C   UNL     1      95.184 113.284  77.154  0.00  0.00    +0.000 A 
ATOM     11  C   UNL     1      95.202 113.625  78.512  0.00  0.00    +0.000 A 
ATOM     12  C   UNL     1      95.976 114.699  79.000  0.00  0.00    +0.000 A 
ATOM     13  C   UNL     1      95.953 114.912  80.485  0.00  0.00    +0.000 C 
ATOM     14  C   UNL     1      96.340 115.797  81.437  0.00  0.00    +0.000 C 
ATOM     15  C   UNL     1      97.028 117.121  81.598  0.00  0.00    +0.000 A 
ATOM     16  C   UNL     1      96.995 117.687  82.891  0.00  0.00    +0.000 A 
ENDROOT
TORSDOF 0
ENDMDL
