MODEL 1
REMARK VINA RESULT:      -4.7      0.000      0.000
REMARK  Name = *****
REMARK  2 active torsions:
REMARK  status: ('A' for Active; 'I' for Inactive)
REMARK    1  A    between atoms: C_4  and  C_7
REMARK    2  A    between atoms: C_7  and  C_8
REMARK                            x       y       z     vdW  Elec       q    Type
REMARK                         _______ _______ _______ _____ _____    ______ ____
ROOT
ATOM      1  C   UNL     1      88.292  69.323  87.592  0.00  0.00    +0.000 A 
ATOM      2  C   UNL     1      89.417  68.995  86.865  0.00  0.00    +0.000 A 
ATOM      3  C   UNL     1      89.485  67.604  86.520  0.00  0.00    +0.000 A 
ATOM      4  C   UNL     1      90.463  66.881  85.796  0.00  0.00    +0.000 A 
ATOM      5  C   UNL     1      90.315  65.507  85.583  0.00  0.00    +0.000 A 
ATOM      6  C   UNL     1      89.206  64.837  86.081  0.00  0.00    +0.000 A 
ATOM      7  C   UNL     1      88.224  65.524  86.800  0.00  0.00    +0.000 A 
ATOM      8  C   UNL     1      88.378  66.909  87.010  0.00  0.00    +0.000 A 
ATOM      9  S   UNL     1      87.304  67.955  87.856  0.00  0.00    +0.000 S 
ENDROOT
BRANCH   1  10
ATOM     10  C   UNL     1      87.885  70.669  88.117  0.00  0.00    +0.000 C 
BRANCH  10  14
ATOM     11  C   UNL     1      84.501  72.367  86.039  0.00  0.00    +0.000 A 
ATOM     12  C   UNL     1      85.601  71.905  85.318  0.00  0.00    +0.000 A 
ATOM     13  C   UNL     1      86.694  71.352  85.987  0.00  0.00    +0.000 A 
ATOM     14  C   UNL     1      86.696  71.252  87.387  0.00  0.00    +0.000 A 
ATOM     15  C   UNL     1      85.586  71.729  88.102  0.00  0.00    +0.000 A 
ATOM     16  C   UNL     1      84.494  72.280  87.430  0.00  0.00    +0.000 A 
ENDBRANCH  10  14
ENDBRANCH   1  10
TORSDOF 2
ENDMDL
