MODEL 1
REMARK VINA RESULT:      -4.6      0.000      0.000
REMARK  Name = *****
REMARK  4 active torsions:
REMARK  status: ('A' for Active; 'I' for Inactive)
REMARK    1  A    between atoms: C_4  and  C_7
REMARK    2  A    between atoms: C_7  and  C_8
REMARK    3  A    between atoms: C_8  and  C_9
REMARK    4  A    between atoms: C_8  and  C_11
REMARK                            x       y       z     vdW  Elec       q    Type
REMARK                         _______ _______ _______ _____ _____    ______ ____
ROOT
ATOM      1  C   UNL     1      87.924  70.691  85.664  0.00  0.00    +0.000 C 
ENDROOT
BRANCH   1   2
ATOM      2  C   UNL     1      86.663  71.310  86.262  0.00  0.00    +0.000 A 
ATOM      3  C   UNL     1      86.425  71.350  87.645  0.00  0.00    +0.000 A 
ATOM      4  C   UNL     1      85.251  71.914  88.151  0.00  0.00    +0.000 A 
ATOM      5  C   UNL     1      84.297  72.440  87.285  0.00  0.00    +0.000 A 
ATOM      6  C   UNL     1      84.513  72.401  85.910  0.00  0.00    +0.000 A 
ATOM      7  C   UNL     1      85.685  71.837  85.402  0.00  0.00    +0.000 A 
ENDBRANCH   1   2
BRANCH   1   8
ATOM      8  C   UNL     1      88.640  71.632  84.678  0.00  0.00    +0.000 C 
ATOM      9 CL   UNL     1      90.375  71.237  84.513  0.00  0.00    +0.000 Cl
ENDBRANCH   1   8
BRANCH   1  10
ATOM     10  C   UNL     1      88.844  70.081  86.752  0.00  0.00    +0.000 C 
BRANCH  10  14
ATOM     11  C   UNL     1      89.042  65.769  86.894  0.00  0.00    +0.000 A 
ATOM     12  C   UNL     1      90.080  66.497  86.317  0.00  0.00    +0.000 A 
ATOM     13  C   UNL     1      90.018  67.890  86.275  0.00  0.00    +0.000 A 
ATOM     14  C   UNL     1      88.914  68.572  86.805  0.00  0.00    +0.000 A 
ATOM     15  C   UNL     1      87.881  67.828  87.394  0.00  0.00    +0.000 A 
ATOM     16  C   UNL     1      87.945  66.434  87.435  0.00  0.00    +0.000 A 
ENDBRANCH  10  14
ENDBRANCH   1  10
TORSDOF 4
ENDMDL
