REMARK  Name = *****
REMARK  4 active torsions:
REMARK  status: ('A' for Active; 'I' for Inactive)
REMARK    1  A    between atoms: C_4  and  C_8
REMARK    2  A    between atoms: C_8  and  O_9
REMARK    3  A    between atoms: O_9  and  C_10
REMARK    4  A    between atoms: C_10  and  C_12
REMARK                            x       y       z     vdW  Elec       q    Type
REMARK                         _______ _______ _______ _____ _____    ______ ____
ROOT
ATOM      1  O   UNL     1      -1.218   3.123  -0.073  0.00  0.00    +0.000 OA
ENDROOT
BRANCH   1   2
ATOM      2  C   UNL     1      -1.090   4.417   0.298  0.00  0.00    +0.000 C 
ATOM      3  O   UNL     1      -0.051   4.990   0.579  0.00  0.00    +0.000 OA
BRANCH   2   4
ATOM      4  C   UNL     1      -2.423   5.082   0.322  0.00  0.00    +0.000 A 
ATOM      5  C   UNL     1      -3.615   4.391   0.056  0.00  0.00    +0.000 A 
ATOM      6  C   UNL     1      -4.840   5.063   0.094  0.00  0.00    +0.000 A 
ATOM      7  C   UNL     1      -4.878   6.424   0.397  0.00  0.00    +0.000 A 
ATOM      8  C   UNL     1      -3.701   7.120   0.664  0.00  0.00    +0.000 A 
ATOM      9  C   UNL     1      -2.474   6.450   0.628  0.00  0.00    +0.000 A 
ATOM     10 CL   UNL     1      -6.387   7.247   0.442  0.00  0.00    +0.000 Cl
ENDBRANCH   2   4
ENDBRANCH   1   2
BRANCH   1  11
ATOM     11  C   UNL     1      -0.010   2.349  -0.106  0.00  0.00    +0.000 C 
BRANCH  11  15
ATOM     12  C   UNL     1       0.610   0.275   3.641  0.00  0.00    +0.000 A 
ATOM     13  C   UNL     1       1.519   1.226   3.191  0.00  0.00    +0.000 A 
ATOM     14  C   UNL     1       1.298   1.876   1.978  0.00  0.00    +0.000 A 
ATOM     15  C   UNL     1       0.175   1.605   1.188  0.00  0.00    +0.000 A 
ATOM     16  C   UNL     1      -0.728   0.637   1.650  0.00  0.00    +0.000 A 
ATOM     17  C   UNL     1      -0.513  -0.021   2.869  0.00  0.00    +0.000 A 
ATOM     18 CL   UNL     1      -2.133   0.193   0.746  0.00  0.00    +0.000 Cl
ATOM     19  F   UNL     1       2.206   2.772   1.567  0.00  0.00    +0.000 F 
ENDBRANCH  11  15
ENDBRANCH   1  11
TORSDOF 4
