MODEL 1
REMARK VINA RESULT:      -4.9      0.000      0.000
REMARK  Name = *****
REMARK  3 active torsions:
REMARK  status: ('A' for Active; 'I' for Inactive)
REMARK    1  A    between atoms: C_4  and  C_7
REMARK    2  A    between atoms: C_7  and  O_8
REMARK    3  A    between atoms: O_8  and  C_9
REMARK                            x       y       z     vdW  Elec       q    Type
REMARK                         _______ _______ _______ _____ _____    ______ ____
ROOT
ATOM      1  C   UNL     1     103.919 126.211  80.612  0.00  0.00    +0.000 A 
ATOM      2  N   UNL     1     104.986 126.911  80.156  0.00  0.00    +0.000 NA
ATOM      3  C   UNL     1     105.170 128.141  80.676  0.00  0.00    +0.000 A 
ATOM      4  C   UNL     1     104.345 128.708  81.631  0.00  0.00    +0.000 A 
ATOM      5  C   UNL     1     103.246 127.976  82.095  0.00  0.00    +0.000 A 
ATOM      6  C   UNL     1     102.377 128.503  83.065  0.00  0.00    +0.000 A 
ATOM      7  C   UNL     1     101.284 127.764  83.522  0.00  0.00    +0.000 A 
ATOM      8  C   UNL     1     101.045 126.491  83.015  0.00  0.00    +0.000 A 
ATOM      9  C   UNL     1     101.899 125.955  82.051  0.00  0.00    +0.000 A 
ATOM     10  C   UNL     1     103.012 126.686  81.577  0.00  0.00    +0.000 A 
ENDROOT
BRANCH   1  11
ATOM     11  O   UNL     1     103.692 124.945  80.101  0.00  0.00    +0.000 OA
BRANCH  11  12
ATOM     12  C   UNL     1     104.849 124.108  80.123  0.00  0.00    +0.000 C 
BRANCH  12  16
ATOM     13  C   UNL     1     104.419 120.952  83.046  0.00  0.00    +0.000 A 
ATOM     14  C   UNL     1     104.444 122.282  83.461  0.00  0.00    +0.000 A 
ATOM     15  C   UNL     1     104.574 123.307  82.520  0.00  0.00    +0.000 A 
ATOM     16  C   UNL     1     104.665 123.012  81.152  0.00  0.00    +0.000 A 
ATOM     17  C   UNL     1     104.654 121.669  80.749  0.00  0.00    +0.000 A 
ATOM     18  C   UNL     1     104.527 120.645  81.691  0.00  0.00    +0.000 A 
ENDBRANCH  12  16
ENDBRANCH  11  12
ENDBRANCH   1  11
TORSDOF 3
ENDMDL
