MODEL 1
REMARK VINA RESULT:      -4.8      0.000      0.000
REMARK  Name = *****
REMARK  5 active torsions:
REMARK  status: ('A' for Active; 'I' for Inactive)
REMARK    1  A    between atoms: C_4  and  C_7
REMARK    2  A    between atoms: C_7  and  C_8
REMARK    3  A    between atoms: C_7  and  C_18
REMARK    4  A    between atoms: C_8  and  C_9
REMARK    5  A    between atoms: C_14  and  C_15
REMARK                            x       y       z     vdW  Elec       q    Type
REMARK                         _______ _______ _______ _____ _____    ______ ____
ROOT
ATOM      1  C   UNL     1      89.260  70.759  87.249  0.00  0.00    +0.000 C 
ENDROOT
BRANCH   1   2
ATOM      2  C   UNL     1      89.498  69.622  86.270  0.00  0.00    +0.000 A 
ATOM      3  C   UNL     1      89.378  68.297  86.727  0.00  0.00    +0.000 A 
ATOM      4  C   UNL     1      89.514  67.217  85.851  0.00  0.00    +0.000 A 
ATOM      5  C   UNL     1      89.775  67.437  84.502  0.00  0.00    +0.000 A 
ATOM      6  C   UNL     1      89.923  68.739  84.030  0.00  0.00    +0.000 A 
ATOM      7  C   UNL     1      89.805  69.825  84.910  0.00  0.00    +0.000 A 
BRANCH   7   8
ATOM      8  C   UNL     1      90.057  71.168  84.327  0.00  0.00    +0.000 C 
ATOM      9  O   UNL     1      91.228  71.508  84.179  0.00  0.00    +0.000 OA
ATOM     10 CL   UNL     1      88.670  72.172  83.979  0.00  0.00    +0.000 Cl
ENDBRANCH   7   8
ENDBRANCH   1   2
BRANCH   1  11
ATOM     11  C   UNL     1      88.092  70.519  88.238  0.00  0.00    +0.000 C 
BRANCH  11  15
ATOM     12  C   UNL     1      84.406  72.378  86.922  0.00  0.00    +0.000 A 
ATOM     13  C   UNL     1      85.344  71.938  85.991  0.00  0.00    +0.000 A 
ATOM     14  C   UNL     1      86.527  71.335  86.422  0.00  0.00    +0.000 A 
ATOM     15  C   UNL     1      86.788  71.164  87.792  0.00  0.00    +0.000 A 
ATOM     16  C   UNL     1      85.826  71.604  88.717  0.00  0.00    +0.000 A 
ATOM     17  C   UNL     1      84.647  72.212  88.283  0.00  0.00    +0.000 A 
ENDBRANCH  11  15
BRANCH  11  18
ATOM     18  C   UNL     1      88.491  70.980  89.587  0.00  0.00    +0.000 C 
ATOM     19  N   UNL     1      88.824  71.366  90.631  0.00  0.00    +0.000 NA
ENDBRANCH  11  18
ENDBRANCH   1  11
TORSDOF 5
ENDMDL
