MODEL 1
REMARK VINA RESULT:      -4.1      0.000      0.000
REMARK  Name = *****
REMARK  5 active torsions:
REMARK  status: ('A' for Active; 'I' for Inactive)
REMARK    1  A    between atoms: C_1  and  N_2
REMARK    2  A    between atoms: N_2  and  C_3
REMARK    3  A    between atoms: C_4  and  C_5
REMARK    4  A    between atoms: C_4  and  C_11
REMARK    5  A    between atoms: C_5  and  C_6
REMARK                            x       y       z     vdW  Elec       q    Type
REMARK                         _______ _______ _______ _____ _____    ______ ____
ROOT
ATOM      1  C   UNL     1      99.566 126.887  82.398  0.00  0.00    +0.000 C 
ATOM      2  C   UNL     1     100.479 127.811  83.134  0.00  0.00    +0.000 C 
ENDROOT
BRANCH   2   3
ATOM      3  C   UNL     1      99.910 128.850  84.012  0.00  0.00    +0.000 A 
ATOM      4  C   UNL     1      99.709 130.149  83.530  0.00  0.00    +0.000 A 
ATOM      5  C   UNL     1      99.196 131.141  84.369  0.00  0.00    +0.000 A 
ATOM      6  C   UNL     1      98.882 130.839  85.694  0.00  0.00    +0.000 A 
ATOM      7  C   UNL     1      99.077 129.548  86.182  0.00  0.00    +0.000 A 
ATOM      8  C   UNL     1      99.591 128.555  85.344  0.00  0.00    +0.000 A 
ENDBRANCH   2   3
BRANCH   1  10
ATOM      9  C   UNL     1      97.509 126.284  83.233  0.00  0.00    +0.000 C 
ATOM     10  N   UNL     1      98.294 127.077  82.293  0.00  0.00    +0.000 NA
ENDBRANCH   1  10
BRANCH   2  11
ATOM     11  C   UNL     1     101.822 127.719  83.079  0.00  0.00    +0.000 C 
BRANCH  11  12
ATOM     12  C   UNL     1     102.549 126.888  82.182  0.00  0.00    +0.000 A 
ATOM     13  C   UNL     1     103.036 127.159  80.914  0.00  0.00    +0.000 A 
ATOM     14  C   UNL     1     103.740 126.058  80.341  0.00  0.00    +0.000 A 
ATOM     15  C   UNL     1     103.791 124.983  81.197  0.00  0.00    +0.000 A 
ATOM     16  S   UNL     1     103.004 125.305  82.679  0.00  0.00    +0.000 S 
ENDBRANCH  11  12
ENDBRANCH   2  11
TORSDOF 4
ENDMDL
