MODEL 1
REMARK VINA RESULT:      -4.6      0.000      0.000
REMARK  Name = *****
REMARK  4 active torsions:
REMARK  status: ('A' for Active; 'I' for Inactive)
REMARK    1  A    between atoms: C_4  and  C_7
REMARK    2  A    between atoms: C_7  and  O_9
REMARK    3  A    between atoms: O_9  and  C_10
REMARK    4  A    between atoms: C_15  and  C_16
REMARK                            x       y       z     vdW  Elec       q    Type
REMARK                         _______ _______ _______ _____ _____    ______ ____
ROOT
ATOM      1  O   UNL     1     101.562 126.630  82.442  0.00  0.00    +0.000 OA
ENDROOT
BRANCH   1   2
ATOM      2  C   UNL     1     101.225 127.787  83.148  0.00  0.00    +0.000 A 
ATOM      3  C   UNL     1     102.294 128.609  83.525  0.00  0.00    +0.000 A 
ATOM      4  C   UNL     1     102.051 129.792  84.220  0.00  0.00    +0.000 A 
ATOM      5  C   UNL     1     100.743 130.150  84.545  0.00  0.00    +0.000 A 
ATOM      6  C   UNL     1      99.679 129.318  84.185  0.00  0.00    +0.000 A 
ATOM      7  C   UNL     1      99.907 128.115  83.495  0.00  0.00    +0.000 A 
BRANCH   7   8
ATOM      8  C   UNL     1      98.720 127.262  83.184  0.00  0.00    +0.000 C 
ATOM      9  O   UNL     1      98.303 127.288  82.026  0.00  0.00    +0.000 OA
ATOM     10 CL   UNL     1      97.930 126.346  84.449  0.00  0.00    +0.000 Cl
ENDBRANCH   7   8
ENDBRANCH   1   2
BRANCH   1  11
ATOM     11  C   UNL     1     102.302 125.724  83.202  0.00  0.00    +0.000 C 
ATOM     12  O   UNL     1     102.017 125.337  84.327  0.00  0.00    +0.000 OA
BRANCH  11  16
ATOM     13  C   UNL     1     104.886 123.522  80.481  0.00  0.00    +0.000 C 
ATOM     14  C   UNL     1     104.433 124.922  80.078  0.00  0.00    +0.000 C 
ATOM     15  C   UNL     1     103.243 125.393  80.909  0.00  0.00    +0.000 C 
ATOM     16  C   UNL     1     103.531 125.308  82.412  0.00  0.00    +0.000 C 
ATOM     17  C   UNL     1     103.983 123.896  82.806  0.00  0.00    +0.000 C 
ATOM     18  C   UNL     1     105.177 123.434  81.976  0.00  0.00    +0.000 C 
ENDBRANCH  11  16
ENDBRANCH   1  11
TORSDOF 4
ENDMDL
