MODEL 1
REMARK VINA RESULT:      -4.6      0.000      0.000
REMARK  Name = *****
REMARK  3 active torsions:
REMARK  status: ('A' for Active; 'I' for Inactive)
REMARK    1  A    between atoms: C_4  and  N_7
REMARK    2  A    between atoms: N_7  and  C_8
REMARK    3  A    between atoms: C_8  and  C_10
REMARK                            x       y       z     vdW  Elec       q    Type
REMARK                         _______ _______ _______ _____ _____    ______ ____
ROOT
ATOM      1  C   UNL     1      89.015  64.389  86.688  0.00  0.00    +0.000 C 
ATOM      2  S   UNL     1      89.145  63.610  85.199  0.00  0.00    +0.000 S 
ENDROOT
BRANCH   1   3
ATOM      3  C   UNL     1      88.954  65.892  86.737  0.00  0.00    +0.000 A 
ATOM      4  C   UNL     1      87.807  66.551  87.205  0.00  0.00    +0.000 A 
ATOM      5  C   UNL     1      87.760  67.949  87.246  0.00  0.00    +0.000 A 
ATOM      6  C   UNL     1      88.857  68.701  86.826  0.00  0.00    +0.000 A 
ATOM      7  C   UNL     1      90.004  68.058  86.367  0.00  0.00    +0.000 A 
ATOM      8  C   UNL     1      90.047  66.665  86.327  0.00  0.00    +0.000 A 
ATOM      9  F   UNL     1      91.176  66.080  85.899  0.00  0.00    +0.000 F 
ENDBRANCH   1   3
BRANCH   1  10
ATOM     10  N   UNL     1      89.022  63.799  87.949  0.00  0.00    +0.000 N 
ATOM     11  H   UNL     1      89.925  63.668  88.321  0.00  0.00    +0.000 HD
BRANCH  10  15
ATOM     12  C   UNL     1      85.954  62.660  90.628  0.00  0.00    +0.000 A 
ATOM     13  C   UNL     1      86.050  62.011  89.400  0.00  0.00    +0.000 A 
ATOM     14  C   UNL     1      87.056  62.360  88.490  0.00  0.00    +0.000 A 
ATOM     15  C   UNL     1      87.984  63.352  88.802  0.00  0.00    +0.000 A 
ATOM     16  C   UNL     1      87.862  64.014  90.033  0.00  0.00    +0.000 A 
ATOM     17  C   UNL     1      86.860  63.667  90.944  0.00  0.00    +0.000 A 
ENDBRANCH  10  15
ENDBRANCH   1  10
TORSDOF 3
ENDMDL
