REMARK  Name = *****
REMARK  5 active torsions:
REMARK  status: ('A' for Active; 'I' for Inactive)
REMARK    1  A    between atoms: C_1  and  O_2
REMARK    2  A    between atoms: O_2  and  C_3
REMARK    3  A    between atoms: C_3  and  C_5
REMARK    4  A    between atoms: C_8  and  C_10
REMARK    5  A    between atoms: C_11  and  C_12
REMARK                            x       y       z     vdW  Elec       q    Type
REMARK                         _______ _______ _______ _____ _____    ______ ____
ROOT
ATOM      1  C   UNL     1       4.699  -1.054  -0.506  0.00  0.00    +0.000 A 
ATOM      2  C   UNL     1       5.407  -0.505   0.545  0.00  0.00    +0.000 A 
ATOM      3  C   UNL     1       6.818  -0.571   0.348  0.00  0.00    +0.000 A 
ATOM      4  C   UNL     1       7.174  -1.170  -0.848  0.00  0.00    +0.000 A 
ATOM      5  S   UNL     1       5.758  -1.643  -1.714  0.00  0.00    +0.000 S 
ENDROOT
BRANCH   1   6
ATOM      6  C   UNL     1       3.266  -1.179  -0.692  0.00  0.00    +0.000 C 
ATOM      7  O   UNL     1       2.694  -1.679  -1.654  0.00  0.00    +0.000 OA
BRANCH   6   9
ATOM      8  C   UNL     1       1.191  -0.717   0.299  0.00  0.00    +0.000 C 
ATOM      9  O   UNL     1       2.614  -0.645   0.386  0.00  0.00    +0.000 OA
ENDBRANCH   6   9
ENDBRANCH   1   6
BRANCH   4  10
ATOM     10  C   UNL     1       8.449  -1.433  -1.434  0.00  0.00    +0.000 C 
ATOM     11  C   UNL     1       9.603  -1.101  -0.832  0.00  0.00    +0.000 C 
BRANCH  11  12
ATOM     12  C   UNL     1      10.926  -1.367  -1.416  0.00  0.00    +0.000 A 
ATOM     13  C   UNL     1      11.195  -1.167  -2.776  0.00  0.00    +0.000 A 
ATOM     14  C   UNL     1      12.475  -1.403  -3.280  0.00  0.00    +0.000 A 
ATOM     15  C   UNL     1      13.501  -1.829  -2.439  0.00  0.00    +0.000 A 
ATOM     16  C   UNL     1      13.247  -2.015  -1.081  0.00  0.00    +0.000 A 
ATOM     17  C   UNL     1      11.967  -1.780  -0.572  0.00  0.00    +0.000 A 
ATOM     18 CL   UNL     1      12.792  -1.160  -4.954  0.00  0.00    +0.000 Cl
ENDBRANCH  11  12
ENDBRANCH   4  10
TORSDOF 4
