MODEL 1
REMARK VINA RESULT:      -4.2      0.000      0.000
REMARK  Name = *****
REMARK  3 active torsions:
REMARK  status: ('A' for Active; 'I' for Inactive)
REMARK    1  A    between atoms: C_4  and  O_7
REMARK    2  A    between atoms: O_7  and  C_8
REMARK    3  A    between atoms: C_8  and  C_9
REMARK                            x       y       z     vdW  Elec       q    Type
REMARK                         _______ _______ _______ _____ _____    ______ ____
ROOT
ATOM      1  O   UNL     1     101.443 125.852  82.102  0.00  0.00    +0.000 OA
ENDROOT
BRANCH   1   5
ATOM      2  C   UNL     1      99.259 129.096  83.534  0.00  0.00    +0.000 A 
ATOM      3  C   UNL     1      98.568 128.059  82.909  0.00  0.00    +0.000 A 
ATOM      4  C   UNL     1      99.259 126.949  82.411  0.00  0.00    +0.000 A 
ATOM      5  C   UNL     1     100.646 126.873  82.539  0.00  0.00    +0.000 A 
ATOM      6  C   UNL     1     101.332 127.916  83.167  0.00  0.00    +0.000 A 
ATOM      7  C   UNL     1     100.643 129.024  83.663  0.00  0.00    +0.000 A 
ENDBRANCH   1   5
BRANCH   1   8
ATOM      8  C   UNL     1     102.611 125.565  82.869  0.00  0.00    +0.000 C 
BRANCH   8   9
ATOM      9  C   UNL     1     103.597 124.828  81.993  0.00  0.00    +0.000 A 
ATOM     10  C   UNL     1     103.837 125.242  80.675  0.00  0.00    +0.000 A 
ATOM     11  C   UNL     1     104.760 124.565  79.878  0.00  0.00    +0.000 A 
ATOM     12  C   UNL     1     105.453 123.468  80.388  0.00  0.00    +0.000 A 
ATOM     13  C   UNL     1     105.224 123.048  81.697  0.00  0.00    +0.000 A 
ATOM     14  C   UNL     1     104.302 123.724  82.496  0.00  0.00    +0.000 A 
ENDBRANCH   8   9
ENDBRANCH   1   8
TORSDOF 3
ENDMDL
