REMARK  Name = *****
REMARK  3 active torsions:
REMARK  status: ('A' for Active; 'I' for Inactive)
REMARK    1  A    between atoms: C_1  and  C_2
REMARK    2  A    between atoms: C_9  and  C_11
REMARK    3  A    between atoms: C_12  and  C_13
REMARK                            x       y       z     vdW  Elec       q    Type
REMARK                         _______ _______ _______ _____ _____    ______ ____
ROOT
ATOM      1  C   UNL     1       1.000  -0.036  -0.183  0.00  0.00    +0.000 C 
ATOM      2  C   UNL     1       2.467   0.122  -0.139  0.00  0.00    +0.000 A 
ATOM      3  N   UNL     1       3.182   1.228  -0.222  0.00  0.00    +0.000 NA
ATOM      4  C   UNL     1       4.476   0.782  -0.124  0.00  0.00    +0.000 A 
ATOM      5  C   UNL     1       4.489  -0.595   0.017  0.00  0.00    +0.000 A 
ATOM      6  O   UNL     1       3.196  -1.029   0.007  0.00  0.00    +0.000 OA
ATOM      7  C   UNL     1       5.636  -1.365   0.148  0.00  0.00    +0.000 A 
ATOM      8  C   UNL     1       6.846  -0.658   0.130  0.00  0.00    +0.000 A 
ATOM      9  C   UNL     1       6.891   0.741  -0.026  0.00  0.00    +0.000 A 
ATOM     10  C   UNL     1       5.694   1.475  -0.141  0.00  0.00    +0.000 A 
ENDROOT
BRANCH   9  11
ATOM     11  C   UNL     1       8.162   1.483  -0.011  0.00  0.00    +0.000 C 
ATOM     12  C   UNL     1       9.295   1.040  -0.582  0.00  0.00    +0.000 C 
BRANCH  12  13
ATOM     13  C   UNL     1      10.559   1.791  -0.579  0.00  0.00    +0.000 A 
ATOM     14  C   UNL     1      10.990   2.529   0.532  0.00  0.00    +0.000 A 
ATOM     15  C   UNL     1      12.214   3.203   0.507  0.00  0.00    +0.000 A 
ATOM     16  C   UNL     1      13.025   3.137  -0.624  0.00  0.00    +0.000 A 
ATOM     17  C   UNL     1      12.616   2.393  -1.728  0.00  0.00    +0.000 A 
ATOM     18  C   UNL     1      11.392   1.719  -1.704  0.00  0.00    +0.000 A 
ENDBRANCH  12  13
ENDBRANCH   9  11
TORSDOF 2
