MODEL 1
REMARK VINA RESULT:      -4.2      0.000      0.000
REMARK  Name = *****
REMARK  5 active torsions:
REMARK  status: ('A' for Active; 'I' for Inactive)
REMARK    1  A    between atoms: C_1  and  O_2
REMARK    2  A    between atoms: O_2  and  C_3
REMARK    3  A    between atoms: C_8  and  O_9
REMARK    4  A    between atoms: O_9  and  P_10
REMARK    5  A    between atoms: P_10  and  C_11
REMARK                            x       y       z     vdW  Elec       q    Type
REMARK                         _______ _______ _______ _____ _____    ______ ____
ROOT
ATOM      1  O   UNL     1      87.911  68.725  87.644  0.00  0.00    +0.000 OA
ENDROOT
BRANCH   1   7
ATOM      2  C   UNL     1      88.099  66.265  87.303  0.00  0.00    +0.000 A 
ATOM      3  C   UNL     1      88.854  65.245  86.704  0.00  0.00    +0.000 A 
ATOM      4  C   UNL     1      89.992  65.542  85.947  0.00  0.00    +0.000 A 
ATOM      5  C   UNL     1      90.388  66.861  85.770  0.00  0.00    +0.000 A 
ATOM      6  C   UNL     1      89.651  67.885  86.362  0.00  0.00    +0.000 A 
ATOM      7  C   UNL     1      88.520  67.598  87.142  0.00  0.00    +0.000 A 
BRANCH   2   9
ATOM      8  C   UNL     1      87.038  65.221  89.177  0.00  0.00    +0.000 C 
ATOM      9  O   UNL     1      86.952  66.037  88.016  0.00  0.00    +0.000 OA
ENDBRANCH   2   9
ENDBRANCH   1   7
BRANCH   1  10
ATOM     10  P   UNL     1      88.418  70.254  87.532  0.00  0.00    +0.000 P 
ATOM     11 CL   UNL     1      88.554  70.693  89.584  0.00  0.00    +0.000 Cl
BRANCH  10  12
ATOM     12  C   UNL     1      86.845  71.116  87.157  0.00  0.00    +0.000 A 
ATOM     13  C   UNL     1      86.430  71.409  85.849  0.00  0.00    +0.000 A 
ATOM     14  C   UNL     1      85.219  72.067  85.613  0.00  0.00    +0.000 A 
ATOM     15  C   UNL     1      84.403  72.433  86.681  0.00  0.00    +0.000 A 
ATOM     16  C   UNL     1      84.795  72.141  87.985  0.00  0.00    +0.000 A 
ATOM     17  C   UNL     1      86.008  71.488  88.221  0.00  0.00    +0.000 A 
ENDBRANCH  10  12
ENDBRANCH   1  10
TORSDOF 4
ENDMDL
