MODEL 1
REMARK VINA RESULT:      -4.1      0.000      0.000
REMARK  Name = *****
REMARK  3 active torsions:
REMARK  status: ('A' for Active; 'I' for Inactive)
REMARK    1  A    between atoms: C_3  and  C_5
REMARK    2  A    between atoms: C_5  and  O_7
REMARK    3  A    between atoms: O_7  and  C_8
REMARK                            x       y       z     vdW  Elec       q    Type
REMARK                         _______ _______ _______ _____ _____    ______ ____
ROOT
ATOM      1  C   UNL     1     101.386 127.317  82.906  0.00  0.00    +0.000 A 
ATOM      2  C   UNL     1     101.199 128.589  83.464  0.00  0.00    +0.000 A 
ATOM      3  C   UNL     1      99.899 129.103  83.537  0.00  0.00    +0.000 A 
ATOM      4  C   UNL     1      98.819 128.358  83.046  0.00  0.00    +0.000 A 
ATOM      5  C   UNL     1      99.026 127.100  82.474  0.00  0.00    +0.000 A 
ATOM      6  C   UNL     1     100.315 126.578  82.396  0.00  0.00    +0.000 A 
ATOM      7 CL   UNL     1      99.553 130.658  84.211  0.00  0.00    +0.000 Cl
ATOM      8 CL   UNL     1     102.569 129.487  84.026  0.00  0.00    +0.000 Cl
ENDROOT
BRANCH   1   9
ATOM      9  O   UNL     1     102.670 126.772  82.782  0.00  0.00    +0.000 OA
BRANCH   9  10
ATOM     10  C   UNL     1     103.136 126.765  81.466  0.00  0.00    +0.000 C 
ATOM     11  O   UNL     1     103.363 127.783  80.813  0.00  0.00    +0.000 OA
BRANCH  10  14
ATOM     12  C   UNL     1     105.334 124.560  81.204  0.00  0.00    +0.000 C 
ATOM     13  C   UNL     1     104.003 124.301  81.932  0.00  0.00    +0.000 C 
ATOM     14  C   UNL     1     103.332 125.306  80.961  0.00  0.00    +0.000 C 
ATOM     15  C   UNL     1     104.516 125.043  79.995  0.00  0.00    +0.000 C 
ENDBRANCH  10  14
ENDBRANCH   9  10
ENDBRANCH   1   9
TORSDOF 3
ENDMDL
