MODEL 1
REMARK VINA RESULT:      -4.6      0.000      0.000
REMARK  Name = *****
REMARK  3 active torsions:
REMARK  status: ('A' for Active; 'I' for Inactive)
REMARK    1  A    between atoms: C_4  and  C_7
REMARK    2  A    between atoms: C_7  and  O_9
REMARK    3  A    between atoms: O_9  and  C_10
REMARK                            x       y       z     vdW  Elec       q    Type
REMARK                         _______ _______ _______ _____ _____    ______ ____
ROOT
ATOM      1  O   UNL     1     102.128 126.858  83.382  0.00  0.00    +0.000 OA
ENDROOT
BRANCH   1   2
ATOM      2  C   UNL     1     102.834 126.378  82.280  0.00  0.00    +0.000 A 
ATOM      3  C   UNL     1     103.363 125.087  82.299  0.00  0.00    +0.000 A 
ATOM      4  C   UNL     1     104.099 124.614  81.222  0.00  0.00    +0.000 A 
ATOM      5  C   UNL     1     104.307 125.456  80.134  0.00  0.00    +0.000 A 
ATOM      6  C   UNL     1     103.798 126.755  80.113  0.00  0.00    +0.000 A 
ATOM      7  C   UNL     1     103.059 127.228  81.198  0.00  0.00    +0.000 A 
ATOM      8  F   UNL     1     105.018 125.014  79.089  0.00  0.00    +0.000 F 
ATOM      9  F   UNL     1     103.172 124.295  83.365  0.00  0.00    +0.000 F 
ENDBRANCH   1   2
BRANCH   1  10
ATOM     10  C   UNL     1     100.866 127.303  83.037  0.00  0.00    +0.000 C 
ATOM     11  O   UNL     1     100.020 126.693  82.399  0.00  0.00    +0.000 OA
BRANCH  10  15
ATOM     12  C   UNL     1     100.412 131.312  84.500  0.00  0.00    +0.000 A 
ATOM     13  C   UNL     1      99.337 130.697  83.858  0.00  0.00    +0.000 A 
ATOM     14  C   UNL     1      99.462 129.392  83.374  0.00  0.00    +0.000 A 
ATOM     15  C   UNL     1     100.668 128.694  83.532  0.00  0.00    +0.000 A 
ATOM     16  C   UNL     1     101.744 129.323  84.177  0.00  0.00    +0.000 A 
ATOM     17  C   UNL     1     101.615 130.626  84.658  0.00  0.00    +0.000 A 
ENDBRANCH  10  15
ENDBRANCH   1  10
TORSDOF 3
ENDMDL
