MODEL 1
REMARK VINA RESULT:      -4.8      0.000      0.000
REMARK  Name = *****
REMARK  2 active torsions:
REMARK  status: ('A' for Active; 'I' for Inactive)
REMARK    1  A    between atoms: C_4  and  C_7
REMARK    2  A    between atoms: N_8  and  C_9
REMARK                            x       y       z     vdW  Elec       q    Type
REMARK                         _______ _______ _______ _____ _____    ______ ____
ROOT
ATOM      1  C   UNL     1     103.695 124.790  82.147  0.00  0.00    +0.000 A 
ATOM      2  C   UNL     1     104.033 123.852  83.126  0.00  0.00    +0.000 A 
ATOM      3  C   UNL     1     104.736 122.702  82.776  0.00  0.00    +0.000 A 
ATOM      4  C   UNL     1     105.100 122.471  81.453  0.00  0.00    +0.000 A 
ATOM      5  C   UNL     1     104.765 123.381  80.461  0.00  0.00    +0.000 A 
ATOM      6  C   UNL     1     104.061 124.529  80.813  0.00  0.00    +0.000 A 
ATOM      7  F   UNL     1     103.738 125.400  79.844  0.00  0.00    +0.000 F 
ATOM      8  F   UNL     1     105.778 121.363  81.125  0.00  0.00    +0.000 F 
ATOM      9  F   UNL     1     105.059 121.814  83.726  0.00  0.00    +0.000 F 
ENDROOT
BRANCH   1  11
ATOM     10  C   UNL     1     101.676 125.910  82.316  0.00  0.00    +0.000 C 
ATOM     11  N   UNL     1     102.952 125.916  82.544  0.00  0.00    +0.000 NA
BRANCH  10  15
ATOM     12  C   UNL     1      99.209 129.194  83.462  0.00  0.00    +0.000 A 
ATOM     13  C   UNL     1      98.634 128.086  82.837  0.00  0.00    +0.000 A 
ATOM     14  C   UNL     1      99.433 127.007  82.457  0.00  0.00    +0.000 A 
ATOM     15  C   UNL     1     100.808 127.039  82.705  0.00  0.00    +0.000 A 
ATOM     16  C   UNL     1     101.385 128.149  83.330  0.00  0.00    +0.000 A 
ATOM     17  C   UNL     1     100.582 129.226  83.708  0.00  0.00    +0.000 A 
ENDBRANCH  10  15
ENDBRANCH   1  11
TORSDOF 2
ENDMDL
