MODEL 1
REMARK VINA RESULT:      -5.0      0.000      0.000
REMARK  Name = *****
REMARK  2 active torsions:
REMARK  status: ('A' for Active; 'I' for Inactive)
REMARK    1  A    between atoms: C_4  and  C_7
REMARK    2  A    between atoms: C_8  and  C_9
REMARK                            x       y       z     vdW  Elec       q    Type
REMARK                         _______ _______ _______ _____ _____    ______ ____
ROOT
ATOM      1  C   UNL     1     103.977 124.339  81.629  0.00  0.00    +0.000 A 
ATOM      2  C   UNL     1     104.554 124.373  80.358  0.00  0.00    +0.000 A 
ATOM      3  C   UNL     1     105.536 123.459  79.990  0.00  0.00    +0.000 A 
ATOM      4  C   UNL     1     105.944 122.500  80.908  0.00  0.00    +0.000 A 
ATOM      5  C   UNL     1     105.388 122.442  82.180  0.00  0.00    +0.000 A 
ATOM      6  C   UNL     1     104.406 123.364  82.531  0.00  0.00    +0.000 A 
ATOM      7  F   UNL     1     103.878 123.297  83.762  0.00  0.00    +0.000 F 
ATOM      8  F   UNL     1     106.889 121.617  80.562  0.00  0.00    +0.000 F 
ATOM      9  F   UNL     1     104.169 125.294  79.461  0.00  0.00    +0.000 F 
ENDROOT
BRANCH   1  11
ATOM     10  C   UNL     1     102.123 126.077  82.309  0.00  0.00    +0.000 C 
ATOM     11  C   UNL     1     102.970 125.284  81.999  0.00  0.00    +0.000 C 
BRANCH  10  15
ATOM     12  C   UNL     1      99.143 128.868  83.389  0.00  0.00    +0.000 A 
ATOM     13  C   UNL     1      98.789 127.686  82.739  0.00  0.00    +0.000 A 
ATOM     14  C   UNL     1      99.773 126.763  82.381  0.00  0.00    +0.000 A 
ATOM     15  C   UNL     1     101.115 127.023  82.674  0.00  0.00    +0.000 A 
ATOM     16  C   UNL     1     101.467 128.207  83.326  0.00  0.00    +0.000 A 
ATOM     17  C   UNL     1     100.482 129.128  83.683  0.00  0.00    +0.000 A 
ENDBRANCH  10  15
ENDBRANCH   1  11
TORSDOF 2
ENDMDL
