MODEL 1
REMARK VINA RESULT:      -3.6      0.000      0.000
REMARK  Name = *****
REMARK  4 active torsions:
REMARK  status: ('A' for Active; 'I' for Inactive)
REMARK    1  A    between atoms: C_4  and  S_10
REMARK    2  A    between atoms: C_5  and  N_7
REMARK    3  A    between atoms: S_10  and  C_11
REMARK    4  A    between atoms: C_11  and  C_12
REMARK                            x       y       z     vdW  Elec       q    Type
REMARK                         _______ _______ _______ _____ _____    ______ ____
ROOT
ATOM      1  C   UNL     1      88.495  63.737  89.559  0.00  0.00    +0.000 A 
ATOM      2  C   UNL     1      87.445  64.280  90.293  0.00  0.00    +0.000 A 
ATOM      3  C   UNL     1      86.711  65.348  89.776  0.00  0.00    +0.000 A 
ATOM      4  C   UNL     1      87.031  65.892  88.523  0.00  0.00    +0.000 A 
ATOM      5  C   UNL     1      88.107  65.354  87.777  0.00  0.00    +0.000 A 
ATOM      6  C   UNL     1      88.817  64.265  88.308  0.00  0.00    +0.000 A 
ENDROOT
BRANCH   5   7
ATOM      7  N   UNL     1      88.467  65.815  86.492  0.00  0.00    +0.000 NA
ATOM      8  C   UNL     1      89.496  66.382  86.500  0.00  0.00    +0.000 C 
ATOM      9  O   UNL     1      90.526  66.951  86.520  0.00  0.00    +0.000 OA
ENDBRANCH   5   7
BRANCH   4  10
ATOM     10  S   UNL     1      86.030  67.246  87.908  0.00  0.00    +0.000 S 
BRANCH  10  11
ATOM     11  C   UNL     1      86.963  68.636  88.632  0.00  0.00    +0.000 C 
BRANCH  11  12
ATOM     12  C   UNL     1      87.768  69.332  87.579  0.00  0.00    +0.000 A 
ATOM     13  C   UNL     1      87.406  69.445  86.248  0.00  0.00    +0.000 A 
ATOM     14  S   UNL     1      88.549  70.314  85.319  0.00  0.00    +0.000 S 
ATOM     15  C   UNL     1      89.551  70.558  86.680  0.00  0.00    +0.000 A 
ATOM     16  C   UNL     1      89.023  69.988  87.817  0.00  0.00    +0.000 A 
ENDBRANCH  11  12
ENDBRANCH  10  11
ENDBRANCH   4  10
TORSDOF 4
ENDMDL
