MODEL 1
REMARK VINA RESULT:      -4.8      0.000      0.000
REMARK  Name = *****
REMARK  6 active torsions:
REMARK  status: ('A' for Active; 'I' for Inactive)
REMARK    1  A    between atoms: C_1  and  N_2
REMARK    2  A    between atoms: N_2  and  C_3
REMARK    3  A    between atoms: N_2  and  N_4
REMARK    4  A    between atoms: N_4  and  C_5
REMARK    5  A    between atoms: C_8  and  C_11
REMARK    6  A    between atoms: C_12  and  C_13
REMARK                            x       y       z     vdW  Elec       q    Type
REMARK                         _______ _______ _______ _____ _____    ______ ____
ROOT
ATOM      1  C   UNL     1     105.782 123.205  80.354  0.00  0.00    +0.000 A 
ATOM      2  C   UNL     1     105.568 124.302  79.513  0.00  0.00    +0.000 A 
ATOM      3  C   UNL     1     104.612 125.277  79.824  0.00  0.00    +0.000 A 
ATOM      4  C   UNL     1     103.820 125.158  80.970  0.00  0.00    +0.000 A 
ATOM      5  C   UNL     1     104.015 124.053  81.805  0.00  0.00    +0.000 A 
ATOM      6  C   UNL     1     104.972 123.080  81.490  0.00  0.00    +0.000 A 
ENDROOT
BRANCH   1   7
ATOM      7  N   UNL     1     106.694 122.169  80.041  0.00  0.00    +0.000 N 
ATOM      8  H   UNL     1     106.408 121.405  79.490  0.00  0.00    +0.000 HD
BRANCH   7  10
ATOM      9  C   UNL     1     108.384 120.968  81.153  0.00  0.00    +0.000 C 
ATOM     10  N   UNL     1     108.018 122.241  80.527  0.00  0.00    +0.000 NA
ATOM     11  C   UNL     1     108.905 122.544  79.402  0.00  0.00    +0.000 C 
ENDBRANCH   7  10
ENDBRANCH   1   7
BRANCH   4  12
ATOM     12  C   UNL     1     102.829 126.173  81.353  0.00  0.00    +0.000 C 
ATOM     13  C   UNL     1     101.910 125.995  82.317  0.00  0.00    +0.000 C 
BRANCH  13  14
ATOM     14  C   UNL     1     100.929 127.018  82.710  0.00  0.00    +0.000 A 
ATOM     15  C   UNL     1     101.304 128.206  83.351  0.00  0.00    +0.000 A 
ATOM     16  C   UNL     1     100.347 129.170  83.680  0.00  0.00    +0.000 A 
ATOM     17  C   UNL     1      99.007 128.960  83.361  0.00  0.00    +0.000 A 
ATOM     18  C   UNL     1      98.624 127.790  82.709  0.00  0.00    +0.000 A 
ATOM     19  C   UNL     1      99.582 126.827  82.380  0.00  0.00    +0.000 A 
ENDBRANCH  13  14
ENDBRANCH   4  12
TORSDOF 4
ENDMDL
