MODEL 1
REMARK VINA RESULT:      -4.3      0.000      0.000
REMARK  Name = *****
REMARK  5 active torsions:
REMARK  status: ('A' for Active; 'I' for Inactive)
REMARK    1  A    between atoms: C_1  and  C_2
REMARK    2  A    between atoms: C_2  and  N_3
REMARK    3  A    between atoms: N_3  and  C_4
REMARK    4  A    between atoms: N_3  and  C_11
REMARK    5  A    between atoms: C_4  and  C_5
REMARK                            x       y       z     vdW  Elec       q    Type
REMARK                         _______ _______ _______ _____ _____    ______ ____
ROOT
ATOM      1  N   UNL     1     102.571 127.107  83.032  0.00  0.00    +0.000 N 
ENDROOT
BRANCH   1   2
ATOM      2  C   UNL     1     101.215 127.520  83.011  0.00  0.00    +0.000 A 
ATOM      3  N   UNL     1     100.875 128.739  83.482  0.00  0.00    +0.000 NA
ATOM      4  C   UNL     1      99.574 129.091  83.434  0.00  0.00    +0.000 A 
ATOM      5  C   UNL     1      98.557 128.296  82.940  0.00  0.00    +0.000 A 
ATOM      6  C   UNL     1      98.907 127.046  82.455  0.00  0.00    +0.000 A 
ATOM      7  C   UNL     1     100.246 126.657  82.489  0.00  0.00    +0.000 A 
ATOM      8 CL   UNL     1      99.238 130.656  84.053  0.00  0.00    +0.000 Cl
ENDBRANCH   1   2
BRANCH   1  10
ATOM      9  C   UNL     1     104.458 128.699  82.972  0.00  0.00    +0.000 C 
ATOM     10  C   UNL     1     103.410 128.012  83.840  0.00  0.00    +0.000 C 
ENDBRANCH   1  10
BRANCH   1  11
ATOM     11  C   UNL     1     102.676 125.678  83.392  0.00  0.00    +0.000 C 
BRANCH  11  12
ATOM     12  C   UNL     1     103.519 124.886  82.411  0.00  0.00    +0.000 A 
ATOM     13  C   UNL     1     104.164 123.694  82.777  0.00  0.00    +0.000 A 
ATOM     14  C   UNL     1     104.896 122.960  81.842  0.00  0.00    +0.000 A 
ATOM     15  C   UNL     1     104.982 123.401  80.523  0.00  0.00    +0.000 A 
ATOM     16  C   UNL     1     104.336 124.573  80.138  0.00  0.00    +0.000 A 
ATOM     17  C   UNL     1     103.606 125.310  81.074  0.00  0.00    +0.000 A 
ENDBRANCH  11  12
ENDBRANCH   1  11
TORSDOF 4
ENDMDL
