MODEL 1
REMARK VINA RESULT:      -4.6      0.000      0.000
REMARK  Name = *****
REMARK  5 active torsions:
REMARK  status: ('A' for Active; 'I' for Inactive)
REMARK    1  A    between atoms: C_1  and  C_2
REMARK    2  A    between atoms: C_5  and  S_8
REMARK    3  A    between atoms: S_8  and  N_9
REMARK    4  A    between atoms: S_8  and  C_17
REMARK    5  A    between atoms: N_9  and  C_10
REMARK                            x       y       z     vdW  Elec       q    Type
REMARK                         _______ _______ _______ _____ _____    ______ ____
ROOT
ATOM      1  S   UNL     1      89.006  70.285  86.214  0.00  0.00    +0.000 S 
ATOM      2  O   UNL     1      89.610  70.869  87.400  0.00  0.00    +0.000 OA
ATOM      3  C   UNL     1      90.184  70.537  84.908  0.00  0.00    +0.000 C 
ENDROOT
BRANCH   1   8
ATOM      4  C   UNL     1      88.717  64.333  87.430  0.00  0.00    +0.000 C 
ATOM      5  C   UNL     1      88.793  65.796  87.103  0.00  0.00    +0.000 A 
ATOM      6  C   UNL     1      89.890  66.313  86.403  0.00  0.00    +0.000 A 
ATOM      7  C   UNL     1      89.980  67.680  86.127  0.00  0.00    +0.000 A 
ATOM      8  C   UNL     1      88.965  68.535  86.560  0.00  0.00    +0.000 A 
ATOM      9  C   UNL     1      87.880  68.036  87.285  0.00  0.00    +0.000 A 
ATOM     10  C   UNL     1      87.796  66.669  87.556  0.00  0.00    +0.000 A 
ENDBRANCH   1   8
BRANCH   1  11
ATOM     11  N   UNL     1      87.624  70.696  85.675  0.00  0.00    +0.000 NA
BRANCH  11  12
ATOM     12  C   UNL     1      86.507  71.280  86.343  0.00  0.00    +0.000 A 
ATOM     13  C   UNL     1      86.321  71.343  87.724  0.00  0.00    +0.000 A 
ATOM     14  C   UNL     1      85.179  71.949  88.262  0.00  0.00    +0.000 A 
ATOM     15  C   UNL     1      84.213  72.496  87.420  0.00  0.00    +0.000 A 
ATOM     16  C   UNL     1      84.389  72.443  86.040  0.00  0.00    +0.000 A 
ATOM     17  C   UNL     1      85.533  71.839  85.509  0.00  0.00    +0.000 A 
ENDBRANCH  11  12
ENDBRANCH   1  11
TORSDOF 3
ENDMDL
