MODEL 1
REMARK VINA RESULT:      -4.3      0.000      0.000
REMARK  Name = *****
REMARK  3 active torsions:
REMARK  status: ('A' for Active; 'I' for Inactive)
REMARK    1  A    between atoms: C_4  and  S_7
REMARK    2  A    between atoms: S_7  and  C_8
REMARK    3  A    between atoms: C_8  and  C_10
REMARK                            x       y       z     vdW  Elec       q    Type
REMARK                         _______ _______ _______ _____ _____    ______ ____
ROOT
ATOM      1  C   UNL     1     101.060 126.522  83.221  0.00  0.00    +0.000 C 
ATOM      2  O   UNL     1     101.279 126.070  84.336  0.00  0.00    +0.000 OA
ENDROOT
BRANCH   1   3
ATOM      3  C   UNL     1     102.158 126.726  82.258  0.00  0.00    +0.000 A 
ATOM      4  C   UNL     1     102.507 125.738  81.326  0.00  0.00    +0.000 A 
ATOM      5  C   UNL     1     103.569 125.959  80.444  0.00  0.00    +0.000 A 
ATOM      6  C   UNL     1     104.284 127.157  80.495  0.00  0.00    +0.000 A 
ATOM      7  C   UNL     1     103.941 128.136  81.427  0.00  0.00    +0.000 A 
ATOM      8  C   UNL     1     102.883 127.915  82.308  0.00  0.00    +0.000 A 
ATOM      9  F   UNL     1     102.562 128.885  83.174  0.00  0.00    +0.000 F 
ENDBRANCH   1   3
BRANCH   1  10
ATOM     10  S   UNL     1      99.463 127.016  82.667  0.00  0.00    +0.000 S 
BRANCH  10  14
ATOM     11  C   UNL     1      98.572 130.534  85.466  0.00  0.00    +0.000 A 
ATOM     12  C   UNL     1      98.179 129.248  85.830  0.00  0.00    +0.000 A 
ATOM     13  C   UNL     1      98.438 128.170  84.981  0.00  0.00    +0.000 A 
ATOM     14  C   UNL     1      99.080 128.372  83.755  0.00  0.00    +0.000 A 
ATOM     15  C   UNL     1      99.483 129.666  83.402  0.00  0.00    +0.000 A 
ATOM     16  C   UNL     1      99.226 130.743  84.253  0.00  0.00    +0.000 A 
ENDBRANCH  10  14
ENDBRANCH   1  10
TORSDOF 3
ENDMDL
