MODEL 1
REMARK VINA RESULT:      -4.3      0.000      0.000
REMARK  Name = *****
REMARK  3 active torsions:
REMARK  status: ('A' for Active; 'I' for Inactive)
REMARK    1  A    between atoms: C_3  and  S_8
REMARK    2  A    between atoms: S_8  and  S_9
REMARK    3  A    between atoms: S_9  and  C_12
REMARK                            x       y       z     vdW  Elec       q    Type
REMARK                         _______ _______ _______ _____ _____    ______ ____
ROOT
ATOM      1  S   UNL     1      89.722  67.425  85.449  0.00  0.00    +0.000 S 
ATOM      2  O   UNL     1      90.664  67.019  86.473  0.00  0.00    +0.000 OA
ATOM      3  O   UNL     1      90.169  67.831  84.130  0.00  0.00    +0.000 OA
ENDROOT
BRANCH   1   4
ATOM      4  C   UNL     1      88.750  68.760  86.115  0.00  0.00    +0.000 A 
ATOM      5  C   UNL     1      87.538  69.107  85.504  0.00  0.00    +0.000 A 
ATOM      6  C   UNL     1      86.771  70.140  86.042  0.00  0.00    +0.000 A 
ATOM      7  C   UNL     1      87.214  70.804  87.183  0.00  0.00    +0.000 A 
ATOM      8  C   UNL     1      88.410  70.453  87.802  0.00  0.00    +0.000 A 
ATOM      9  C   UNL     1      89.185  69.420  87.271  0.00  0.00    +0.000 A 
ATOM     10  F   UNL     1      86.474  71.795  87.696  0.00  0.00    +0.000 F 
ENDBRANCH   1   4
BRANCH   1  11
ATOM     11  S   UNL     1      88.307  65.899  85.217  0.00  0.00    +0.000 S 
BRANCH  11  14
ATOM     12  C   UNL     1      86.930  65.663  89.029  0.00  0.00    +0.000 A 
ATOM     13  C   UNL     1      87.146  66.067  87.709  0.00  0.00    +0.000 A 
ATOM     14  C   UNL     1      88.063  65.382  86.903  0.00  0.00    +0.000 A 
ATOM     15  C   UNL     1      88.751  64.279  87.425  0.00  0.00    +0.000 A 
ATOM     16  C   UNL     1      88.536  63.877  88.746  0.00  0.00    +0.000 A 
ATOM     17  C   UNL     1      87.628  64.573  89.536  0.00  0.00    +0.000 A 
ATOM     18  F   UNL     1      87.420  64.185  90.800  0.00  0.00    +0.000 F 
ENDBRANCH  11  14
ENDBRANCH   1  11
TORSDOF 3
ENDMDL
