MODEL 1
REMARK VINA RESULT:      -5.3      0.000      0.000
REMARK  Name = *****
REMARK  2 active torsions:
REMARK  status: ('A' for Active; 'I' for Inactive)
REMARK    1  A    between atoms: C_5  and  C_7
REMARK    2  A    between atoms: C_8  and  C_9
REMARK                            x       y       z     vdW  Elec       q    Type
REMARK                         _______ _______ _______ _____ _____    ______ ____
ROOT
ATOM      1  C   UNL     1     101.810 126.049  82.356  0.00  0.00    +0.000 C 
ATOM      2  C   UNL     1     102.828 126.187  81.491  0.00  0.00    +0.000 C 
ENDROOT
BRANCH   2   3
ATOM      3  C   UNL     1     103.757 125.104  81.135  0.00  0.00    +0.000 A 
ATOM      4  C   UNL     1     104.486 125.107  79.938  0.00  0.00    +0.000 A 
ATOM      5  C   UNL     1     105.374 124.070  79.661  0.00  0.00    +0.000 A 
ATOM      6  C   UNL     1     105.557 123.036  80.568  0.00  0.00    +0.000 A 
ATOM      7  C   UNL     1     104.856 123.024  81.768  0.00  0.00    +0.000 A 
ATOM      8  C   UNL     1     103.962 124.061  82.053  0.00  0.00    +0.000 A 
ATOM      9  F   UNL     1     106.414 122.042  80.298  0.00  0.00    +0.000 F 
ATOM     10  F   UNL     1     106.060 124.086  78.508  0.00  0.00    +0.000 F 
ENDBRANCH   2   3
BRANCH   1  15
ATOM     11  C   UNL     1     100.582 129.291  83.827  0.00  0.00    +0.000 A 
ATOM     12  C   UNL     1      99.214 129.246  83.560  0.00  0.00    +0.000 A 
ATOM     13  C   UNL     1      98.677 128.148  82.890  0.00  0.00    +0.000 A 
ATOM     14  C   UNL     1      99.511 127.106  82.487  0.00  0.00    +0.000 A 
ATOM     15  C   UNL     1     100.890 127.137  82.731  0.00  0.00    +0.000 A 
ATOM     16  C   UNL     1     101.412 128.241  83.421  0.00  0.00    +0.000 A 
ATOM     17  F   UNL     1      98.947 126.058  81.866  0.00  0.00    +0.000 F 
ENDBRANCH   1  15
TORSDOF 2
ENDMDL
