MODEL 1
REMARK VINA RESULT:      -4.3      0.000      0.000
REMARK  Name = *****
REMARK  4 active torsions:
REMARK  status: ('A' for Active; 'I' for Inactive)
REMARK    1  A    between atoms: C_1  and  C_2
REMARK    2  A    between atoms: C_3  and  C_14
REMARK    3  A    between atoms: C_4  and  C_5
REMARK    4  A    between atoms: C_6  and  C_7
REMARK                            x       y       z     vdW  Elec       q    Type
REMARK                         _______ _______ _______ _____ _____    ______ ____
ROOT
ATOM      1  C   UNL     1     103.010 125.280  82.432  0.00  0.00    +0.000 C 
ATOM      2  C   UNL     1     102.101 126.049  82.589  0.00  0.00    +0.000 C 
ENDROOT
BRANCH   1   6
ATOM      3  C   UNL     1     104.828 122.535  80.486  0.00  0.00    +0.000 C 
ATOM      4  C   UNL     1     104.432 123.931  80.832  0.00  0.00    +0.000 C 
ATOM      5  C   UNL     1     105.385 124.818  81.592  0.00  0.00    +0.000 C 
ATOM      6  C   UNL     1     104.096 124.360  82.249  0.00  0.00    +0.000 C 
ATOM      7 CL   UNL     1     104.256 123.192  83.568  0.00  0.00    +0.000 Cl
ATOM      8  C   UNL     1     105.603 126.228  81.153  0.00  0.00    +0.000 C 
ENDBRANCH   1   6
BRANCH   2   9
ATOM      9  C   UNL     1     101.019 126.964  82.778  0.00  0.00    +0.000 A 
ATOM     10  C   UNL     1     101.245 128.200  83.388  0.00  0.00    +0.000 A 
ATOM     11  C   UNL     1     100.187 129.094  83.571  0.00  0.00    +0.000 A 
ATOM     12  C   UNL     1      98.904 128.751  83.145  0.00  0.00    +0.000 A 
ATOM     13  C   UNL     1      98.676 127.518  82.536  0.00  0.00    +0.000 A 
ATOM     14  C   UNL     1      99.732 126.623  82.352  0.00  0.00    +0.000 A 
ENDBRANCH   2   9
TORSDOF 2
ENDMDL
