MODEL 1
REMARK VINA RESULT:      -4.8      0.000      0.000
REMARK  Name = *****
REMARK  2 active torsions:
REMARK  status: ('A' for Active; 'I' for Inactive)
REMARK    1  A    between atoms: C_2  and  C_7
REMARK    2  A    between atoms: C_8  and  C_9
REMARK                            x       y       z     vdW  Elec       q    Type
REMARK                         _______ _______ _______ _____ _____    ______ ____
ROOT
ATOM      1  C   UNL     1     102.988 126.237  81.282  0.00  0.00    +0.000 C 
ATOM      2  C   UNL     1     102.027 125.983  82.185  0.00  0.00    +0.000 C 
ENDROOT
BRANCH   1   4
ATOM      3  C   UNL     1     104.811 125.459  79.735  0.00  0.00    +0.000 A 
ATOM      4  C   UNL     1     103.972 125.241  80.835  0.00  0.00    +0.000 A 
ATOM      5  C   UNL     1     104.033 124.007  81.496  0.00  0.00    +0.000 A 
ATOM      6  C   UNL     1     104.936 123.022  81.083  0.00  0.00    +0.000 A 
ATOM      7  C   UNL     1     105.776 123.258  79.998  0.00  0.00    +0.000 A 
ATOM      8  C   UNL     1     105.711 124.475  79.321  0.00  0.00    +0.000 A 
ENDBRANCH   1   4
BRANCH   2   9
ATOM      9  C   UNL     1     101.042 126.978  82.634  0.00  0.00    +0.000 A 
ATOM     10  C   UNL     1     101.416 128.159  83.288  0.00  0.00    +0.000 A 
ATOM     11  C   UNL     1     100.451 129.095  83.671  0.00  0.00    +0.000 A 
ATOM     12  C   UNL     1      99.105 128.865  83.396  0.00  0.00    +0.000 A 
ATOM     13  C   UNL     1      98.723 127.701  82.732  0.00  0.00    +0.000 A 
ATOM     14  C   UNL     1      99.687 126.766  82.347  0.00  0.00    +0.000 A 
ENDBRANCH   2   9
TORSDOF 2
ENDMDL
