MODEL 1
REMARK VINA RESULT:      -4.7      0.000      0.000
REMARK  Name = *****
REMARK  1 active torsions:
REMARK  status: ('A' for Active; 'I' for Inactive)
REMARK    1  A    between atoms: C_3  and  C_12
REMARK                            x       y       z     vdW  Elec       q    Type
REMARK                         _______ _______ _______ _____ _____    ______ ____
ROOT
ATOM      1  C   UNL     1      87.404  62.900  87.213  0.00  0.00    +0.000 C 
ATOM      2  C   UNL     1      85.903  63.094  86.959  0.00  0.00    +0.000 C 
ATOM      3  C   UNL     1      84.960  63.349  88.156  0.00  0.00    +0.000 C 
ATOM      4  S   UNL     1      85.317  64.981  88.942  0.00  0.00    +0.000 S 
ATOM      5  C   UNL     1      86.767  64.577  89.895  0.00  0.00    +0.000 A 
ATOM      6  C   UNL     1      86.682  64.676  91.291  0.00  0.00    +0.000 A 
ATOM      7  C   UNL     1      87.782  64.375  92.095  0.00  0.00    +0.000 A 
ATOM      8  C   UNL     1      88.979  63.982  91.507  0.00  0.00    +0.000 A 
ATOM      9  C   UNL     1      89.078  63.896  90.119  0.00  0.00    +0.000 A 
ATOM     10  C   UNL     1      87.978  64.198  89.296  0.00  0.00    +0.000 A 
ATOM     11  C   UNL     1      88.133  64.106  87.800  0.00  0.00    +0.000 C 
ENDROOT
BRANCH   3  12
ATOM     12  C   UNL     1      84.711  62.216  89.151  0.00  0.00    +0.000 A 
ATOM     13  C   UNL     1      85.700  61.291  89.520  0.00  0.00    +0.000 A 
ATOM     14  C   UNL     1      85.424  60.248  90.410  0.00  0.00    +0.000 A 
ATOM     15  C   UNL     1      84.145  60.090  90.934  0.00  0.00    +0.000 A 
ATOM     16  C   UNL     1      83.137  60.970  90.558  0.00  0.00    +0.000 A 
ATOM     17  C   UNL     1      83.414  62.012  89.670  0.00  0.00    +0.000 A 
ENDBRANCH   3  12
TORSDOF 1
ENDMDL
