MODEL 1
REMARK VINA RESULT:      -4.9      0.000      0.000
REMARK  Name = *****
REMARK  5 active torsions:
REMARK  status: ('A' for Active; 'I' for Inactive)
REMARK    1  A    between atoms: C_1  and  C_2
REMARK    2  A    between atoms: C_5  and  C_8
REMARK    3  A    between atoms: N_9  and  C_10
REMARK    4  A    between atoms: C_11  and  C_17
REMARK    5  A    between atoms: C_15  and  C_16
REMARK                            x       y       z     vdW  Elec       q    Type
REMARK                         _______ _______ _______ _____ _____    ______ ____
ROOT
ATOM      1  C   UNL     1     102.363 127.142  82.197  0.00  0.00    +0.000 C 
ATOM      2  N   UNL     1     101.738 127.197  83.331  0.00  0.00    +0.000 NA
ENDROOT
BRANCH   2   3
ATOM      3  C   UNL     1     101.052 128.400  83.592  0.00  0.00    +0.000 A 
ATOM      4  C   UNL     1      99.696 128.537  83.229  0.00  0.00    +0.000 A 
ATOM      5  C   UNL     1      99.033 129.747  83.478  0.00  0.00    +0.000 A 
ATOM      6  C   UNL     1      99.694 130.801  84.104  0.00  0.00    +0.000 A 
ATOM      7  C   UNL     1     101.024 130.657  84.492  0.00  0.00    +0.000 A 
ATOM      8  C   UNL     1     101.709 129.458  84.252  0.00  0.00    +0.000 A 
ATOM      9  C   UNL     1     103.144 129.321  84.682  0.00  0.00    +0.000 C 
ATOM     10  C   UNL     1      98.962 127.411  82.556  0.00  0.00    +0.000 C 
ENDBRANCH   2   3
BRANCH   1  15
ATOM     11  C   UNL     1     105.337 122.491  80.504  0.00  0.00    +0.000 C 
ATOM     12  C   UNL     1     104.589 123.711  80.954  0.00  0.00    +0.000 A 
ATOM     13  C   UNL     1     104.134 123.811  82.276  0.00  0.00    +0.000 A 
ATOM     14  C   UNL     1     103.409 124.929  82.691  0.00  0.00    +0.000 A 
ATOM     15  C   UNL     1     103.126 125.951  81.782  0.00  0.00    +0.000 A 
ATOM     16  C   UNL     1     103.562 125.856  80.459  0.00  0.00    +0.000 A 
ATOM     17  C   UNL     1     104.286 124.734  80.046  0.00  0.00    +0.000 A 
ENDBRANCH   1  15
TORSDOF 2
ENDMDL
