MODEL 1
REMARK VINA RESULT:      -5.1      0.000      0.000
REMARK  Name = *****
REMARK  2 active torsions:
REMARK  status: ('A' for Active; 'I' for Inactive)
REMARK    1  A    between atoms: C_3  and  C_11
REMARK    2  A    between atoms: C_4  and  C_5
REMARK                            x       y       z     vdW  Elec       q    Type
REMARK                         _______ _______ _______ _____ _____    ______ ____
ROOT
ATOM      1  C   UNL     1     103.691 127.432  80.234  0.00  0.00    +0.000 C 
ATOM      2  C   UNL     1     103.152 126.681  81.172  0.00  0.00    +0.000 C 
ATOM      3  C   UNL     1     103.406 125.849  82.285  0.00  0.00    +0.000 C 
ATOM      4  C   UNL     1     101.947 126.185  81.717  0.00  0.00    +0.000 C 
ENDROOT
BRANCH   4   5
ATOM      5  C   UNL     1     101.063 127.111  82.512  0.00  0.00    +0.000 A 
ATOM      6  C   UNL     1     101.585 128.214  83.211  0.00  0.00    +0.000 A 
ATOM      7  C   UNL     1     100.759 129.084  83.928  0.00  0.00    +0.000 A 
ATOM      8  C   UNL     1      99.383 128.873  83.953  0.00  0.00    +0.000 A 
ATOM      9  C   UNL     1      98.837 127.798  83.261  0.00  0.00    +0.000 A 
ATOM     10  C   UNL     1      99.669 126.931  82.546  0.00  0.00    +0.000 A 
ENDBRANCH   4   5
BRANCH   3  11
ATOM     11  C   UNL     1     103.965 124.468  82.058  0.00  0.00    +0.000 A 
ATOM     12  C   UNL     1     104.379 124.038  80.784  0.00  0.00    +0.000 A 
ATOM     13  C   UNL     1     104.915 122.763  80.582  0.00  0.00    +0.000 A 
ATOM     14  C   UNL     1     105.060 121.890  81.656  0.00  0.00    +0.000 A 
ATOM     15  C   UNL     1     104.672 122.294  82.930  0.00  0.00    +0.000 A 
ATOM     16  C   UNL     1     104.135 123.570  83.125  0.00  0.00    +0.000 A 
ENDBRANCH   3  11
TORSDOF 2
ENDMDL
