MODEL 1
REMARK VINA RESULT:      -4.8      0.000      0.000
REMARK  Name = *****
REMARK  1 active torsions:
REMARK  status: ('A' for Active; 'I' for Inactive)
REMARK    1  A    between atoms: C_4  and  C_7
REMARK                            x       y       z     vdW  Elec       q    Type
REMARK                         _______ _______ _______ _____ _____    ______ ____
ROOT
ATOM      1  C   UNL     1     102.963 126.023  82.262  0.00  0.00    +0.000 A 
ATOM      2  C   UNL     1     101.565 125.995  82.149  0.00  0.00    +0.000 A 
ATOM      3  C   UNL     1     100.778 127.060  82.622  0.00  0.00    +0.000 A 
ATOM      4  C   UNL     1      99.378 127.044  82.508  0.00  0.00    +0.000 A 
ATOM      5  C   UNL     1      98.611 128.110  82.982  0.00  0.00    +0.000 A 
ATOM      6  C   UNL     1      99.232 129.203  83.577  0.00  0.00    +0.000 A 
ATOM      7  C   UNL     1     100.622 129.235  83.698  0.00  0.00    +0.000 A 
ATOM      8  C   UNL     1     101.408 128.172  83.226  0.00  0.00    +0.000 A 
ATOM      9  C   UNL     1     102.807 128.192  83.339  0.00  0.00    +0.000 A 
ATOM     10  C   UNL     1     103.576 127.129  82.862  0.00  0.00    +0.000 A 
ENDROOT
BRANCH   1  14
ATOM     11  C   UNL     1     105.192 122.466  80.566  0.00  0.00    +0.000 C 
ATOM     12  C   UNL     1     105.629 123.820  80.039  0.00  0.00    +0.000 C 
ATOM     13  S   UNL     1     104.289 125.033  80.131  0.00  0.00    +0.000 S 
ATOM     14  C   UNL     1     103.783 124.895  81.781  0.00  0.00    +0.000 C 
ATOM     15  C   UNL     1     104.046 123.893  82.638  0.00  0.00    +0.000 C 
ATOM     16  S   UNL     1     104.995 122.474  82.367  0.00  0.00    +0.000 S 
ENDBRANCH   1  14
TORSDOF 1
ENDMDL
