MODEL 1
REMARK VINA RESULT:      -4.0      0.000      0.000
REMARK  Name = *****
REMARK  3 active torsions:
REMARK  status: ('A' for Active; 'I' for Inactive)
REMARK    1  A    between atoms: C_1  and  C_2
REMARK    2  A    between atoms: C_5  and  C_7
REMARK    3  A    between atoms: C_8  and  C_9
REMARK                            x       y       z     vdW  Elec       q    Type
REMARK                         _______ _______ _______ _____ _____    ______ ____
ROOT
ATOM      1  C   UNL     1     101.513 126.122  82.508  0.00  0.00    +0.000 C 
ATOM      2  C   UNL     1     102.618 126.306  81.767  0.00  0.00    +0.000 C 
ENDROOT
BRANCH   1   7
ATOM      3  C   UNL     1      99.604 130.617  84.049  0.00  0.00    +0.000 C 
ATOM      4  C   UNL     1      99.635 129.228  83.509  0.00  0.00    +0.000 A 
ATOM      5  C   UNL     1      98.531 128.513  83.098  0.00  0.00    +0.000 A 
ATOM      6  S   UNL     1      98.928 126.954  82.531  0.00  0.00    +0.000 S 
ATOM      7  C   UNL     1     100.614 127.187  82.822  0.00  0.00    +0.000 A 
ATOM      8  C   UNL     1     100.831 128.453  83.344  0.00  0.00    +0.000 A 
ENDBRANCH   1   7
BRANCH   2   9
ATOM      9  C   UNL     1     103.518 125.241  81.453  0.00  0.00    +0.000 A 
ATOM     10  C   UNL     1     104.070 124.830  80.250  0.00  0.00    +0.000 A 
ATOM     11  C   UNL     1     104.937 123.704  80.378  0.00  0.00    +0.000 A 
ATOM     12  C   UNL     1     105.029 123.276  81.680  0.00  0.00    +0.000 A 
ATOM     13  S   UNL     1     104.082 124.225  82.734  0.00  0.00    +0.000 S 
ENDBRANCH   2   9
TORSDOF 2
ENDMDL
