REMARK  Name = *****
REMARK  3 active torsions:
REMARK  status: ('A' for Active; 'I' for Inactive)
REMARK    1  A    between atoms: C_1  and  C_2
REMARK    2  A    between atoms: C_2  and  C_10
REMARK    3  A    between atoms: N_3  and  C_4
REMARK                            x       y       z     vdW  Elec       q    Type
REMARK                         _______ _______ _______ _____ _____    ______ ____
ROOT
ATOM      1  C   UNL     1       1.050   0.880  -0.189  0.00  0.00    +0.000 C 
ATOM      2  C   UNL     1       2.395   0.195  -0.009  0.00  0.00    +0.000 C 
ATOM      3  N   UNL     1       2.978   0.010   1.142  0.00  0.00    +0.000 NA
ENDROOT
BRANCH   3   4
ATOM      4  C   UNL     1       2.376   0.440   2.328  0.00  0.00    +0.000 A 
ATOM      5  C   UNL     1       1.464  -0.380   2.998  0.00  0.00    +0.000 A 
ATOM      6  C   UNL     1       0.880   0.042   4.194  0.00  0.00    +0.000 A 
ATOM      7  C   UNL     1       1.218   1.283   4.733  0.00  0.00    +0.000 A 
ATOM      8  C   UNL     1       2.145   2.097   4.082  0.00  0.00    +0.000 A 
ATOM      9  C   UNL     1       2.727   1.671   2.886  0.00  0.00    +0.000 A 
ENDBRANCH   3   4
BRANCH   2  10
ATOM     10  C   UNL     1       3.092  -0.326  -1.186  0.00  0.00    +0.000 A 
ATOM     11  C   UNL     1       4.356  -0.892  -1.228  0.00  0.00    +0.000 A 
ATOM     12  C   UNL     1       4.737  -1.307  -2.536  0.00  0.00    +0.000 A 
ATOM     13  C   UNL     1       3.751  -1.052  -3.460  0.00  0.00    +0.000 A 
ATOM     14  S   UNL     1       2.381  -0.320  -2.747  0.00  0.00    +0.000 S 
ENDBRANCH   2  10
TORSDOF 2
