MODEL 1
REMARK VINA RESULT:      -5.0      0.000      0.000
REMARK  Name = *****
REMARK  2 active torsions:
REMARK  status: ('A' for Active; 'I' for Inactive)
REMARK    1  A    between atoms: C_7  and  S_11
REMARK    2  A    between atoms: S_11  and  C_12
REMARK                            x       y       z     vdW  Elec       q    Type
REMARK                         _______ _______ _______ _____ _____    ______ ____
ROOT
ATOM      1  C   UNL     1     104.817 122.758  81.520  0.00  0.00    +0.000 A 
ATOM      2  C   UNL     1     105.008 123.318  80.321  0.00  0.00    +0.000 A 
ATOM      3  C   UNL     1     104.758 124.674  79.894  0.00  0.00    +0.000 A 
ATOM      4  C   UNL     1     104.288 125.696  80.620  0.00  0.00    +0.000 A 
ATOM      5  C   UNL     1     104.089 127.027  80.081  0.00  0.00    +0.000 A 
ATOM      6  C   UNL     1     103.625 127.784  81.088  0.00  0.00    +0.000 A 
ATOM      7  C   UNL     1     103.516 126.969  82.292  0.00  0.00    +0.000 A 
ATOM      8  C   UNL     1     103.901 125.698  82.032  0.00  0.00    +0.000 A 
ATOM      9  C   UNL     1     103.908 124.598  82.971  0.00  0.00    +0.000 A 
ATOM     10  C   UNL     1     104.303 123.339  82.736  0.00  0.00    +0.000 A 
ENDROOT
BRANCH   7  11
ATOM     11  S   UNL     1     102.932 127.618  83.774  0.00  0.00    +0.000 S 
BRANCH  11  12
ATOM     12  C   UNL     1     101.203 127.803  83.372  0.00  0.00    +0.000 A 
ATOM     13  C   UNL     1     100.498 128.967  83.703  0.00  0.00    +0.000 A 
ATOM     14  C   UNL     1      99.143 129.083  83.389  0.00  0.00    +0.000 A 
ATOM     15  C   UNL     1      98.481 128.035  82.752  0.00  0.00    +0.000 A 
ATOM     16  C   UNL     1      99.174 126.869  82.430  0.00  0.00    +0.000 A 
ATOM     17  C   UNL     1     100.529 126.751  82.743  0.00  0.00    +0.000 A 
ENDBRANCH  11  12
ENDBRANCH   7  11
TORSDOF 2
ENDMDL
