MODEL 1
REMARK VINA RESULT:      -3.6      0.000      0.000
REMARK  Name = *****
REMARK  5 active torsions:
REMARK  status: ('A' for Active; 'I' for Inactive)
REMARK    1  A    between atoms: C_1  and  C_2
REMARK    2  A    between atoms: C_4  and  S_8
REMARK    3  A    between atoms: S_8  and  S_9
REMARK    4  A    between atoms: S_9  and  C_10
REMARK    5  A    between atoms: C_10  and  C_11
REMARK                            x       y       z     vdW  Elec       q    Type
REMARK                         _______ _______ _______ _____ _____    ______ ____
ROOT
ATOM      1  S   UNL     1      86.395  63.522  85.786  0.00  0.00    +0.000 S 
ENDROOT
BRANCH   1   5
ATOM      2  C   UNL     1      85.627  60.866  90.299  0.00  0.00    +0.000 C 
ATOM      3  C   UNL     1      85.095  61.812  89.262  0.00  0.00    +0.000 A 
ATOM      4  C   UNL     1      85.889  62.182  88.168  0.00  0.00    +0.000 A 
ATOM      5  C   UNL     1      85.391  63.042  87.182  0.00  0.00    +0.000 A 
ATOM      6  C   UNL     1      84.078  63.511  87.279  0.00  0.00    +0.000 A 
ATOM      7  C   UNL     1      83.275  63.134  88.356  0.00  0.00    +0.000 A 
ATOM      8  C   UNL     1      83.780  62.286  89.342  0.00  0.00    +0.000 A 
ENDBRANCH   1   5
BRANCH   1   9
ATOM      9  S   UNL     1      86.688  65.530  86.128  0.00  0.00    +0.000 S 
BRANCH   9  10
ATOM     10  C   UNL     1      88.157  65.513  87.204  0.00  0.00    +0.000 C 
BRANCH  10  11
ATOM     11  C   UNL     1      87.801  65.120  88.617  0.00  0.00    +0.000 A 
ATOM     12  C   UNL     1      88.595  64.206  89.325  0.00  0.00    +0.000 A 
ATOM     13  C   UNL     1      88.259  63.837  90.628  0.00  0.00    +0.000 A 
ATOM     14  C   UNL     1      87.125  64.372  91.235  0.00  0.00    +0.000 A 
ATOM     15  C   UNL     1      86.322  65.273  90.538  0.00  0.00    +0.000 A 
ATOM     16  C   UNL     1      86.657  65.644  89.235  0.00  0.00    +0.000 A 
ENDBRANCH  10  11
ENDBRANCH   9  10
ENDBRANCH   1   9
TORSDOF 4
ENDMDL
