MODEL 1
REMARK VINA RESULT:      -5.2      0.000      0.000
REMARK  Name = *****
REMARK  5 active torsions:
REMARK  status: ('A' for Active; 'I' for Inactive)
REMARK    1  A    between atoms: C_1  and  C_2
REMARK    2  A    between atoms: C_4  and  C_8
REMARK    3  A    between atoms: C_8  and  C_9
REMARK    4  A    between atoms: C_9  and  C_11
REMARK    5  A    between atoms: C_15  and  C_17
REMARK                            x       y       z     vdW  Elec       q    Type
REMARK                         _______ _______ _______ _____ _____    ______ ____
ROOT
ATOM      1  C   UNL     1      88.859  70.094  86.593  0.00  0.00    +0.000 C 
ATOM      2  O   UNL     1      89.708  70.762  87.189  0.00  0.00    +0.000 OA
ENDROOT
BRANCH   1   3
ATOM      3  C   UNL     1      88.894  68.602  86.704  0.00  0.00    +0.000 A 
ATOM      4  C   UNL     1      87.927  67.869  87.400  0.00  0.00    +0.000 A 
ATOM      5  C   UNL     1      88.012  66.477  87.464  0.00  0.00    +0.000 A 
ATOM      6  C   UNL     1      89.062  65.806  86.838  0.00  0.00    +0.000 A 
ATOM      7  C   UNL     1      90.034  66.519  86.128  0.00  0.00    +0.000 A 
ATOM      8  C   UNL     1      89.949  67.917  86.078  0.00  0.00    +0.000 A 
ATOM      9  C   UNL     1      91.183  65.804  85.482  0.00  0.00    +0.000 C 
ENDBRANCH   1   3
BRANCH   1  10
ATOM     10  C   UNL     1      87.787  70.774  85.762  0.00  0.00    +0.000 C 
BRANCH  10  14
ATOM     11  C   UNL     1      83.264  73.042  85.958  0.00  0.00    +0.000 C 
ATOM     12  C   UNL     1      84.446  72.433  86.653  0.00  0.00    +0.000 A 
ATOM     13  C   UNL     1      85.524  71.927  85.911  0.00  0.00    +0.000 A 
ATOM     14  C   UNL     1      86.609  71.305  86.547  0.00  0.00    +0.000 A 
ATOM     15  C   UNL     1      86.618  71.228  87.946  0.00  0.00    +0.000 A 
ATOM     16  C   UNL     1      85.547  71.722  88.690  0.00  0.00    +0.000 A 
ATOM     17  C   UNL     1      84.460  72.311  88.046  0.00  0.00    +0.000 A 
ENDBRANCH  10  14
ENDBRANCH   1  10
TORSDOF 3
ENDMDL
