MODEL 1
REMARK VINA RESULT:      -4.2      0.000      0.000
REMARK  Name = *****
REMARK  3 active torsions:
REMARK  status: ('A' for Active; 'I' for Inactive)
REMARK    1  A    between atoms: C_5  and  C_7
REMARK    2  A    between atoms: C_7  and  O_9
REMARK    3  A    between atoms: O_9  and  C_10
REMARK                            x       y       z     vdW  Elec       q    Type
REMARK                         _______ _______ _______ _____ _____    ______ ____
ROOT
ATOM      1  C   UNL     1      88.407  70.574  85.479  0.00  0.00    +0.000 C 
ATOM      2  O   UNL     1      89.424  71.232  85.321  0.00  0.00    +0.000 OA
ENDROOT
BRANCH   1   7
ATOM      3  C   UNL     1      85.079  72.114  86.254  0.00  0.00    +0.000 A 
ATOM      4  C   UNL     1      85.009  72.009  87.640  0.00  0.00    +0.000 A 
ATOM      5  C   UNL     1      86.069  71.443  88.352  0.00  0.00    +0.000 A 
ATOM      6  C   UNL     1      87.203  70.968  87.682  0.00  0.00    +0.000 A 
ATOM      7  C   UNL     1      87.266  71.054  86.287  0.00  0.00    +0.000 A 
ATOM      8  C   UNL     1      86.205  71.643  85.578  0.00  0.00    +0.000 A 
ATOM      9 CL   UNL     1      88.486  70.349  88.655  0.00  0.00    +0.000 Cl
ENDBRANCH   1   7
BRANCH   1  10
ATOM     10  O   UNL     1      88.046  69.407  84.836  0.00  0.00    +0.000 OA
BRANCH  10  11
ATOM     11  C   UNL     1      88.399  68.270  85.570  0.00  0.00    +0.000 A 
ATOM     12  C   UNL     1      89.747  67.907  85.589  0.00  0.00    +0.000 A 
ATOM     13  C   UNL     1      90.139  66.759  86.279  0.00  0.00    +0.000 A 
ATOM     14  C   UNL     1      89.185  65.976  86.932  0.00  0.00    +0.000 A 
ATOM     15  C   UNL     1      87.835  66.335  86.893  0.00  0.00    +0.000 A 
ATOM     16  C   UNL     1      87.436  67.482  86.205  0.00  0.00    +0.000 A 
ATOM     17 CL   UNL     1      85.759  67.878  86.155  0.00  0.00    +0.000 Cl
ENDBRANCH  10  11
ENDBRANCH   1  10
TORSDOF 3
ENDMDL
