MODEL 1
REMARK VINA RESULT:      -4.5      0.000      0.000
REMARK  Name = *****
REMARK  3 active torsions:
REMARK  status: ('A' for Active; 'I' for Inactive)
REMARK    1  A    between atoms: C_4  and  C_7
REMARK    2  A    between atoms: C_7  and  S_8
REMARK    3  A    between atoms: S_8  and  C_10
REMARK                            x       y       z     vdW  Elec       q    Type
REMARK                         _______ _______ _______ _____ _____    ______ ____
ROOT
ATOM      1  C   UNL     1     104.472 126.022  81.834  0.00  0.00    +0.000 A 
ATOM      2  C   UNL     1     105.335 127.110  81.973  0.00  0.00    +0.000 A 
ATOM      3  C   UNL     1     106.302 127.378  81.010  0.00  0.00    +0.000 A 
ATOM      4  C   UNL     1     106.419 126.562  79.895  0.00  0.00    +0.000 A 
ATOM      5  C   UNL     1     105.564 125.480  79.740  0.00  0.00    +0.000 A 
ATOM      6  C   UNL     1     104.595 125.211  80.703  0.00  0.00    +0.000 A 
ATOM      7  F   UNL     1     103.760 124.180  80.509  0.00  0.00    +0.000 F 
ATOM      8  F   UNL     1     105.659 124.703  78.653  0.00  0.00    +0.000 F 
ATOM      9  F   UNL     1     107.345 126.825  78.963  0.00  0.00    +0.000 F 
ATOM     10  F   UNL     1     107.116 128.433  81.157  0.00  0.00    +0.000 F 
ATOM     11  F   UNL     1     105.230 127.921  83.036  0.00  0.00    +0.000 F 
ENDROOT
BRANCH   1  12
ATOM     12  S   UNL     1     103.270 125.690  83.129  0.00  0.00    +0.000 S 
ATOM     13  O   UNL     1     103.440 124.232  83.443  0.00  0.00    +0.000 OA
BRANCH  12  14
ATOM     14  C   UNL     1     101.758 125.877  82.124  0.00  0.00    +0.000 C 
BRANCH  14  18
ATOM     15  C   UNL     1      99.285 129.106  83.553  0.00  0.00    +0.000 A 
ATOM     16  C   UNL     1     100.666 129.156  83.733  0.00  0.00    +0.000 A 
ATOM     17  C   UNL     1     101.471 128.112  83.270  0.00  0.00    +0.000 A 
ATOM     18  C   UNL     1     100.899 127.010  82.618  0.00  0.00    +0.000 A 
ATOM     19  C   UNL     1      99.507 126.969  82.449  0.00  0.00    +0.000 A 
ATOM     20  C   UNL     1      98.705 128.012  82.914  0.00  0.00    +0.000 A 
ENDBRANCH  14  18
ENDBRANCH  12  14
ENDBRANCH   1  12
TORSDOF 3
ENDMDL
