MODEL 1
REMARK VINA RESULT:      -4.9      0.000      0.000
REMARK  Name = *****
REMARK  6 active torsions:
REMARK  status: ('A' for Active; 'I' for Inactive)
REMARK    1  A    between atoms: C_1  and  C_2
REMARK    2  A    between atoms: C_5  and  C_8
REMARK    3  A    between atoms: C_8  and  C_9
REMARK    4  A    between atoms: C_8  and  O_10
REMARK    5  A    between atoms: O_10  and  C_11
REMARK    6  A    between atoms: C_11  and  C_13
REMARK                            x       y       z     vdW  Elec       q    Type
REMARK                         _______ _______ _______ _____ _____    ______ ____
ROOT
ATOM      1  C   UNL     1     101.341 126.248  82.423  0.00  0.00    +0.000 C 
ATOM      2  C   UNL     1     101.631 126.000  83.901  0.00  0.00    +0.000 C 
ENDROOT
BRANCH   1   7
ATOM      3  C   UNL     1     106.121 126.507  81.525  0.00  0.00    +0.000 C 
ATOM      4  C   UNL     1     105.211 126.611  80.299  0.00  0.00    +0.000 C 
ATOM      5  C   UNL     1     104.295 127.839  80.373  0.00  0.00    +0.000 C 
ATOM      6  C   UNL     1     103.252 127.733  81.491  0.00  0.00    +0.000 C 
ATOM      7  C   UNL     1     102.607 126.369  81.593  0.00  0.00    +0.000 C 
ATOM      8  C   UNL     1     103.124 125.301  80.952  0.00  0.00    +0.000 C 
ATOM      9  C   UNL     1     104.369 125.339  80.112  0.00  0.00    +0.000 C 
ENDBRANCH   1   7
BRANCH   1  10
ATOM     10  O   UNL     1     100.623 127.488  82.293  0.00  0.00    +0.000 OA
BRANCH  10  11
ATOM     11  C   UNL     1      99.309 127.456  82.615  0.00  0.00    +0.000 C 
ATOM     12  O   UNL     1      98.458 126.730  82.126  0.00  0.00    +0.000 OA
BRANCH  11  13
ATOM     13  C   UNL     1      99.015 128.474  83.657  0.00  0.00    +0.000 A 
ATOM     14  C   UNL     1      99.480 129.781  83.457  0.00  0.00    +0.000 A 
ATOM     15  C   UNL     1      99.223 130.772  84.406  0.00  0.00    +0.000 A 
ATOM     16  C   UNL     1      98.492 130.466  85.554  0.00  0.00    +0.000 A 
ATOM     17  C   UNL     1      98.021 129.168  85.757  0.00  0.00    +0.000 A 
ATOM     18  C   UNL     1      98.282 128.173  84.813  0.00  0.00    +0.000 A 
ENDBRANCH  11  13
ENDBRANCH  10  11
ENDBRANCH   1  10
TORSDOF 4
ENDMDL
