MODEL 1
REMARK VINA RESULT:      -4.3      0.000      0.000
REMARK  Name = *****
REMARK  3 active torsions:
REMARK  status: ('A' for Active; 'I' for Inactive)
REMARK    1  A    between atoms: C_4  and  N_7
REMARK    2  A    between atoms: N_7  and  C_8
REMARK    3  A    between atoms: C_8  and  C_9
REMARK                            x       y       z     vdW  Elec       q    Type
REMARK                         _______ _______ _______ _____ _____    ______ ____
ROOT
ATOM      1  N   UNL     1     102.665 125.504  82.968  0.00  0.00    +0.000 NA
ENDROOT
BRANCH   1   5
ATOM      2  C   UNL     1     105.085 123.072  80.424  0.00  0.00    +0.000 C 
ATOM      3  C   UNL     1     104.771 124.492  79.961  0.00  0.00    +0.000 C 
ATOM      4  C   UNL     1     103.611 125.097  80.747  0.00  0.00    +0.000 C 
ATOM      5  C   UNL     1     103.869 125.050  82.257  0.00  0.00    +0.000 C 
ATOM      6  C   UNL     1     104.172 123.619  82.713  0.00  0.00    +0.000 C 
ATOM      7  C   UNL     1     105.333 123.013  81.928  0.00  0.00    +0.000 C 
ENDBRANCH   1   5
BRANCH   1   8
ATOM      8  C   UNL     1     101.718 125.935  82.209  0.00  0.00    +0.000 C 
BRANCH   8   9
ATOM      9  C   UNL     1     100.804 127.014  82.637  0.00  0.00    +0.000 A 
ATOM     10  C   UNL     1      99.430 126.924  82.397  0.00  0.00    +0.000 A 
ATOM     11  C   UNL     1      98.586 127.955  82.812  0.00  0.00    +0.000 A 
ATOM     12  C   UNL     1      99.114 129.070  83.463  0.00  0.00    +0.000 A 
ATOM     13  C   UNL     1     100.486 129.159  83.702  0.00  0.00    +0.000 A 
ATOM     14  C   UNL     1     101.335 128.130  83.289  0.00  0.00    +0.000 A 
ENDBRANCH   8   9
ENDBRANCH   1   8
TORSDOF 3
ENDMDL
