REMARK  Name = *****
REMARK  5 active torsions:
REMARK  status: ('A' for Active; 'I' for Inactive)
REMARK    1  A    between atoms: C_1  and  C_2
REMARK    2  A    between atoms: C_7  and  C_8
REMARK    3  A    between atoms: C_8  and  C_9
REMARK    4  A    between atoms: C_9  and  C_11
REMARK    5  A    between atoms: C_16  and  C_17
REMARK                            x       y       z     vdW  Elec       q    Type
REMARK                         _______ _______ _______ _____ _____    ______ ____
ROOT
ATOM      1  C   UNL     1       2.505  -2.539  -0.539  0.00  0.00    +0.000 C 
ATOM      2  O   UNL     1       2.826  -2.551  -1.726  0.00  0.00    +0.000 OA
ENDROOT
BRANCH   1   3
ATOM      3  C   UNL     1       3.559  -2.615   0.509  0.00  0.00    +0.000 A 
ATOM      4  C   UNL     1       3.522  -1.707   1.577  0.00  0.00    +0.000 A 
ATOM      5  C   UNL     1       4.498  -1.752   2.573  0.00  0.00    +0.000 A 
ATOM      6  C   UNL     1       5.518  -2.696   2.503  0.00  0.00    +0.000 A 
ATOM      7  C   UNL     1       5.567  -3.596   1.437  0.00  0.00    +0.000 A 
ATOM      8  C   UNL     1       4.589  -3.574   0.430  0.00  0.00    +0.000 A 
ATOM      9  C   UNL     1       4.689  -4.554  -0.706  0.00  0.00    +0.000 C 
ENDBRANCH   1   3
BRANCH   1  10
ATOM     10  C   UNL     1       1.054  -2.485  -0.089  0.00  0.00    +0.000 C 
BRANCH  10  17
ATOM     11  C   UNL     1      -0.497  -1.493   2.311  0.00  0.00    +0.000 C 
ATOM     12  C   UNL     1      -0.261  -0.631   1.099  0.00  0.00    +0.000 A 
ATOM     13  C   UNL     1      -0.785   0.673   1.092  0.00  0.00    +0.000 A 
ATOM     14  C   UNL     1      -0.614   1.510  -0.009  0.00  0.00    +0.000 A 
ATOM     15  C   UNL     1       0.080   1.053  -1.122  0.00  0.00    +0.000 A 
ATOM     16  C   UNL     1       0.610  -0.236  -1.130  0.00  0.00    +0.000 A 
ATOM     17  C   UNL     1       0.468  -1.090  -0.021  0.00  0.00    +0.000 A 
ENDBRANCH  10  17
ENDBRANCH   1  10
TORSDOF 3
