MODEL 1
REMARK VINA RESULT:      -4.3      0.000      0.000
REMARK  Name = *****
REMARK  3 active torsions:
REMARK  status: ('A' for Active; 'I' for Inactive)
REMARK    1  A    between atoms: C_2  and  C_3
REMARK    2  A    between atoms: C_2  and  S_9
REMARK    3  A    between atoms: S_9  and  C_10
REMARK                            x       y       z     vdW  Elec       q    Type
REMARK                         _______ _______ _______ _____ _____    ______ ____
ROOT
ATOM      1  C   UNL     1     103.507 127.370  80.450  0.00  0.00    +0.000 C 
ATOM      2  C   UNL     1     103.490 126.738  81.634  0.00  0.00    +0.000 C 
ENDROOT
BRANCH   2   3
ATOM      3  C   UNL     1     103.931 125.350  81.754  0.00  0.00    +0.000 C 
ATOM      4  C   UNL     1     103.812 124.674  82.914  0.00  0.00    +0.000 C 
ATOM      5  C   UNL     1     104.267 123.257  83.109  0.00  0.00    +0.000 C 
ATOM      6  C   UNL     1     105.154 122.744  81.974  0.00  0.00    +0.000 C 
ATOM      7  C   UNL     1     104.614 123.176  80.617  0.00  0.00    +0.000 C 
ATOM      8  C   UNL     1     104.524 124.703  80.519  0.00  0.00    +0.000 C 
ENDBRANCH   2   3
BRANCH   2   9
ATOM      9  S   UNL     1     103.060 127.580  83.099  0.00  0.00    +0.000 S 
BRANCH   9  10
ATOM     10  C   UNL     1     101.280 127.680  82.973  0.00  0.00    +0.000 A 
ATOM     11  C   UNL     1     100.498 126.650  82.436  0.00  0.00    +0.000 A 
ATOM     12  C   UNL     1      99.106 126.764  82.390  0.00  0.00    +0.000 A 
ATOM     13  C   UNL     1      98.482 127.903  82.893  0.00  0.00    +0.000 A 
ATOM     14  C   UNL     1      99.247 128.928  83.444  0.00  0.00    +0.000 A 
ATOM     15  C   UNL     1     100.640 128.816  83.485  0.00  0.00    +0.000 A 
ENDBRANCH   9  10
ENDBRANCH   2   9
TORSDOF 3
ENDMDL
