MODEL 1
REMARK VINA RESULT:      -4.1      0.000      0.000
REMARK  Name = *****
REMARK  3 active torsions:
REMARK  status: ('A' for Active; 'I' for Inactive)
REMARK    1  A    between atoms: C_1  and  C_2
REMARK    2  A    between atoms: C_3  and  C_7
REMARK    3  A    between atoms: N_8  and  C_9
REMARK                            x       y       z     vdW  Elec       q    Type
REMARK                         _______ _______ _______ _____ _____    ______ ____
ROOT
ATOM      1  C   UNL     1     102.873 125.902  82.453  0.00  0.00    +0.000 C 
ATOM      2  N   UNL     1     101.616 125.958  82.139  0.00  0.00    +0.000 NA
ENDROOT
BRANCH   2   3
ATOM      3  C   UNL     1     100.900 127.038  82.670  0.00  0.00    +0.000 A 
ATOM      4  C   UNL     1     101.569 128.084  83.314  0.00  0.00    +0.000 A 
ATOM      5  C   UNL     1     100.854 129.167  83.828  0.00  0.00    +0.000 A 
ATOM      6  C   UNL     1      99.471 129.203  83.684  0.00  0.00    +0.000 A 
ATOM      7  C   UNL     1      98.792 128.181  83.031  0.00  0.00    +0.000 A 
ATOM      8  C   UNL     1      99.510 127.098  82.519  0.00  0.00    +0.000 A 
ATOM      9  F   UNL     1      98.784 130.242  84.175  0.00  0.00    +0.000 F 
ENDBRANCH   2   3
BRANCH   1  12
ATOM     10  C   UNL     1     104.159 123.485  84.109  0.00  0.00    +0.000 C 
ATOM     11  C   UNL     1     104.307 123.774  82.649  0.00  0.00    +0.000 A 
ATOM     12  C   UNL     1     103.729 124.840  81.972  0.00  0.00    +0.000 A 
ATOM     13  S   UNL     1     104.131 124.839  80.306  0.00  0.00    +0.000 S 
ATOM     14  C   UNL     1     105.073 123.428  80.463  0.00  0.00    +0.000 A 
ATOM     15  C   UNL     1     105.085 122.962  81.757  0.00  0.00    +0.000 A 
ENDBRANCH   1  12
TORSDOF 2
ENDMDL
