MODEL 1
REMARK VINA RESULT:      -4.5      0.000      0.000
REMARK  Name = *****
REMARK  6 active torsions:
REMARK  status: ('A' for Active; 'I' for Inactive)
REMARK    1  A    between atoms: C_1  and  C_2
REMARK    2  A    between atoms: C_4  and  C_18
REMARK    3  A    between atoms: C_5  and  C_9
REMARK    4  A    between atoms: C_6  and  C_8
REMARK    5  A    between atoms: C_9  and  N_10
REMARK    6  A    between atoms: N_10  and  C_11
REMARK                            x       y       z     vdW  Elec       q    Type
REMARK                         _______ _______ _______ _____ _____    ______ ____
ROOT
ATOM      1  C   UNL     1      84.453  72.153  87.026  0.00  0.00    +0.000 C 
ATOM      2  C   UNL     1      85.801  71.686  86.560  0.00  0.00    +0.000 A 
ATOM      3  C   UNL     1      86.181  71.821  85.220  0.00  0.00    +0.000 A 
ATOM      4  C   UNL     1      87.447  71.401  84.778  0.00  0.00    +0.000 A 
ATOM      5  C   UNL     1      88.351  70.888  85.723  0.00  0.00    +0.000 A 
ATOM      6  C   UNL     1      87.989  70.737  87.075  0.00  0.00    +0.000 A 
ATOM      7  C   UNL     1      86.709  71.146  87.479  0.00  0.00    +0.000 A 
ATOM      8  C   UNL     1      88.935  70.166  88.095  0.00  0.00    +0.000 C 
ATOM      9  C   UNL     1      87.786  71.561  83.322  0.00  0.00    +0.000 C 
ENDROOT
BRANCH   5  10
ATOM     10  C   UNL     1      89.680  70.415  85.315  0.00  0.00    +0.000 C 
BRANCH  10  11
ATOM     11  N   UNL     1      89.858  69.330  84.601  0.00  0.00    +0.000 N 
ATOM     12  O   UNL     1      90.465  69.325  83.480  0.00  0.00    +0.000 OA
BRANCH  11  13
ATOM     13  C   UNL     1      89.309  68.090  85.123  0.00  0.00    +0.000 A 
ATOM     14  C   UNL     1      90.021  67.406  86.113  0.00  0.00    +0.000 A 
ATOM     15  C   UNL     1      89.508  66.217  86.630  0.00  0.00    +0.000 A 
ATOM     16  C   UNL     1      88.285  65.725  86.169  0.00  0.00    +0.000 A 
ATOM     17  C   UNL     1      87.567  66.422  85.194  0.00  0.00    +0.000 A 
ATOM     18  C   UNL     1      88.074  67.611  84.669  0.00  0.00    +0.000 A 
ENDBRANCH  11  13
ENDBRANCH  10  11
ENDBRANCH   5  10
TORSDOF 3
ENDMDL
