MODEL 1
REMARK VINA RESULT:      -4.6      0.000      0.000
REMARK  Name = *****
REMARK  4 active torsions:
REMARK  status: ('A' for Active; 'I' for Inactive)
REMARK    1  A    between atoms: C_1  and  C_2
REMARK    2  A    between atoms: C_2  and  C_3
REMARK    3  A    between atoms: C_3  and  C_11
REMARK    4  A    between atoms: N_4  and  C_5
REMARK                            x       y       z     vdW  Elec       q    Type
REMARK                         _______ _______ _______ _____ _____    ______ ____
ROOT
ATOM      1  C   UNL     1     103.066 126.141  81.873  0.00  0.00    +0.000 C 
ATOM      2  N   UNL     1     102.158 126.028  82.798  0.00  0.00    +0.000 NA
ENDROOT
BRANCH   2   3
ATOM      3  C   UNL     1     101.140 126.979  82.918  0.00  0.00    +0.000 A 
ATOM      4  C   UNL     1      99.863 126.713  82.417  0.00  0.00    +0.000 A 
ATOM      5  C   UNL     1      98.838 127.652  82.556  0.00  0.00    +0.000 A 
ATOM      6  C   UNL     1      99.084 128.857  83.214  0.00  0.00    +0.000 A 
ATOM      7  C   UNL     1     100.349 129.119  83.739  0.00  0.00    +0.000 A 
ATOM      8  C   UNL     1     101.370 128.177  83.597  0.00  0.00    +0.000 A 
ENDBRANCH   2   3
BRANCH   1   9
ATOM      9  C   UNL     1     104.144 125.056  81.792  0.00  0.00    +0.000 C 
ATOM     10  C   UNL     1     104.202 124.448  80.387  0.00  0.00    +0.000 C 
ATOM     11  C   UNL     1     105.242 123.334  80.304  0.00  0.00    +0.000 C 
ATOM     12  C   UNL     1     105.006 122.264  81.367  0.00  0.00    +0.000 C 
ATOM     13  C   UNL     1     104.941 122.865  82.769  0.00  0.00    +0.000 C 
ATOM     14  C   UNL     1     103.902 123.980  82.857  0.00  0.00    +0.000 C 
ENDBRANCH   1   9
BRANCH   1  16
ATOM     15  C   UNL     1     104.235 128.243  81.176  0.00  0.00    +0.000 C 
ATOM     16  C   UNL     1     103.134 127.253  80.834  0.00  0.00    +0.000 C 
ENDBRANCH   1  16
TORSDOF 3
ENDMDL
