REMARK  Name = *****
REMARK  5 active torsions:
REMARK  status: ('A' for Active; 'I' for Inactive)
REMARK    1  A    between atoms: C_1  and  C_2
REMARK    2  A    between atoms: C_7  and  C_8
REMARK    3  A    between atoms: C_8  and  C_9
REMARK    4  A    between atoms: C_11  and  C_12
REMARK    5  A    between atoms: C_12  and  C_14
REMARK                            x       y       z     vdW  Elec       q    Type
REMARK                         _______ _______ _______ _____ _____    ______ ____
ROOT
ATOM      1  C   UNL     1      -0.548  -1.355  -2.164  0.00  0.00    +0.000 C 
ATOM      2  C   UNL     1      -0.332  -0.588  -0.888  0.00  0.00    +0.000 A 
ATOM      3  C   UNL     1      -0.786   0.739  -0.810  0.00  0.00    +0.000 A 
ATOM      4  C   UNL     1      -0.611   1.491   0.352  0.00  0.00    +0.000 A 
ATOM      5  C   UNL     1       0.022   0.927   1.454  0.00  0.00    +0.000 A 
ATOM      6  C   UNL     1       0.472  -0.391   1.396  0.00  0.00    +0.000 A 
ATOM      7  C   UNL     1       0.294  -1.168   0.236  0.00  0.00    +0.000 A 
ENDROOT
BRANCH   7   8
ATOM      8  C   UNL     1       0.814  -2.591   0.240  0.00  0.00    +0.000 C 
BRANCH   8   9
ATOM      9  C   UNL     1       2.287  -2.665  -0.040  0.00  0.00    +0.000 C 
ATOM     10  C   UNL     1       3.145  -3.344   0.666  0.00  0.00    +0.000 C 
ATOM     11  C   UNL     1       4.011  -4.016   1.367  0.00  0.00    +0.000 C 
BRANCH  11  12
ATOM     12  C   UNL     1       3.679  -5.187   2.161  0.00  0.00    +0.000 C 
ATOM     13  C   UNL     1       4.642  -5.842   2.832  0.00  0.00    +0.000 C 
ATOM     14  C   UNL     1       2.247  -5.649   2.218  0.00  0.00    +0.000 C 
ENDBRANCH  11  12
ENDBRANCH   8   9
ENDBRANCH   7   8
TORSDOF 3
