REMARK  Name = *****
REMARK  4 active torsions:
REMARK  status: ('A' for Active; 'I' for Inactive)
REMARK    1  A    between atoms: C_1  and  O_2
REMARK    2  A    between atoms: O_2  and  C_3
REMARK    3  A    between atoms: C_6  and  C_9
REMARK    4  A    between atoms: C_10  and  C_11
REMARK                            x       y       z     vdW  Elec       q    Type
REMARK                         _______ _______ _______ _____ _____    ______ ____
ROOT
ATOM      1  C   UNL     1       3.203   0.742  -0.721  0.00  0.00    +0.000 A 
ATOM      2  N   UNL     1       4.534   0.535  -0.776  0.00  0.00    +0.000 NA
ATOM      3  C   UNL     1       5.216   1.240  -1.711  0.00  0.00    +0.000 A 
ATOM      4  C   UNL     1       4.642   2.153  -2.595  0.00  0.00    +0.000 A 
ATOM      5  C   UNL     1       3.258   2.323  -2.512  0.00  0.00    +0.000 A 
ATOM      6  C   UNL     1       2.527   1.614  -1.559  0.00  0.00    +0.000 A 
ENDROOT
BRANCH   1   8
ATOM      7  C   UNL     1       3.194  -0.821   1.018  0.00  0.00    +0.000 C 
ATOM      8  O   UNL     1       2.433   0.063   0.202  0.00  0.00    +0.000 OA
ENDBRANCH   1   8
BRANCH   4   9
ATOM      9  C   UNL     1       5.477   2.831  -3.595  0.00  0.00    +0.000 C 
ATOM     10  C   UNL     1       5.247   4.073  -4.052  0.00  0.00    +0.000 C 
BRANCH  10  11
ATOM     11  C   UNL     1       6.099   4.748  -5.042  0.00  0.00    +0.000 A 
ATOM     12  C   UNL     1       6.645   4.073  -6.143  0.00  0.00    +0.000 A 
ATOM     13  C   UNL     1       7.424   4.757  -7.080  0.00  0.00    +0.000 A 
ATOM     14  C   UNL     1       7.656   6.123  -6.933  0.00  0.00    +0.000 A 
ATOM     15  C   UNL     1       7.104   6.808  -5.853  0.00  0.00    +0.000 A 
ATOM     16  C   UNL     1       6.325   6.125  -4.915  0.00  0.00    +0.000 A 
ENDBRANCH  10  11
ENDBRANCH   4   9
TORSDOF 3
