MODEL 1
REMARK VINA RESULT:      -4.9      0.000      0.000
REMARK  Name = *****
REMARK  4 active torsions:
REMARK  status: ('A' for Active; 'I' for Inactive)
REMARK    1  A    between atoms: C_1  and  C_2
REMARK    2  A    between atoms: C_3  and  C_18
REMARK    3  A    between atoms: C_5  and  N_8
REMARK    4  A    between atoms: C_9  and  C_10
REMARK                            x       y       z     vdW  Elec       q    Type
REMARK                         _______ _______ _______ _____ _____    ______ ____
ROOT
ATOM      1  N   UNL     1     102.580 125.637  81.828  0.00  0.00    +0.000 NA
ATOM      2  C   UNL     1     103.333 124.965  82.641  0.00  0.00    +0.000 C 
ENDROOT
BRANCH   1   7
ATOM      3  C   UNL     1      99.473 129.832  84.174  0.00  0.00    +0.000 C 
ATOM      4  C   UNL     1     100.266 128.713  83.557  0.00  0.00    +0.000 A 
ATOM      5  C   UNL     1      99.633 127.619  82.935  0.00  0.00    +0.000 A 
ATOM      6  C   UNL     1     100.420 126.602  82.367  0.00  0.00    +0.000 A 
ATOM      7  C   UNL     1     101.814 126.658  82.411  0.00  0.00    +0.000 A 
ATOM      8  C   UNL     1     102.434 127.755  83.006  0.00  0.00    +0.000 A 
ATOM      9  C   UNL     1     101.668 128.772  83.578  0.00  0.00    +0.000 A 
ATOM     10  C   UNL     1      98.134 127.513  82.864  0.00  0.00    +0.000 C 
ENDBRANCH   1   7
BRANCH   2  11
ATOM     11  C   UNL     1     104.191 123.863  82.167  0.00  0.00    +0.000 A 
ATOM     12  C   UNL     1     104.688 122.949  83.099  0.00  0.00    +0.000 A 
ATOM     13  C   UNL     1     105.499 121.907  82.658  0.00  0.00    +0.000 A 
ATOM     14  C   UNL     1     105.813 121.774  81.310  0.00  0.00    +0.000 A 
ATOM     15  C   UNL     1     105.321 122.682  80.378  0.00  0.00    +0.000 A 
ATOM     16  C   UNL     1     104.506 123.732  80.808  0.00  0.00    +0.000 A 
ATOM     17  F   UNL     1     106.594 120.768  80.897  0.00  0.00    +0.000 F 
ATOM     18  F   UNL     1     105.977 121.030  83.551  0.00  0.00    +0.000 F 
ENDBRANCH   2  11
TORSDOF 2
ENDMDL
