MODEL 1
REMARK VINA RESULT:      -4.7      0.000      0.000
REMARK  Name = *****
REMARK  4 active torsions:
REMARK  status: ('A' for Active; 'I' for Inactive)
REMARK    1  A    between atoms: C_1  and  C_2
REMARK    2  A    between atoms: C_4  and  C_8
REMARK    3  A    between atoms: C_8  and  O_10
REMARK    4  A    between atoms: O_10  and  C_11
REMARK                            x       y       z     vdW  Elec       q    Type
REMARK                         _______ _______ _______ _____ _____    ______ ____
ROOT
ATOM      1  C   UNL     1     102.554 126.811  83.499  0.00  0.00    +0.000 C 
ATOM      2  O   UNL     1     103.482 127.351  84.079  0.00  0.00    +0.000 OA
ENDROOT
BRANCH   1   6
ATOM      3  C   UNL     1      99.410 130.749  83.893  0.00  0.00    +0.000 C 
ATOM      4  C   UNL     1      99.685 129.329  83.496  0.00  0.00    +0.000 A 
ATOM      5  C   UNL     1     100.956 128.768  83.697  0.00  0.00    +0.000 A 
ATOM      6  C   UNL     1     101.225 127.451  83.298  0.00  0.00    +0.000 A 
ATOM      7  C   UNL     1     100.215 126.697  82.686  0.00  0.00    +0.000 A 
ATOM      8  C   UNL     1      98.955 127.255  82.470  0.00  0.00    +0.000 A 
ATOM      9  C   UNL     1      98.695 128.566  82.867  0.00  0.00    +0.000 A 
ENDBRANCH   1   6
BRANCH   1  10
ATOM     10  O   UNL     1     102.568 125.562  82.972  0.00  0.00    +0.000 OA
BRANCH  10  11
ATOM     11  C   UNL     1     103.774 125.183  82.275  0.00  0.00    +0.000 C 
ATOM     12  C   UNL     1     104.190 123.778  82.724  0.00  0.00    +0.000 C 
ATOM     13  C   UNL     1     105.351 123.233  81.898  0.00  0.00    +0.000 C 
ATOM     14  C   UNL     1     105.036 123.257  80.406  0.00  0.00    +0.000 C 
ATOM     15  C   UNL     1     104.631 124.652  79.947  0.00  0.00    +0.000 C 
ATOM     16  C   UNL     1     103.478 125.208  80.772  0.00  0.00    +0.000 C 
ATOM     17  F   UNL     1     103.271 126.500  80.383  0.00  0.00    +0.000 F 
ENDBRANCH  10  11
ENDBRANCH   1  10
TORSDOF 3
ENDMDL
