MODEL 1
REMARK VINA RESULT:      -4.7      0.000      0.000
REMARK  Name = *****
REMARK  4 active torsions:
REMARK  status: ('A' for Active; 'I' for Inactive)
REMARK    1  A    between atoms: C_1  and  C_2
REMARK    2  A    between atoms: C_5  and  S_8
REMARK    3  A    between atoms: S_8  and  N_10
REMARK    4  A    between atoms: N_10  and  C_11
REMARK                            x       y       z     vdW  Elec       q    Type
REMARK                         _______ _______ _______ _____ _____    ______ ____
ROOT
ATOM      1  S   UNL     1      88.851  64.125  86.434  0.00  0.00    +0.000 S 
ATOM      2  O   UNL     1      90.108  63.725  85.722  0.00  0.00    +0.000 OA
ENDROOT
BRANCH   1   7
ATOM      3  C   UNL     1      89.100  70.198  87.118  0.00  0.00    +0.000 C 
ATOM      4  C   UNL     1      89.025  68.712  86.925  0.00  0.00    +0.000 A 
ATOM      5  C   UNL     1      90.076  68.020  86.311  0.00  0.00    +0.000 A 
ATOM      6  C   UNL     1      90.019  66.631  86.164  0.00  0.00    +0.000 A 
ATOM      7  C   UNL     1      88.913  65.918  86.640  0.00  0.00    +0.000 A 
ATOM      8  C   UNL     1      87.872  66.604  87.272  0.00  0.00    +0.000 A 
ATOM      9  C   UNL     1      87.930  67.993  87.416  0.00  0.00    +0.000 A 
ENDBRANCH   1   7
BRANCH   1  10
ATOM     10  N   UNL     1      88.990  63.829  88.069  0.00  0.00    +0.000 N 
ATOM     11  H   UNL     1      89.864  63.995  88.491  0.00  0.00    +0.000 HD
BRANCH  10  12
ATOM     12  C   UNL     1      87.945  63.359  88.889  0.00  0.00    +0.000 A 
ATOM     13  C   UNL     1      87.632  63.897  90.144  0.00  0.00    +0.000 A 
ATOM     14  C   UNL     1      86.557  63.411  90.894  0.00  0.00    +0.000 A 
ATOM     15  C   UNL     1      85.760  62.386  90.392  0.00  0.00    +0.000 A 
ATOM     16  C   UNL     1      86.033  61.855  89.136  0.00  0.00    +0.000 A 
ATOM     17  C   UNL     1      87.109  62.345  88.390  0.00  0.00    +0.000 A 
ENDBRANCH  10  12
ENDBRANCH   1  10
TORSDOF 3
ENDMDL
