MODEL 1
REMARK VINA RESULT:      -5.1      0.000      0.000
REMARK  Name = *****
REMARK  3 active torsions:
REMARK  status: ('A' for Active; 'I' for Inactive)
REMARK    1  A    between atoms: C_1  and  C_2
REMARK    2  A    between atoms: C_4  and  C_9
REMARK    3  A    between atoms: C_5  and  C_8
REMARK                            x       y       z     vdW  Elec       q    Type
REMARK                         _______ _______ _______ _____ _____    ______ ____
ROOT
ATOM      1  C   UNL     1     102.004 126.810  82.891  0.00  0.00    +0.000 A 
ATOM      2  N   UNL     1     102.490 125.816  83.614  0.00  0.00    +0.000 NA
ATOM      3  C   UNL     1     103.224 125.081  82.719  0.00  0.00    +0.000 A 
ATOM      4  C   UNL     1     103.975 123.909  82.883  0.00  0.00    +0.000 A 
ATOM      5  C   UNL     1     104.633 123.383  81.760  0.00  0.00    +0.000 A 
ATOM      6  C   UNL     1     104.546 124.011  80.510  0.00  0.00    +0.000 A 
ATOM      7  C   UNL     1     103.799 125.181  80.332  0.00  0.00    +0.000 A 
ATOM      8  C   UNL     1     103.161 125.666  81.467  0.00  0.00    +0.000 A 
ATOM      9  O   UNL     1     102.377 126.776  81.567  0.00  0.00    +0.000 OA
ENDROOT
BRANCH   1  13
ATOM     10  C   UNL     1     101.593 131.359  84.944  0.00  0.00    +0.000 C 
ATOM     11  C   UNL     1     100.951 130.160  84.313  0.00  0.00    +0.000 A 
ATOM     12  C   UNL     1     101.721 129.059  83.916  0.00  0.00    +0.000 A 
ATOM     13  C   UNL     1     101.144 127.932  83.291  0.00  0.00    +0.000 A 
ATOM     14  C   UNL     1      99.749 127.931  83.063  0.00  0.00    +0.000 A 
ATOM     15  C   UNL     1      98.985 129.047  83.448  0.00  0.00    +0.000 A 
ATOM     16  C   UNL     1      99.578 130.149  84.064  0.00  0.00    +0.000 A 
ATOM     17  C   UNL     1      99.040 126.775  82.406  0.00  0.00    +0.000 C 
ENDBRANCH   1  13
TORSDOF 1
ENDMDL
