REMARK  Name = *****
REMARK  4 active torsions:
REMARK  status: ('A' for Active; 'I' for Inactive)
REMARK    1  A    between atoms: C_4  and  C_7
REMARK    2  A    between atoms: C_7  and  O_9
REMARK    3  A    between atoms: O_9  and  C_10
REMARK    4  A    between atoms: C_13  and  S_16
REMARK                            x       y       z     vdW  Elec       q    Type
REMARK                         _______ _______ _______ _____ _____    ______ ____
ROOT
ATOM      1  O   UNL     1      -3.123  -0.998   1.035  0.00  0.00    +0.000 OA
ENDROOT
BRANCH   1   2
ATOM      2  C   UNL     1      -4.456  -0.998   1.463  0.00  0.00    +0.000 A 
ATOM      3  C   UNL     1      -4.888  -0.154   2.485  0.00  0.00    +0.000 A 
ATOM      4  C   UNL     1      -6.213  -0.230   2.921  0.00  0.00    +0.000 A 
ATOM      5  C   UNL     1      -7.091  -1.160   2.352  0.00  0.00    +0.000 A 
ATOM      6  C   UNL     1      -6.636  -2.011   1.338  0.00  0.00    +0.000 A 
ATOM      7  C   UNL     1      -5.313  -1.938   0.897  0.00  0.00    +0.000 A 
BRANCH   5   8
ATOM      8  S   UNL     1      -8.784  -1.264   2.892  0.00  0.00    +0.000 S 
ATOM      9  H   UNL     1      -9.002  -0.351   3.876  0.00  0.00    +0.000 HD
ENDBRANCH   5   8
ENDBRANCH   1   2
BRANCH   1  10
ATOM     10  C   UNL     1      -2.667   0.185   0.482  0.00  0.00    +0.000 C 
ATOM     11  O   UNL     1      -3.303   1.215   0.313  0.00  0.00    +0.000 OA
BRANCH  10  15
ATOM     12  C   UNL     1       1.456  -0.119  -0.670  0.00  0.00    +0.000 A 
ATOM     13  C   UNL     1       0.832  -1.218  -0.081  0.00  0.00    +0.000 A 
ATOM     14  C   UNL     1      -0.510  -1.142   0.302  0.00  0.00    +0.000 A 
ATOM     15  C   UNL     1      -1.235   0.040   0.095  0.00  0.00    +0.000 A 
ATOM     16  C   UNL     1      -0.599   1.140  -0.497  0.00  0.00    +0.000 A 
ATOM     17  C   UNL     1       0.742   1.060  -0.878  0.00  0.00    +0.000 A 
ENDBRANCH  10  15
ENDBRANCH   1  10
TORSDOF 4
