MODEL 1
REMARK VINA RESULT:      -5.0      0.000      0.000
REMARK  Name = *****
REMARK  2 active torsions:
REMARK  status: ('A' for Active; 'I' for Inactive)
REMARK    1  A    between atoms: C_4  and  C_7
REMARK    2  A    between atoms: N_8  and  C_9
REMARK                            x       y       z     vdW  Elec       q    Type
REMARK                         _______ _______ _______ _____ _____    ______ ____
ROOT
ATOM      1  C   UNL     1     103.776 125.248  81.721  0.00  0.00    +0.000 A 
ATOM      2  C   UNL     1     104.061 124.069  82.426  0.00  0.00    +0.000 A 
ATOM      3  C   UNL     1     104.854 123.071  81.866  0.00  0.00    +0.000 A 
ATOM      4  C   UNL     1     105.368 123.226  80.588  0.00  0.00    +0.000 A 
ATOM      5  C   UNL     1     105.089 124.378  79.867  0.00  0.00    +0.000 A 
ATOM      6  C   UNL     1     104.298 125.377  80.426  0.00  0.00    +0.000 A 
ATOM      7  F   UNL     1     104.044 126.482  79.708  0.00  0.00    +0.000 F 
ATOM      8  F   UNL     1     105.585 124.529  78.631  0.00  0.00    +0.000 F 
ATOM      9  F   UNL     1     106.133 122.266  80.051  0.00  0.00    +0.000 F 
ATOM     10  F   UNL     1     105.123 121.960  82.566  0.00  0.00    +0.000 F 
ATOM     11  F   UNL     1     103.575 123.895  83.665  0.00  0.00    +0.000 F 
ENDROOT
BRANCH   1  13
ATOM     12  C   UNL     1     101.659 126.097  82.139  0.00  0.00    +0.000 C 
ATOM     13  N   UNL     1     102.941 126.260  82.237  0.00  0.00    +0.000 NA
BRANCH  12  17
ATOM     14  C   UNL     1      98.939 129.029  83.617  0.00  0.00    +0.000 A 
ATOM     15  C   UNL     1      98.448 127.923  82.924  0.00  0.00    +0.000 A 
ATOM     16  C   UNL     1      99.330 126.956  82.438  0.00  0.00    +0.000 A 
ATOM     17  C   UNL     1     100.704 127.103  82.646  0.00  0.00    +0.000 A 
ATOM     18  C   UNL     1     101.198 128.212  83.339  0.00  0.00    +0.000 A 
ATOM     19  C   UNL     1     100.311 129.175  83.825  0.00  0.00    +0.000 A 
ENDBRANCH  12  17
ENDBRANCH   1  13
TORSDOF 2
ENDMDL
