MODEL 1
REMARK VINA RESULT:      -4.4      0.000      0.000
REMARK  Name = *****
REMARK  3 active torsions:
REMARK  status: ('A' for Active; 'I' for Inactive)
REMARK    1  A    between atoms: C_4  and  S_7
REMARK    2  A    between atoms: S_7  and  S_10
REMARK    3  A    between atoms: S_10  and  C_11
REMARK                            x       y       z     vdW  Elec       q    Type
REMARK                         _______ _______ _______ _____ _____    ______ ____
ROOT
ATOM      1  S   UNL     1      87.931  70.885  85.203  0.00  0.00    +0.000 S 
ATOM      2  O   UNL     1      87.584  69.657  84.513  0.00  0.00    +0.000 OA
ATOM      3  O   UNL     1      88.495  72.015  84.491  0.00  0.00    +0.000 OA
ENDROOT
BRANCH   1   7
ATOM      4  C   UNL     1      84.225  72.392  87.389  0.00  0.00    +0.000 A 
ATOM      5  C   UNL     1      84.294  72.479  85.997  0.00  0.00    +0.000 A 
ATOM      6  C   UNL     1      85.423  72.016  85.323  0.00  0.00    +0.000 A 
ATOM      7  C   UNL     1      86.478  71.457  86.052  0.00  0.00    +0.000 A 
ATOM      8  C   UNL     1      86.421  71.381  87.448  0.00  0.00    +0.000 A 
ATOM      9  C   UNL     1      85.287  71.847  88.114  0.00  0.00    +0.000 A 
ENDBRANCH   1   7
BRANCH   1  10
ATOM     10  S   UNL     1      89.221  70.397  86.778  0.00  0.00    +0.000 S 
BRANCH  10  11
ATOM     11  C   UNL     1      89.048  68.627  86.832  0.00  0.00    +0.000 A 
ATOM     12  C   UNL     1      90.034  67.814  86.258  0.00  0.00    +0.000 A 
ATOM     13  C   UNL     1      89.914  66.424  86.308  0.00  0.00    +0.000 A 
ATOM     14  C   UNL     1      88.815  65.852  86.937  0.00  0.00    +0.000 A 
ATOM     15  C   UNL     1      87.832  66.644  87.518  0.00  0.00    +0.000 A 
ATOM     16  C   UNL     1      87.950  68.034  87.469  0.00  0.00    +0.000 A 
ATOM     17  F   UNL     1      88.702  64.518  86.985  0.00  0.00    +0.000 F 
ENDBRANCH  10  11
ENDBRANCH   1  10
TORSDOF 3
ENDMDL
