REMARK  Name = *****
REMARK  3 active torsions:
REMARK  status: ('A' for Active; 'I' for Inactive)
REMARK    1  A    between atoms: C_1  and  C_2
REMARK    2  A    between atoms: C_2  and  C_10
REMARK    3  A    between atoms: N_3  and  C_4
REMARK                            x       y       z     vdW  Elec       q    Type
REMARK                         _______ _______ _______ _____ _____    ______ ____
ROOT
ATOM      1  C   UNL     1       3.266   1.351  -1.959  0.00  0.00    +0.000 C 
ATOM      2  C   UNL     1       3.275   0.517  -0.692  0.00  0.00    +0.000 C 
ATOM      3  N   UNL     1       2.910  -0.720  -0.627  0.00  0.00    +0.000 NA
ENDROOT
BRANCH   3   4
ATOM      4  C   UNL     1       2.454  -1.473  -1.790  0.00  0.00    +0.000 C 
ATOM      5  C   UNL     1       0.940  -1.296  -1.952  0.00  0.00    +0.000 C 
ATOM      6  C   UNL     1       0.387  -2.186  -3.063  0.00  0.00    +0.000 C 
ATOM      7  C   UNL     1       0.741  -3.653  -2.836  0.00  0.00    +0.000 C 
ATOM      8  C   UNL     1       2.243  -3.847  -2.650  0.00  0.00    +0.000 C 
ATOM      9  C   UNL     1       2.793  -2.951  -1.544  0.00  0.00    +0.000 C 
ENDBRANCH   3   4
BRANCH   2  10
ATOM     10  C   UNL     1       3.754   1.119   0.553  0.00  0.00    +0.000 A 
ATOM     11  C   UNL     1       3.768   0.539   1.811  0.00  0.00    +0.000 A 
ATOM     12  C   UNL     1       4.309   1.394   2.813  0.00  0.00    +0.000 A 
ATOM     13  C   UNL     1       4.701   2.606   2.293  0.00  0.00    +0.000 A 
ATOM     14  S   UNL     1       4.419   2.700   0.611  0.00  0.00    +0.000 S 
ENDBRANCH   2  10
TORSDOF 2
