MODEL 1
REMARK VINA RESULT:      -4.4      0.000      0.000
REMARK  Name = *****
REMARK  3 active torsions:
REMARK  status: ('A' for Active; 'I' for Inactive)
REMARK    1  A    between atoms: C_4  and  O_7
REMARK    2  A    between atoms: O_7  and  C_8
REMARK    3  A    between atoms: C_8  and  C_10
REMARK                            x       y       z     vdW  Elec       q    Type
REMARK                         _______ _______ _______ _____ _____    ______ ____
ROOT
ATOM      1  C   UNL     1     102.665 126.892  82.985  0.00  0.00    +0.000 C 
ATOM      2  O   UNL     1     103.638 127.556  83.305  0.00  0.00    +0.000 OA
ENDROOT
BRANCH   1   3
ATOM      3  C   UNL     1     101.276 127.422  82.991  0.00  0.00    +0.000 A 
ATOM      4  C   UNL     1     100.956 128.684  83.510  0.00  0.00    +0.000 A 
ATOM      5  C   UNL     1      99.633 129.126  83.486  0.00  0.00    +0.000 A 
ATOM      6  C   UNL     1      98.624 128.325  82.951  0.00  0.00    +0.000 A 
ATOM      7  C   UNL     1      98.937 127.069  82.433  0.00  0.00    +0.000 A 
ATOM      8  C   UNL     1     100.259 126.618  82.454  0.00  0.00    +0.000 A 
ATOM      9 CL   UNL     1      99.241 130.676  84.124  0.00  0.00    +0.000 Cl
ENDBRANCH   1   3
BRANCH   1  10
ATOM     10  O   UNL     1     102.679 125.599  82.580  0.00  0.00    +0.000 OA
BRANCH  10  14
ATOM     11  C   UNL     1     105.259 123.063  80.363  0.00  0.00    +0.000 C 
ATOM     12  C   UNL     1     104.967 124.447  79.793  0.00  0.00    +0.000 C 
ATOM     13  C   UNL     1     103.752 125.085  80.458  0.00  0.00    +0.000 C 
ATOM     14  C   UNL     1     103.903 125.134  81.982  0.00  0.00    +0.000 C 
ATOM     15  C   UNL     1     104.184 123.738  82.543  0.00  0.00    +0.000 C 
ATOM     16  C   UNL     1     105.399 123.097  81.882  0.00  0.00    +0.000 C 
ENDBRANCH  10  14
ENDBRANCH   1  10
TORSDOF 3
ENDMDL
