MODEL 1
REMARK VINA RESULT:      -4.3      0.000      0.000
REMARK  Name = *****
REMARK  5 active torsions:
REMARK  status: ('A' for Active; 'I' for Inactive)
REMARK    1  A    between atoms: C_1  and  C_2
REMARK    2  A    between atoms: C_7  and  C_8
REMARK    3  A    between atoms: C_8  and  O_10
REMARK    4  A    between atoms: O_10  and  C_11
REMARK    5  A    between atoms: C_11  and  C_12
REMARK                            x       y       z     vdW  Elec       q    Type
REMARK                         _______ _______ _______ _____ _____    ______ ____
ROOT
ATOM      1  C   UNL     1     104.506 124.631  80.060  0.00  0.00    +0.000 C 
ATOM      2  O   UNL     1     105.504 124.916  79.413  0.00  0.00    +0.000 OA
ENDROOT
BRANCH   1   9
ATOM      3  C   UNL     1     105.526 124.768  82.847  0.00  0.00    +0.000 C 
ATOM      4  C   UNL     1     104.381 123.822  82.465  0.00  0.00    +0.000 C 
ATOM      5  C   UNL     1     104.447 122.599  83.352  0.00  0.00    +0.000 C 
ATOM      6  C   UNL     1     104.808 121.384  82.912  0.00  0.00    +0.000 C 
ATOM      7  C   UNL     1     105.211 121.100  81.495  0.00  0.00    +0.000 C 
ATOM      8  C   UNL     1     105.433 122.363  80.661  0.00  0.00    +0.000 C 
ATOM      9  C   UNL     1     104.369 123.425  80.970  0.00  0.00    +0.000 C 
ENDBRANCH   1   9
BRANCH   1  10
ATOM     10  O   UNL     1     103.350 125.348  80.063  0.00  0.00    +0.000 OA
BRANCH  10  11
ATOM     11  C   UNL     1     103.539 126.747  80.295  0.00  0.00    +0.000 C 
BRANCH  11  12
ATOM     12  C   UNL     1     102.828 127.103  81.574  0.00  0.00    +0.000 A 
ATOM     13  C   UNL     1     103.251 128.199  82.340  0.00  0.00    +0.000 A 
ATOM     14  C   UNL     1     102.604 128.522  83.533  0.00  0.00    +0.000 A 
ATOM     15  C   UNL     1     101.532 127.750  83.976  0.00  0.00    +0.000 A 
ATOM     16  C   UNL     1     101.110 126.651  83.230  0.00  0.00    +0.000 A 
ATOM     17  C   UNL     1     101.756 126.326  82.036  0.00  0.00    +0.000 A 
ENDBRANCH  11  12
ENDBRANCH  10  11
ENDBRANCH   1  10
TORSDOF 4
ENDMDL
