REMARK  Name = *****
REMARK  1 active torsions:
REMARK  status: ('A' for Active; 'I' for Inactive)
REMARK    1  A    between atoms: C_9  and  C_10
REMARK                            x       y       z     vdW  Elec       q    Type
REMARK                         _______ _______ _______ _____ _____    ______ ____
ROOT
ATOM      1  C   UNL     1       2.003   1.195  -0.073  0.00  0.00    +0.000 A 
ATOM      2  C   UNL     1       2.413  -0.135  -0.197  0.00  0.00    +0.000 A 
ATOM      3  C   UNL     1       1.468  -1.163  -0.226  0.00  0.00    +0.000 A 
ATOM      4  C   UNL     1       0.114  -0.849  -0.129  0.00  0.00    +0.000 A 
ATOM      5  C   UNL     1      -0.296   0.479  -0.003  0.00  0.00    +0.000 A 
ATOM      6  C   UNL     1       0.645   1.506   0.024  0.00  0.00    +0.000 A 
ATOM      7  S   UNL     1      -2.045   0.763   0.124  0.00  0.00    +0.000 S 
ATOM      8  C   UNL     1      -2.481  -0.939   0.059  0.00  0.00    +0.000 C 
ATOM      9  C   UNL     1      -3.774  -1.279   0.212  0.00  0.00    +0.000 C 
ATOM     10  S   UNL     1      -1.168  -2.079  -0.149  0.00  0.00    +0.000 S 
ENDROOT
BRANCH   9  11
ATOM     11  C   UNL     1      -4.283  -2.610   0.194  0.00  0.00    +0.000 A 
ATOM     12  C   UNL     1      -4.155  -3.607  -0.759  0.00  0.00    +0.000 A 
ATOM     13  C   UNL     1      -4.830  -4.810  -0.402  0.00  0.00    +0.000 A 
ATOM     14  C   UNL     1      -5.474  -4.697   0.808  0.00  0.00    +0.000 A 
ATOM     15  S   UNL     1      -5.278  -3.146   1.495  0.00  0.00    +0.000 S 
ENDBRANCH   9  11
TORSDOF 1
