MODEL 1
REMARK VINA RESULT:      -4.9      0.000      0.000
REMARK  Name = *****
REMARK  4 active torsions:
REMARK  status: ('A' for Active; 'I' for Inactive)
REMARK    1  A    between atoms: C_1  and  O_2
REMARK    2  A    between atoms: O_2  and  C_3
REMARK    3  A    between atoms: C_7  and  C_9
REMARK    4  A    between atoms: C_10  and  C_11
REMARK                            x       y       z     vdW  Elec       q    Type
REMARK                         _______ _______ _______ _____ _____    ______ ____
ROOT
ATOM      1  C   UNL     1      98.880 127.533  82.841  0.00  0.00    +0.000 A 
ATOM      2  C   UNL     1      99.296 128.692  83.492  0.00  0.00    +0.000 A 
ATOM      3  C   UNL     1     100.658 128.953  83.653  0.00  0.00    +0.000 A 
ATOM      4  C   UNL     1     101.609 128.052  83.167  0.00  0.00    +0.000 A 
ATOM      5  C   UNL     1     101.209 126.873  82.527  0.00  0.00    +0.000 A 
ATOM      6  C   UNL     1      99.839 126.635  82.358  0.00  0.00    +0.000 A 
ENDROOT
BRANCH   1   8
ATOM      7  C   UNL     1      96.815 126.765  83.738  0.00  0.00    +0.000 C 
ATOM      8  O   UNL     1      97.583 127.162  82.609  0.00  0.00    +0.000 OA
ENDBRANCH   1   8
BRANCH   5   9
ATOM      9  C   UNL     1     102.171 125.909  81.972  0.00  0.00    +0.000 C 
ATOM     10  C   UNL     1     103.200 126.242  81.174  0.00  0.00    +0.000 C 
BRANCH  10  11
ATOM     11  C   UNL     1     104.174 125.280  80.634  0.00  0.00    +0.000 A 
ATOM     12  C   UNL     1     105.138 125.638  79.683  0.00  0.00    +0.000 A 
ATOM     13  C   UNL     1     106.066 124.699  79.222  0.00  0.00    +0.000 A 
ATOM     14  C   UNL     1     106.048 123.397  79.715  0.00  0.00    +0.000 A 
ATOM     15  C   UNL     1     105.106 123.033  80.675  0.00  0.00    +0.000 A 
ATOM     16  C   UNL     1     104.177 123.971  81.135  0.00  0.00    +0.000 A 
ENDBRANCH  10  11
ENDBRANCH   5   9
TORSDOF 3
ENDMDL
