REMARK  Name = *****
REMARK  4 active torsions:
REMARK  status: ('A' for Active; 'I' for Inactive)
REMARK    1  A    between atoms: C_1  and  C_2
REMARK    2  A    between atoms: C_5  and  C_8
REMARK    3  A    between atoms: C_8  and  O_10
REMARK    4  A    between atoms: O_10  and  C_11
REMARK                            x       y       z     vdW  Elec       q    Type
REMARK                         _______ _______ _______ _____ _____    ______ ____
ROOT
ATOM      1  C   UNL     1      -3.376  -0.219  -0.012  0.00  0.00    +0.000 C 
ATOM      2  O   UNL     1      -3.952  -1.297   0.025  0.00  0.00    +0.000 OA
ENDROOT
BRANCH   1   7
ATOM      3  C   UNL     1       2.421   0.080   0.072  0.00  0.00    +0.000 C 
ATOM      4  C   UNL     1       0.923   0.017   0.020  0.00  0.00    +0.000 A 
ATOM      5  C   UNL     1       0.166   1.191  -0.071  0.00  0.00    +0.000 A 
ATOM      6  C   UNL     1      -1.231   1.137  -0.087  0.00  0.00    +0.000 A 
ATOM      7  C   UNL     1      -1.891  -0.096   0.001  0.00  0.00    +0.000 A 
ATOM      8  C   UNL     1      -1.133  -1.270   0.106  0.00  0.00    +0.000 A 
ATOM      9  C   UNL     1       0.263  -1.213   0.122  0.00  0.00    +0.000 A 
ENDBRANCH   1   7
BRANCH   1  10
ATOM     10  O   UNL     1      -3.943   1.023  -0.057  0.00  0.00    +0.000 OA
BRANCH  10  11
ATOM     11  C   UNL     1      -5.351   1.040  -0.102  0.00  0.00    +0.000 C 
ATOM     12  C   UNL     1      -6.041   1.605   0.900  0.00  0.00    +0.000 C 
ATOM     13  C   UNL     1      -7.537   1.717   0.904  0.00  0.00    +0.000 C 
ATOM     14  C   UNL     1      -8.210   0.914  -0.212  0.00  0.00    +0.000 C 
ATOM     15  C   UNL     1      -7.437   1.029  -1.524  0.00  0.00    +0.000 C 
ATOM     16  C   UNL     1      -6.000   0.525  -1.360  0.00  0.00    +0.000 C 
ENDBRANCH  10  11
ENDBRANCH   1  10
TORSDOF 3
