MODEL 1
REMARK VINA RESULT:      -3.5      0.000      0.000
REMARK  Name = *****
REMARK  6 active torsions:
REMARK  status: ('A' for Active; 'I' for Inactive)
REMARK    1  A    between atoms: C_1  and  N_2
REMARK    2  A    between atoms: N_2  and  C_3
REMARK    3  A    between atoms: N_2  and  C_12
REMARK    4  A    between atoms: C_3  and  N_4
REMARK    5  A    between atoms: N_4  and  C_5
REMARK    6  A    between atoms: C_5  and  C_6
REMARK                            x       y       z     vdW  Elec       q    Type
REMARK                         _______ _______ _______ _____ _____    ______ ____
ROOT
ATOM      1  C   UNL     1      86.656  64.082  86.080  0.00  0.00    +0.000 C 
ENDROOT
BRANCH   1   3
ATOM      2  C   UNL     1      84.625  62.972  85.265  0.00  0.00    +0.000 C 
ATOM      3  N   UNL     1      85.594  63.225  86.328  0.00  0.00    +0.000 N 
BRANCH   3   4
ATOM      4  C   UNL     1      85.273  62.716  87.613  0.00  0.00    +0.000 A 
ATOM      5  C   UNL     1      84.051  63.023  88.236  0.00  0.00    +0.000 A 
ATOM      6  C   UNL     1      83.723  62.534  89.506  0.00  0.00    +0.000 A 
ATOM      7  C   UNL     1      84.616  61.722  90.194  0.00  0.00    +0.000 A 
ATOM      8  C   UNL     1      85.834  61.398  89.607  0.00  0.00    +0.000 A 
ATOM      9  C   UNL     1      86.156  61.891  88.336  0.00  0.00    +0.000 A 
ENDBRANCH   3   4
ENDBRANCH   1   3
BRANCH   1  10
ATOM     10  N   UNL     1      86.797  65.326  86.379  0.00  0.00    +0.000 NA
BRANCH  10  11
ATOM     11  C   UNL     1      87.940  65.610  87.259  0.00  0.00    +0.000 C 
BRANCH  11  12
ATOM     12  C   UNL     1      87.735  65.165  88.689  0.00  0.00    +0.000 A 
ATOM     13  C   UNL     1      86.609  65.582  89.414  0.00  0.00    +0.000 A 
ATOM     14  C   UNL     1      86.407  65.149  90.725  0.00  0.00    +0.000 A 
ATOM     15  C   UNL     1      87.323  64.286  91.322  0.00  0.00    +0.000 A 
ATOM     16  C   UNL     1      88.439  63.853  90.609  0.00  0.00    +0.000 A 
ATOM     17  C   UNL     1      88.642  64.286  89.296  0.00  0.00    +0.000 A 
ENDBRANCH  11  12
ENDBRANCH  10  11
ENDBRANCH   1  10
TORSDOF 5
ENDMDL
