MODEL 1
REMARK VINA RESULT:      -4.7      0.000      0.000
REMARK  Name = *****
REMARK  5 active torsions:
REMARK  status: ('A' for Active; 'I' for Inactive)
REMARK    1  A    between atoms: C_1  and  C_2
REMARK    2  A    between atoms: C_4  and  C_17
REMARK    3  A    between atoms: C_6  and  C_8
REMARK    4  A    between atoms: C_8  and  S_10
REMARK    5  A    between atoms: S_10  and  C_11
REMARK                            x       y       z     vdW  Elec       q    Type
REMARK                         _______ _______ _______ _____ _____    ______ ____
ROOT
ATOM      1  C   UNL     1      89.082  69.416  86.392  0.00  0.00    +0.000 C 
ATOM      2  O   UNL     1      90.011  68.735  86.810  0.00  0.00    +0.000 OA
ENDROOT
BRANCH   1   8
ATOM      3  C   UNL     1      88.633  71.526  90.888  0.00  0.00    +0.000 C 
ATOM      4  C   UNL     1      88.040  71.240  89.539  0.00  0.00    +0.000 A 
ATOM      5  C   UNL     1      86.778  71.731  89.188  0.00  0.00    +0.000 A 
ATOM      6  C   UNL     1      86.230  71.463  87.928  0.00  0.00    +0.000 A 
ATOM      7  C   UNL     1      86.970  70.715  87.001  0.00  0.00    +0.000 A 
ATOM      8  C   UNL     1      88.237  70.212  87.333  0.00  0.00    +0.000 A 
ATOM      9  C   UNL     1      88.763  70.486  88.605  0.00  0.00    +0.000 A 
ATOM     10  C   UNL     1      84.891  72.026  87.545  0.00  0.00    +0.000 C 
ENDBRANCH   1   8
BRANCH   1  11
ATOM     11  S   UNL     1      88.674  69.445  84.678  0.00  0.00    +0.000 S 
BRANCH  11  12
ATOM     12  C   UNL     1      89.433  70.971  84.159  0.00  0.00    +0.000 A 
ATOM     13  C   UNL     1      90.784  70.973  83.795  0.00  0.00    +0.000 A 
ATOM     14  C   UNL     1      91.394  72.146  83.346  0.00  0.00    +0.000 A 
ATOM     15  C   UNL     1      90.655  73.325  83.253  0.00  0.00    +0.000 A 
ATOM     16  C   UNL     1      89.306  73.330  83.607  0.00  0.00    +0.000 A 
ATOM     17  C   UNL     1      88.696  72.155  84.054  0.00  0.00    +0.000 A 
ENDBRANCH  11  12
ENDBRANCH   1  11
TORSDOF 3
ENDMDL
