MODEL 1
REMARK VINA RESULT:      -4.3      0.000      0.000
REMARK  Name = *****
REMARK  5 active torsions:
REMARK  status: ('A' for Active; 'I' for Inactive)
REMARK    1  A    between atoms: C_1  and  C_2
REMARK    2  A    between atoms: C_2  and  C_3
REMARK    3  A    between atoms: C_2  and  O_9
REMARK    4  A    between atoms: O_9  and  C_10
REMARK    5  A    between atoms: C_10  and  C_12
REMARK                            x       y       z     vdW  Elec       q    Type
REMARK                         _______ _______ _______ _____ _____    ______ ____
ROOT
ATOM      1  O   UNL     1      89.674  68.675  86.770  0.00  0.00    +0.000 OA
ENDROOT
BRANCH   1   3
ATOM      2  C   UNL     1      90.455  66.636  85.701  0.00  0.00    +0.000 C 
ATOM      3  C   UNL     1      89.235  67.444  86.137  0.00  0.00    +0.000 C 
BRANCH   3   4
ATOM      4  C   UNL     1      88.412  66.671  87.151  0.00  0.00    +0.000 A 
ATOM      5  C   UNL     1      87.302  67.251  87.788  0.00  0.00    +0.000 A 
ATOM      6  C   UNL     1      86.565  66.533  88.730  0.00  0.00    +0.000 A 
ATOM      7  C   UNL     1      86.929  65.227  89.053  0.00  0.00    +0.000 A 
ATOM      8  C   UNL     1      88.031  64.640  88.435  0.00  0.00    +0.000 A 
ATOM      9  C   UNL     1      88.769  65.356  87.491  0.00  0.00    +0.000 A 
ENDBRANCH   3   4
ENDBRANCH   1   3
BRANCH   1  10
ATOM     10  C   UNL     1      89.360  69.929  86.354  0.00  0.00    +0.000 C 
ATOM     11  S   UNL     1      90.048  70.686  85.040  0.00  0.00    +0.000 S 
BRANCH  10  12
ATOM     12  C   UNL     1      88.347  70.495  87.282  0.00  0.00    +0.000 A 
ATOM     13  C   UNL     1      88.620  70.636  88.650  0.00  0.00    +0.000 A 
ATOM     14  C   UNL     1      87.657  71.171  89.510  0.00  0.00    +0.000 A 
ATOM     15  C   UNL     1      86.418  71.568  89.011  0.00  0.00    +0.000 A 
ATOM     16  C   UNL     1      86.136  71.434  87.653  0.00  0.00    +0.000 A 
ATOM     17  C   UNL     1      87.096  70.900  86.790  0.00  0.00    +0.000 A 
ENDBRANCH  10  12
ENDBRANCH   1  10
TORSDOF 4
ENDMDL
