REMARK  Name = *****
REMARK  5 active torsions:
REMARK  status: ('A' for Active; 'I' for Inactive)
REMARK    1  A    between atoms: C_1  and  O_2
REMARK    2  A    between atoms: O_2  and  C_3
REMARK    3  A    between atoms: C_3  and  C_4
REMARK    4  A    between atoms: C_3  and  C_11
REMARK    5  A    between atoms: C_4  and  C_5
REMARK                            x       y       z     vdW  Elec       q    Type
REMARK                         _______ _______ _______ _____ _____    ______ ____
ROOT
ATOM      1  C   UNL     1       2.903  -0.816   1.049  0.00  0.00    +0.000 C 
ENDROOT
BRANCH   1   2
ATOM      2  C   UNL     1       4.400  -0.811   1.323  0.00  0.00    +0.000 A 
ATOM      3  C   UNL     1       5.336  -0.948   0.284  0.00  0.00    +0.000 A 
ATOM      4  C   UNL     1       6.705  -0.968   0.555  0.00  0.00    +0.000 A 
ATOM      5  C   UNL     1       7.144  -0.853   1.867  0.00  0.00    +0.000 A 
ATOM      6  C   UNL     1       6.240  -0.721   2.914  0.00  0.00    +0.000 A 
ATOM      7  C   UNL     1       4.870  -0.701   2.644  0.00  0.00    +0.000 A 
ATOM      8  F   UNL     1       8.457  -0.873   2.129  0.00  0.00    +0.000 F 
ENDBRANCH   1   2
BRANCH   1  10
ATOM      9  C   UNL     1       1.413   0.411  -0.353  0.00  0.00    +0.000 C 
ATOM     10  O   UNL     1       2.641  -0.298  -0.264  0.00  0.00    +0.000 OA
ENDBRANCH   1  10
BRANCH   1  11
ATOM     11  C   UNL     1       2.259  -2.208   1.255  0.00  0.00    +0.000 C 
BRANCH  11  12
ATOM     12  C   UNL     1       2.835  -3.332   0.420  0.00  0.00    +0.000 A 
ATOM     13  C   UNL     1       3.668  -4.296   1.005  0.00  0.00    +0.000 A 
ATOM     14  C   UNL     1       4.206  -5.329   0.236  0.00  0.00    +0.000 A 
ATOM     15  C   UNL     1       3.917  -5.410  -1.125  0.00  0.00    +0.000 A 
ATOM     16  C   UNL     1       3.091  -4.457  -1.718  0.00  0.00    +0.000 A 
ATOM     17  C   UNL     1       2.552  -3.424  -0.950  0.00  0.00    +0.000 A 
ENDBRANCH  11  12
ENDBRANCH   1  11
TORSDOF 4
