REMARK  Name = *****
REMARK  5 active torsions:
REMARK  status: ('A' for Active; 'I' for Inactive)
REMARK    1  A    between atoms: C_1  and  C_2
REMARK    2  A    between atoms: C_4  and  C_7
REMARK    3  A    between atoms: C_7  and  C_8
REMARK    4  A    between atoms: C_8  and  O_9
REMARK    5  A    between atoms: O_9  and  C_10
REMARK                            x       y       z     vdW  Elec       q    Type
REMARK                         _______ _______ _______ _____ _____    ______ ____
ROOT
ATOM      1  C   UNL     1       1.949   2.720   1.710  0.00  0.00    +0.000 C 
ENDROOT
BRANCH   1   2
ATOM      2  C   UNL     1       1.851   1.206   1.528  0.00  0.00    +0.000 C 
BRANCH   2   6
ATOM      3  C   UNL     1      -2.337   0.167  -0.347  0.00  0.00    +0.000 C 
ATOM      4  C   UNL     1      -0.865   0.151  -0.143  0.00  0.00    +0.000 C 
ATOM      5  C   UNL     1      -0.032   1.199  -0.165  0.00  0.00    +0.000 C 
ATOM      6  C   UNL     1       1.385   0.800   0.126  0.00  0.00    +0.000 C 
ATOM      7  C   UNL     1       1.323  -0.728  -0.040  0.00  0.00    +0.000 C 
ATOM      8  C   UNL     1      -0.141  -1.123   0.159  0.00  0.00    +0.000 C 
ENDBRANCH   2   6
ENDBRANCH   1   2
BRANCH   1   9
ATOM      9  O   UNL     1       2.474   2.968   3.016  0.00  0.00    +0.000 OA
BRANCH   9  10
ATOM     10  C   UNL     1       2.623   4.275   3.389  0.00  0.00    +0.000 A 
ATOM     11  C   UNL     1       2.342   5.393   2.601  0.00  0.00    +0.000 A 
ATOM     12  C   UNL     1       2.541   6.680   3.111  0.00  0.00    +0.000 A 
ATOM     13  C   UNL     1       3.023   6.855   4.407  0.00  0.00    +0.000 A 
ATOM     14  C   UNL     1       3.307   5.744   5.197  0.00  0.00    +0.000 A 
ATOM     15  C   UNL     1       3.107   4.460   4.687  0.00  0.00    +0.000 A 
ENDBRANCH   9  10
ENDBRANCH   1   9
TORSDOF 4
