MODEL 1
REMARK VINA RESULT:      -5.1      0.000      0.000
REMARK  Name = *****
REMARK  3 active torsions:
REMARK  status: ('A' for Active; 'I' for Inactive)
REMARK    1  A    between atoms: C_1  and  O_2
REMARK    2  A    between atoms: O_2  and  C_3
REMARK    3  A    between atoms: C_6  and  C_7
REMARK                            x       y       z     vdW  Elec       q    Type
REMARK                         _______ _______ _______ _____ _____    ______ ____
ROOT
ATOM      1  C   UNL     1      99.600 127.291  82.545  0.00  0.00    +0.000 C 
ATOM      2  N   UNL     1     100.679 126.606  82.316  0.00  0.00    +0.000 NA
ATOM      3  C   UNL     1     101.704 127.354  82.881  0.00  0.00    +0.000 C 
ATOM      4  C   UNL     1     103.002 127.022  82.876  0.00  0.00    +0.000 C 
ATOM      5  C   UNL     1     101.164 128.577  83.491  0.00  0.00    +0.000 A 
ATOM      6  C   UNL     1     101.719 129.647  84.169  0.00  0.00    +0.000 A 
ATOM      7  C   UNL     1     100.861 130.663  84.612  0.00  0.00    +0.000 A 
ATOM      8  C   UNL     1      99.474 130.599  84.373  0.00  0.00    +0.000 A 
ATOM      9  C   UNL     1      98.920 129.516  83.688  0.00  0.00    +0.000 A 
ATOM     10  C   UNL     1      99.793 128.533  83.267  0.00  0.00    +0.000 A 
ENDROOT
BRANCH   4  11
ATOM     11  C   UNL     1     103.522 125.804  82.252  0.00  0.00    +0.000 A 
ATOM     12  C   UNL     1     103.746 124.659  83.023  0.00  0.00    +0.000 A 
ATOM     13  C   UNL     1     104.226 123.491  82.426  0.00  0.00    +0.000 A 
ATOM     14  C   UNL     1     104.486 123.465  81.055  0.00  0.00    +0.000 A 
ATOM     15  C   UNL     1     104.271 124.605  80.283  0.00  0.00    +0.000 A 
ATOM     16  C   UNL     1     103.791 125.773  80.879  0.00  0.00    +0.000 A 
ENDBRANCH   4  11
BRANCH   1  18
ATOM     17  C   UNL     1      97.606 126.258  83.182  0.00  0.00    +0.000 C 
ATOM     18  O   UNL     1      98.339 126.988  82.196  0.00  0.00    +0.000 OA
ENDBRANCH   1  18
TORSDOF 2
ENDMDL
