MODEL 1
REMARK VINA RESULT:      -4.0      0.000      0.000
REMARK  Name = *****
REMARK  3 active torsions:
REMARK  status: ('A' for Active; 'I' for Inactive)
REMARK    1  A    between atoms: C_3  and  S_9
REMARK    2  A    between atoms: S_9  and  C_10
REMARK    3  A    between atoms: C_10  and  C_12
REMARK                            x       y       z     vdW  Elec       q    Type
REMARK                         _______ _______ _______ _____ _____    ______ ____
ROOT
ATOM      1  C   UNL     1      98.940 106.567  83.801  0.00  0.00    +0.000 A 
ATOM      2  C   UNL     1     100.092 107.014  84.453  0.00  0.00    +0.000 A 
ATOM      3  C   UNL     1     100.646 108.259  84.128  0.00  0.00    +0.000 A 
ATOM      4  C   UNL     1     100.013 109.048  83.156  0.00  0.00    +0.000 A 
ATOM      5  C   UNL     1      98.866 108.608  82.503  0.00  0.00    +0.000 A 
ATOM      6  C   UNL     1      98.341 107.367  82.832  0.00  0.00    +0.000 A 
ATOM      7  F   UNL     1      97.236 106.933  82.213  0.00  0.00    +0.000 F 
ATOM      8  F   UNL     1     100.506 110.254  82.838  0.00  0.00    +0.000 F 
ENDROOT
BRANCH   3   9
ATOM      9  S   UNL     1     102.105 108.815  84.987  0.00  0.00    +0.000 S 
BRANCH   9  10
ATOM     10  C   UNL     1     103.236 108.984  83.646  0.00  0.00    +0.000 C 
ATOM     11  O   UNL     1     103.512 110.081  83.171  0.00  0.00    +0.000 OA
BRANCH  10  12
ATOM     12  C   UNL     1     103.782 107.735  83.132  0.00  0.00    +0.000 A 
ATOM     13  C   UNL     1     103.732 106.540  83.837  0.00  0.00    +0.000 A 
ATOM     14  S   UNL     1     104.480 105.334  82.879  0.00  0.00    +0.000 S 
ATOM     15  N   UNL     1     104.820 106.399  81.638  0.00  0.00    +0.000 NA
ATOM     16  N   UNL     1     104.403 107.629  81.886  0.00  0.00    +0.000 NA
ENDBRANCH  10  12
ENDBRANCH   9  10
ENDBRANCH   3   9
TORSDOF 3
ENDMDL
