MODEL 1
REMARK VINA RESULT:      -4.3      0.000      0.000
REMARK  Name = *****
REMARK  4 active torsions:
REMARK  status: ('A' for Active; 'I' for Inactive)
REMARK    1  A    between atoms: C_4  and  O_7
REMARK    2  A    between atoms: O_7  and  P_8
REMARK    3  A    between atoms: P_8  and  O_9
REMARK    4  A    between atoms: O_9  and  C_10
REMARK                            x       y       z     vdW  Elec       q    Type
REMARK                         _______ _______ _______ _____ _____    ______ ____
ROOT
ATOM      1  P   UNL     1      89.017  69.157  86.450  0.00  0.00    +0.000 P 
ATOM      2 BR   UNL     1      89.908  70.753  85.255  0.00  0.00    +0.000 Br
ENDROOT
BRANCH   1   3
ATOM      3  O   UNL     1      90.260  68.126  86.437  0.00  0.00    +0.000 OA
BRANCH   3   7
ATOM      4  C   UNL     1      89.882  64.005  85.936  0.00  0.00    +0.000 A 
ATOM      5  C   UNL     1      90.948  64.653  85.315  0.00  0.00    +0.000 A 
ATOM      6  C   UNL     1      91.112  66.035  85.455  0.00  0.00    +0.000 A 
ATOM      7  C   UNL     1      90.205  66.773  86.220  0.00  0.00    +0.000 A 
ATOM      8  C   UNL     1      89.141  66.116  86.845  0.00  0.00    +0.000 A 
ATOM      9  C   UNL     1      88.977  64.737  86.704  0.00  0.00    +0.000 A 
ENDBRANCH   3   7
ENDBRANCH   1   3
BRANCH   1  10
ATOM     10  O   UNL     1      89.273  69.803  87.911  0.00  0.00    +0.000 OA
BRANCH  10  11
ATOM     11  C   UNL     1      88.377  70.570  88.610  0.00  0.00    +0.000 A 
ATOM     12  C   UNL     1      87.131  70.748  88.000  0.00  0.00    +0.000 A 
ATOM     13  C   UNL     1      86.138  71.497  88.632  0.00  0.00    +0.000 A 
ATOM     14  C   UNL     1      86.382  72.062  89.882  0.00  0.00    +0.000 A 
ATOM     15  C   UNL     1      87.617  71.873  90.502  0.00  0.00    +0.000 A 
ATOM     16  C   UNL     1      88.613  71.125  89.869  0.00  0.00    +0.000 A 
ENDBRANCH  10  11
ENDBRANCH   1  10
TORSDOF 4
ENDMDL
