REMARK  Name = *****
REMARK  5 active torsions:
REMARK  status: ('A' for Active; 'I' for Inactive)
REMARK    1  A    between atoms: C_1  and  C_2
REMARK    2  A    between atoms: C_7  and  C_8
REMARK    3  A    between atoms: C_8  and  N_9
REMARK    4  A    between atoms: N_9  and  C_10
REMARK    5  A    between atoms: C_10  and  C_11
REMARK                            x       y       z     vdW  Elec       q    Type
REMARK                         _______ _______ _______ _____ _____    ______ ____
ROOT
ATOM      1  C   UNL     1       1.271  -2.277   0.092  0.00  0.00    +0.000 C 
ENDROOT
BRANCH   1   8
ATOM      2  C   UNL     1      -0.965  -1.766   2.005  0.00  0.00    +0.000 C 
ATOM      3  C   UNL     1      -0.634  -0.829   0.878  0.00  0.00    +0.000 A 
ATOM      4  C   UNL     1      -1.406   0.335   0.715  0.00  0.00    +0.000 A 
ATOM      5  C   UNL     1      -1.140   1.234  -0.319  0.00  0.00    +0.000 A 
ATOM      6  C   UNL     1      -0.099   0.986  -1.209  0.00  0.00    +0.000 A 
ATOM      7  C   UNL     1       0.678  -0.163  -1.064  0.00  0.00    +0.000 A 
ATOM      8  C   UNL     1       0.418  -1.070  -0.026  0.00  0.00    +0.000 A 
ENDBRANCH   1   8
BRANCH   1   9
ATOM      9  N   UNL     1       2.221  -2.529  -0.747  0.00  0.00    +0.000 NA
BRANCH   9  10
ATOM     10  C   UNL     1       2.950  -3.776  -0.464  0.00  0.00    +0.000 C 
BRANCH  10  11
ATOM     11  C   UNL     1       2.194  -5.027  -0.849  0.00  0.00    +0.000 A 
ATOM     12  C   UNL     1       1.503  -5.100  -2.067  0.00  0.00    +0.000 A 
ATOM     13  C   UNL     1       0.826  -6.265  -2.431  0.00  0.00    +0.000 A 
ATOM     14  C   UNL     1       0.840  -7.373  -1.587  0.00  0.00    +0.000 A 
ATOM     15  C   UNL     1       1.534  -7.318  -0.379  0.00  0.00    +0.000 A 
ATOM     16  C   UNL     1       2.212  -6.153  -0.013  0.00  0.00    +0.000 A 
ENDBRANCH  10  11
ENDBRANCH   9  10
ENDBRANCH   1   9
TORSDOF 4
