MODEL 1
REMARK VINA RESULT:      -5.1      0.000      0.000
REMARK  Name = *****
REMARK  3 active torsions:
REMARK  status: ('A' for Active; 'I' for Inactive)
REMARK    1  A    between atoms: C_1  and  C_2
REMARK    2  A    between atoms: C_2  and  C_11
REMARK    3  A    between atoms: C_3  and  C_4
REMARK                            x       y       z     vdW  Elec       q    Type
REMARK                         _______ _______ _______ _____ _____    ______ ____
ROOT
ATOM      1  C   UNL     1     103.414 127.328  80.376  0.00  0.00    +0.000 C 
ATOM      2  C   UNL     1     103.246 126.064  81.178  0.00  0.00    +0.000 C 
ATOM      3  C   UNL     1     102.354 125.886  82.173  0.00  0.00    +0.000 C 
ENDROOT
BRANCH   3   4
ATOM      4  C   UNL     1     101.386 126.889  82.621  0.00  0.00    +0.000 A 
ATOM      5  C   UNL     1     100.020 126.735  82.351  0.00  0.00    +0.000 A 
ATOM      6  C   UNL     1      99.106 127.695  82.788  0.00  0.00    +0.000 A 
ATOM      7  C   UNL     1      99.562 128.802  83.495  0.00  0.00    +0.000 A 
ATOM      8  C   UNL     1     100.913 128.967  83.775  0.00  0.00    +0.000 A 
ATOM      9  C   UNL     1     101.828 128.008  83.338  0.00  0.00    +0.000 A 
ATOM     10  F   UNL     1      98.684 129.723  83.915  0.00  0.00    +0.000 F 
ENDBRANCH   3   4
BRANCH   2  11
ATOM     11  C   UNL     1     104.144 124.945  80.815  0.00  0.00    +0.000 A 
ATOM     12  C   UNL     1     104.140 123.757  81.559  0.00  0.00    +0.000 A 
ATOM     13  C   UNL     1     104.980 122.696  81.213  0.00  0.00    +0.000 A 
ATOM     14  C   UNL     1     105.832 122.809  80.116  0.00  0.00    +0.000 A 
ATOM     15  C   UNL     1     105.843 123.981  79.364  0.00  0.00    +0.000 A 
ATOM     16  C   UNL     1     105.004 125.043  79.710  0.00  0.00    +0.000 A 
ENDBRANCH   2  11
TORSDOF 2
ENDMDL
