REMARK  Name = *****
REMARK  1 active torsions:
REMARK  status: ('A' for Active; 'I' for Inactive)
REMARK    1  A    between atoms: C_9  and  C_10
REMARK                            x       y       z     vdW  Elec       q    Type
REMARK                         _______ _______ _______ _____ _____    ______ ____
ROOT
ATOM      1  C   UNL     1       1.582   0.716  -0.496  0.00  0.00    +0.000 C 
ATOM      2  C   UNL     1       1.509  -0.832  -0.512  0.00  0.00    +0.000 C 
ATOM      3  C   UNL     1       0.281  -1.132   0.379  0.00  0.00    +0.000 C 
ATOM      4  C   UNL     1       0.437  -0.025   1.441  0.00  0.00    +0.000 C 
ATOM      5  C   UNL     1       0.385   1.111   0.400  0.00  0.00    +0.000 C 
ATOM      6  C   UNL     1      -0.885   0.830  -0.392  0.00  0.00    +0.000 C 
ATOM      7  C   UNL     1      -0.958  -0.720  -0.406  0.00  0.00    +0.000 C 
ATOM      8  C   UNL     1      -1.986   0.102   0.101  0.00  0.00    +0.000 C 
ATOM      9  C   UNL     1      -3.175   0.121   0.669  0.00  0.00    +0.000 C 
ENDROOT
BRANCH   9  10
ATOM     10  C   UNL     1      -3.892   1.337   1.074  0.00  0.00    +0.000 A 
ATOM     11  C   UNL     1      -3.756   2.557   0.395  0.00  0.00    +0.000 A 
ATOM     12  C   UNL     1      -4.479   3.682   0.801  0.00  0.00    +0.000 A 
ATOM     13  C   UNL     1      -5.346   3.586   1.882  0.00  0.00    +0.000 A 
ATOM     14  C   UNL     1      -5.509   2.386   2.561  0.00  0.00    +0.000 A 
ATOM     15  C   UNL     1      -4.786   1.261   2.154  0.00  0.00    +0.000 A 
ATOM     16  F   UNL     1      -6.040   4.664   2.270  0.00  0.00    +0.000 F 
ENDBRANCH   9  10
TORSDOF 1
