MODEL 1
REMARK VINA RESULT:      -4.3      0.000      0.000
REMARK  Name = *****
REMARK  6 active torsions:
REMARK  status: ('A' for Active; 'I' for Inactive)
REMARK    1  A    between atoms: C_1  and  C_2
REMARK    2  A    between atoms: C_4  and  C_8
REMARK    3  A    between atoms: C_5  and  C_7
REMARK    4  A    between atoms: C_9  and  C_10
REMARK    5  A    between atoms: C_11  and  C_16
REMARK    6  A    between atoms: C_13  and  C_15
REMARK                            x       y       z     vdW  Elec       q    Type
REMARK                         _______ _______ _______ _____ _____    ______ ____
ROOT
ATOM      1  C   UNL     1      86.457  61.878  89.076  0.00  0.00    +0.000 C 
ATOM      2  C   UNL     1      85.802  61.091  89.704  0.00  0.00    +0.000 C 
ENDROOT
BRANCH   1   6
ATOM      3  C   UNL     1      88.501  64.751  85.447  0.00  0.00    +0.000 C 
ATOM      4  C   UNL     1      88.088  64.042  86.673  0.00  0.00    +0.000 A 
ATOM      5  C   UNL     1      87.141  63.078  86.942  0.00  0.00    +0.000 A 
ATOM      6  C   UNL     1      87.234  62.806  88.327  0.00  0.00    +0.000 A 
ATOM      7  C   UNL     1      88.231  63.619  88.822  0.00  0.00    +0.000 A 
ATOM      8  O   UNL     1      88.755  64.375  87.814  0.00  0.00    +0.000 OA
ATOM      9  C   UNL     1      88.823  63.830  90.158  0.00  0.00    +0.000 C 
ENDBRANCH   1   6
BRANCH   2  10
ATOM     10  C   UNL     1      85.022  60.153  90.451  0.00  0.00    +0.000 A 
ATOM     11  C   UNL     1      83.672  60.299  90.703  0.00  0.00    +0.000 A 
ATOM     12  S   UNL     1      83.065  58.986  91.627  0.00  0.00    +0.000 S 
ATOM     13  C   UNL     1      84.594  58.226  91.691  0.00  0.00    +0.000 A 
ATOM     14  C   UNL     1      85.551  58.958  91.020  0.00  0.00    +0.000 A 
ATOM     15  C   UNL     1      84.769  56.931  92.409  0.00  0.00    +0.000 C 
ATOM     16  C   UNL     1      82.736  61.387  90.298  0.00  0.00    +0.000 C 
ENDBRANCH   2  10
TORSDOF 2
ENDMDL
