MODEL 1
REMARK VINA RESULT:      -4.5      0.000      0.000
REMARK  Name = *****
REMARK  2 active torsions:
REMARK  status: ('A' for Active; 'I' for Inactive)
REMARK    1  A    between atoms: C_2  and  C_11
REMARK    2  A    between atoms: N_3  and  C_4
REMARK                            x       y       z     vdW  Elec       q    Type
REMARK                         _______ _______ _______ _____ _____    ______ ____
ROOT
ATOM      1  C   UNL     1     103.718 127.556  81.138  0.00  0.00    +0.000 C 
ATOM      2  C   UNL     1     102.968 126.833  82.248  0.00  0.00    +0.000 C 
ATOM      3  N   UNL     1     103.138 126.242  80.917  0.00  0.00    +0.000 N 
ENDROOT
BRANCH   3   4
ATOM      4  C   UNL     1     103.987 125.121  80.758  0.00  0.00    +0.000 A 
ATOM      5  C   UNL     1     104.894 125.055  79.689  0.00  0.00    +0.000 A 
ATOM      6  C   UNL     1     105.759 123.966  79.554  0.00  0.00    +0.000 A 
ATOM      7  C   UNL     1     105.732 122.950  80.501  0.00  0.00    +0.000 A 
ATOM      8  C   UNL     1     104.864 123.006  81.584  0.00  0.00    +0.000 A 
ATOM      9  C   UNL     1     103.999 124.096  81.716  0.00  0.00    +0.000 A 
ATOM     10  F   UNL     1     106.562 121.907  80.375  0.00  0.00    +0.000 F 
ENDBRANCH   3   4
BRANCH   2  11
ATOM     11  C   UNL     1     101.597 127.307  82.648  0.00  0.00    +0.000 A 
ATOM     12  C   UNL     1     101.406 128.489  83.384  0.00  0.00    +0.000 A 
ATOM     13  C   UNL     1     100.128 128.931  83.737  0.00  0.00    +0.000 A 
ATOM     14  C   UNL     1      99.009 128.198  83.356  0.00  0.00    +0.000 A 
ATOM     15  C   UNL     1      99.168 127.026  82.623  0.00  0.00    +0.000 A 
ATOM     16  C   UNL     1     100.448 126.588  82.274  0.00  0.00    +0.000 A 
ENDBRANCH   2  11
TORSDOF 2
ENDMDL
