REMARK  Name = *****
REMARK  3 active torsions:
REMARK  status: ('A' for Active; 'I' for Inactive)
REMARK    1  A    between atoms: C_6  and  C_8
REMARK    2  A    between atoms: C_8  and  S_11
REMARK    3  A    between atoms: S_11  and  C_12
REMARK                            x       y       z     vdW  Elec       q    Type
REMARK                         _______ _______ _______ _____ _____    ______ ____
ROOT
ATOM      1  C   UNL     1       0.948  -2.489   0.091  0.00  0.00    +0.000 C 
ATOM      2  C   UNL     1       1.371  -2.645   1.545  0.00  0.00    +0.000 C 
ATOM      3  C   UNL     1       2.420  -2.584   0.474  0.00  0.00    +0.000 C 
ENDROOT
BRANCH   1   9
ATOM      4  C   UNL     1      -1.968   0.093  -0.302  0.00  0.00    +0.000 C 
ATOM      5  C   UNL     1      -1.260   1.386   0.085  0.00  0.00    +0.000 C 
ATOM      6  C   UNL     1       0.177   1.398  -0.407  0.00  0.00    +0.000 C 
ATOM      7  C   UNL     1       0.898   0.157   0.084  0.00  0.00    +0.000 C 
ATOM      8  O   UNL     1       1.946   0.277   0.714  0.00  0.00    +0.000 OA
ATOM      9  C   UNL     1       0.251  -1.173  -0.320  0.00  0.00    +0.000 C 
ATOM     10  C   UNL     1      -1.205  -1.134   0.199  0.00  0.00    +0.000 C 
ENDBRANCH   1   9
BRANCH   1  11
ATOM     11  S   UNL     1       0.274  -3.962  -0.686  0.00  0.00    +0.000 S 
BRANCH  11  12
ATOM     12  C   UNL     1       0.618  -3.608  -2.402  0.00  0.00    +0.000 A 
ATOM     13  C   UNL     1       1.925  -3.465  -2.876  0.00  0.00    +0.000 A 
ATOM     14  C   UNL     1       2.160  -3.189  -4.225  0.00  0.00    +0.000 A 
ATOM     15  C   UNL     1       1.090  -3.065  -5.109  0.00  0.00    +0.000 A 
ATOM     16  C   UNL     1      -0.216  -3.222  -4.647  0.00  0.00    +0.000 A 
ATOM     17  C   UNL     1      -0.451  -3.496  -3.298  0.00  0.00    +0.000 A 
ENDBRANCH  11  12
ENDBRANCH   1  11
TORSDOF 3
