MODEL 1
REMARK VINA RESULT:      -4.9      0.000      0.000
REMARK  Name = *****
REMARK  1 active torsions:
REMARK  status: ('A' for Active; 'I' for Inactive)
REMARK    1  A    between atoms: C_8  and  C_10
REMARK                            x       y       z     vdW  Elec       q    Type
REMARK                         _______ _______ _______ _____ _____    ______ ____
ROOT
ATOM      1  C   UNL     1     104.597 123.468  81.694  0.00  0.00    +0.000 A 
ATOM      2  C   UNL     1     104.501 124.111  80.453  0.00  0.00    +0.000 A 
ATOM      3  C   UNL     1     103.753 125.284  80.295  0.00  0.00    +0.000 A 
ATOM      4  C   UNL     1     103.124 125.754  81.442  0.00  0.00    +0.000 A 
ATOM      5  C   UNL     1     103.192 125.148  82.687  0.00  0.00    +0.000 A 
ATOM      6  C   UNL     1     103.946 123.976  82.829  0.00  0.00    +0.000 A 
ATOM      7  N   UNL     1     102.460 125.867  83.596  0.00  0.00    +0.000 NA
ATOM      8  C   UNL     1     101.975 126.866  82.882  0.00  0.00    +0.000 A 
ATOM      9  O   UNL     1     102.344 126.867  81.561  0.00  0.00    +0.000 OA
ENDROOT
BRANCH   8  10
ATOM     10  C   UNL     1     101.135 127.975  83.300  0.00  0.00    +0.000 A 
ATOM     11  C   UNL     1      99.750 127.958  83.060  0.00  0.00    +0.000 A 
ATOM     12  C   UNL     1      98.939 129.029  83.455  0.00  0.00    +0.000 A 
ATOM     13  C   UNL     1      99.496 130.133  84.094  0.00  0.00    +0.000 A 
ATOM     14  C   UNL     1     100.866 130.168  84.338  0.00  0.00    +0.000 A 
ATOM     15  C   UNL     1     101.681 129.098  83.944  0.00  0.00    +0.000 A 
ATOM     16 CL   UNL     1     103.377 129.248  84.266  0.00  0.00    +0.000 Cl
ATOM     17 CL   UNL     1      98.957 126.616  82.303  0.00  0.00    +0.000 Cl
ENDBRANCH   8  10
TORSDOF 1
ENDMDL
