MODEL 1
REMARK VINA RESULT:      -5.0      0.000      0.000
REMARK  Name = *****
REMARK  5 active torsions:
REMARK  status: ('A' for Active; 'I' for Inactive)
REMARK    1  A    between atoms: C_1  and  O_2
REMARK    2  A    between atoms: O_2  and  C_3
REMARK    3  A    between atoms: C_6  and  C_9
REMARK    4  A    between atoms: C_10  and  C_11
REMARK    5  A    between atoms: C_16  and  C_17
REMARK                            x       y       z     vdW  Elec       q    Type
REMARK                         _______ _______ _______ _____ _____    ______ ____
ROOT
ATOM      1  C   UNL     1     102.774 125.828  81.285  0.00  0.00    +0.000 C 
ATOM      2  C   UNL     1     102.230 125.994  82.501  0.00  0.00    +0.000 C 
ENDROOT
BRANCH   1   6
ATOM      3  C   UNL     1     105.976 123.071  80.559  0.00  0.00    +0.000 A 
ATOM      4  C   UNL     1     105.702 124.072  79.628  0.00  0.00    +0.000 A 
ATOM      5  C   UNL     1     104.654 124.975  79.854  0.00  0.00    +0.000 A 
ATOM      6  C   UNL     1     103.862 124.883  81.005  0.00  0.00    +0.000 A 
ATOM      7  C   UNL     1     104.157 123.890  81.944  0.00  0.00    +0.000 A 
ATOM      8  C   UNL     1     105.202 122.989  81.718  0.00  0.00    +0.000 A 
BRANCH   3  10
ATOM      9  C   UNL     1     106.811 120.958  81.254  0.00  0.00    +0.000 C 
ATOM     10  O   UNL     1     106.963 122.129  80.462  0.00  0.00    +0.000 OA
ENDBRANCH   3  10
ENDBRANCH   1   6
BRANCH   2  11
ATOM     11  C   UNL     1     101.149 126.957  82.729  0.00  0.00    +0.000 A 
ATOM     12  C   UNL     1      99.844 126.567  82.390  0.00  0.00    +0.000 A 
ATOM     13  C   UNL     1      98.770 127.434  82.592  0.00  0.00    +0.000 A 
ATOM     14  C   UNL     1      98.988 128.695  83.137  0.00  0.00    +0.000 A 
ATOM     15  C   UNL     1     100.282 129.090  83.479  0.00  0.00    +0.000 A 
ATOM     16  C   UNL     1     101.380 128.232  83.277  0.00  0.00    +0.000 A 
BRANCH  16  17
ATOM     17  C   UNL     1     102.766 128.688  83.666  0.00  0.00    +0.000 C 
ATOM     18  F   UNL     1     103.385 127.850  84.545  0.00  0.00    +0.000 F 
ATOM     19  F   UNL     1     103.617 128.779  82.601  0.00  0.00    +0.000 F 
ATOM     20  F   UNL     1     102.777 129.923  84.241  0.00  0.00    +0.000 F 
ENDBRANCH  16  17
ENDBRANCH   2  11
TORSDOF 4
ENDMDL
