REMARK  Name = *****
REMARK  3 active torsions:
REMARK  status: ('A' for Active; 'I' for Inactive)
REMARK    1  A    between atoms: C_4  and  C_7
REMARK    2  A    between atoms: C_7  and  C_8
REMARK    3  A    between atoms: C_8  and  C_10
REMARK                            x       y       z     vdW  Elec       q    Type
REMARK                         _______ _______ _______ _____ _____    ______ ____
ROOT
ATOM      1  C   UNL     1      -5.045  -0.756   0.020  0.00  0.00    +0.000 A 
ATOM      2  C   UNL     1      -5.361  -1.944  -0.637  0.00  0.00    +0.000 A 
ATOM      3  C   UNL     1      -6.580  -2.073  -1.296  0.00  0.00    +0.000 A 
ATOM      4  C   UNL     1      -7.488  -1.022  -1.297  0.00  0.00    +0.000 A 
ATOM      5  C   UNL     1      -7.176   0.161  -0.640  0.00  0.00    +0.000 A 
ATOM      6  C   UNL     1      -5.959   0.295   0.018  0.00  0.00    +0.000 A 
ATOM      7  F   UNL     1      -5.681   1.438   0.661  0.00  0.00    +0.000 F 
ATOM      8  F   UNL     1      -8.049   1.178  -0.640  0.00  0.00    +0.000 F 
ATOM      9  F   UNL     1      -8.659  -1.145  -1.936  0.00  0.00    +0.000 F 
ATOM     10  F   UNL     1      -6.875  -3.210  -1.942  0.00  0.00    +0.000 F 
ATOM     11  F   UNL     1      -4.489  -2.961  -0.677  0.00  0.00    +0.000 F 
ENDROOT
BRANCH   1  12
ATOM     12  C   UNL     1      -3.774  -0.639   0.753  0.00  0.00    +0.000 C 
ATOM     13  O   UNL     1      -3.481  -1.535   1.539  0.00  0.00    +0.000 OA
BRANCH  12  14
ATOM     14  C   UNL     1      -2.929   0.603   0.529  0.00  0.00    +0.000 C 
BRANCH  14  18
ATOM     15  C   UNL     1       1.187  -0.322  -0.373  0.00  0.00    +0.000 A 
ATOM     16  C   UNL     1       0.311   0.028  -1.399  0.00  0.00    +0.000 A 
ATOM     17  C   UNL     1      -1.022   0.328  -1.110  0.00  0.00    +0.000 A 
ATOM     18  C   UNL     1      -1.489   0.285   0.212  0.00  0.00    +0.000 A 
ATOM     19  C   UNL     1      -0.600  -0.075   1.234  0.00  0.00    +0.000 A 
ATOM     20  C   UNL     1       0.731  -0.375   0.942  0.00  0.00    +0.000 A 
ENDBRANCH  14  18
ENDBRANCH  12  14
ENDBRANCH   1  12
TORSDOF 3
