MODEL 1
REMARK VINA RESULT:      -4.4      0.000      0.000
REMARK  Name = *****
REMARK  4 active torsions:
REMARK  status: ('A' for Active; 'I' for Inactive)
REMARK    1  A    between atoms: C_1  and  C_2
REMARK    2  A    between atoms: C_3  and  C_7
REMARK    3  A    between atoms: C_10  and  C_12
REMARK    4  A    between atoms: C_13  and  C_17
REMARK                            x       y       z     vdW  Elec       q    Type
REMARK                         _______ _______ _______ _____ _____    ______ ____
ROOT
ATOM      1  C   UNL     1     101.850 126.092  83.097  0.00  0.00    +0.000 A 
ATOM      2  N   UNL     1     102.288 125.453  84.166  0.00  0.00    +0.000 NA
ATOM      3  N   UNL     1     103.259 124.573  83.740  0.00  0.00    +0.000 NA
ATOM      4  C   UNL     1     103.373 124.724  82.433  0.00  0.00    +0.000 A 
ATOM      5  O   UNL     1     102.502 125.676  81.961  0.00  0.00    +0.000 OA
ENDROOT
BRANCH   1   8
ATOM      6  C   UNL     1     102.133 129.081  84.080  0.00  0.00    +0.000 C 
ATOM      7  C   UNL     1     100.903 128.416  83.547  0.00  0.00    +0.000 A 
ATOM      8  C   UNL     1     100.817 127.096  83.115  0.00  0.00    +0.000 A 
ATOM      9  S   UNL     1      99.238 126.715  82.554  0.00  0.00    +0.000 S 
ATOM     10  C   UNL     1      98.658 128.280  82.894  0.00  0.00    +0.000 A 
ATOM     11  C   UNL     1      99.641 129.088  83.415  0.00  0.00    +0.000 A 
ENDBRANCH   1   8
BRANCH   4  12
ATOM     12  C   UNL     1     104.296 123.991  81.605  0.00  0.00    +0.000 A 
ATOM     13  C   UNL     1     104.957 124.422  80.459  0.00  0.00    +0.000 A 
ATOM     14  C   UNL     1     105.780 123.380  79.912  0.00  0.00    +0.000 A 
ATOM     15  C   UNL     1     105.725 122.217  80.643  0.00  0.00    +0.000 A 
ATOM     16  S   UNL     1     104.694 122.366  81.992  0.00  0.00    +0.000 S 
ATOM     17  C   UNL     1     104.852 125.786  79.851  0.00  0.00    +0.000 C 
ENDBRANCH   4  12
TORSDOF 2
ENDMDL
