REMARK  Name = *****
REMARK  5 active torsions:
REMARK  status: ('A' for Active; 'I' for Inactive)
REMARK    1  A    between atoms: C_1  and  C_2
REMARK    2  A    between atoms: C_7  and  O_8
REMARK    3  A    between atoms: O_8  and  C_9
REMARK    4  A    between atoms: C_9  and  C_11
REMARK    5  A    between atoms: C_11  and  C_12
REMARK                            x       y       z     vdW  Elec       q    Type
REMARK                         _______ _______ _______ _____ _____    ______ ____
ROOT
ATOM      1  C   UNL     1       1.896  -2.741   1.671  0.00  0.00    +0.000 C 
ATOM      2  O   UNL     1       1.885  -3.635   0.835  0.00  0.00    +0.000 OA
ENDROOT
BRANCH   1   3
ATOM      3  O   UNL     1       1.447  -1.471   1.475  0.00  0.00    +0.000 OA
BRANCH   3  10
ATOM      4  C   UNL     1       2.402   0.759  -0.383  0.00  0.00    +0.000 C 
ATOM      5  C   UNL     1       1.016   0.288  -0.046  0.00  0.00    +0.000 C 
ATOM      6  C   UNL     1      -0.023   1.140   0.034  0.00  0.00    +0.000 C 
ATOM      7  C   UNL     1      -1.416   0.721   0.404  0.00  0.00    +0.000 C 
ATOM      8  C   UNL     1      -1.489  -0.694   0.977  0.00  0.00    +0.000 C 
ATOM      9  C   UNL     1      -0.608  -1.654   0.180  0.00  0.00    +0.000 C 
ATOM     10  C   UNL     1       0.863  -1.203   0.188  0.00  0.00    +0.000 C 
ENDBRANCH   3  10
ENDBRANCH   1   3
BRANCH   1  11
ATOM     11  C   UNL     1       2.388  -2.908   3.088  0.00  0.00    +0.000 C 
BRANCH  11  12
ATOM     12  C   UNL     1       1.270  -3.215   4.050  0.00  0.00    +0.000 A 
ATOM     13  C   UNL     1       0.849  -4.537   4.249  0.00  0.00    +0.000 A 
ATOM     14  C   UNL     1      -0.204  -4.819   5.120  0.00  0.00    +0.000 A 
ATOM     15  C   UNL     1      -0.850  -3.783   5.793  0.00  0.00    +0.000 A 
ATOM     16  C   UNL     1      -0.446  -2.465   5.594  0.00  0.00    +0.000 A 
ATOM     17  C   UNL     1       0.608  -2.180   4.724  0.00  0.00    +0.000 A 
ENDBRANCH  11  12
ENDBRANCH   1  11
TORSDOF 4
