MODEL 1
REMARK VINA RESULT:      -3.8      0.000      0.000
REMARK  Name = *****
REMARK  4 active torsions:
REMARK  status: ('A' for Active; 'I' for Inactive)
REMARK    1  A    between atoms: C_1  and  C_2
REMARK    2  A    between atoms: C_3  and  C_7
REMARK    3  A    between atoms: C_8  and  C_9
REMARK    4  A    between atoms: C_10  and  C_14
REMARK                            x       y       z     vdW  Elec       q    Type
REMARK                         _______ _______ _______ _____ _____    ______ ____
ROOT
ATOM      1  C   UNL     1      85.787  61.063  89.703  0.00  0.00    +0.000 C 
ATOM      2  C   UNL     1      86.276  62.279  89.992  0.00  0.00    +0.000 C 
ENDROOT
BRANCH   1   5
ATOM      3  C   UNL     1      86.197  58.078  90.883  0.00  0.00    +0.000 C 
ATOM      4  C   UNL     1      85.091  59.049  91.155  0.00  0.00    +0.000 A 
ATOM      5  C   UNL     1      84.974  60.332  90.622  0.00  0.00    +0.000 A 
ATOM      6  S   UNL     1      83.589  61.142  91.264  0.00  0.00    +0.000 S 
ATOM      7  C   UNL     1      83.121  59.789  92.183  0.00  0.00    +0.000 A 
ATOM      8  C   UNL     1      84.002  58.746  92.041  0.00  0.00    +0.000 A 
ENDBRANCH   1   5
BRANCH   2   9
ATOM      9  C   UNL     1      87.113  62.996  89.085  0.00  0.00    +0.000 A 
ATOM     10  C   UNL     1      88.304  63.695  89.281  0.00  0.00    +0.000 A 
ATOM     11  C   UNL     1      88.783  64.276  88.058  0.00  0.00    +0.000 A 
ATOM     12  C   UNL     1      87.982  63.987  86.980  0.00  0.00    +0.000 A 
ATOM     13  S   UNL     1      86.657  63.015  87.419  0.00  0.00    +0.000 S 
ATOM     14  C   UNL     1      89.040  63.840  90.576  0.00  0.00    +0.000 C 
ENDBRANCH   2   9
TORSDOF 2
ENDMDL
