MODEL 1
REMARK VINA RESULT:      -4.8      0.000      0.000
REMARK  Name = *****
REMARK  6 active torsions:
REMARK  status: ('A' for Active; 'I' for Inactive)
REMARK    1  A    between atoms: C_1  and  O_2
REMARK    2  A    between atoms: O_2  and  C_3
REMARK    3  A    between atoms: C_5  and  O_18
REMARK    4  A    between atoms: C_7  and  C_9
REMARK    5  A    between atoms: C_10  and  C_11
REMARK    6  A    between atoms: O_18  and  C_19
REMARK                            x       y       z     vdW  Elec       q    Type
REMARK                         _______ _______ _______ _____ _____    ______ ____
ROOT
ATOM      1  C   UNL     1     100.398 129.164  83.660  0.00  0.00    +0.000 A 
ATOM      2  C   UNL     1      99.049 128.899  83.408  0.00  0.00    +0.000 A 
ATOM      3  C   UNL     1      98.666 127.665  82.876  0.00  0.00    +0.000 A 
ATOM      4  C   UNL     1      99.639 126.701  82.592  0.00  0.00    +0.000 A 
ATOM      5  C   UNL     1     100.996 126.956  82.819  0.00  0.00    +0.000 A 
ATOM      6  C   UNL     1     101.360 128.190  83.367  0.00  0.00    +0.000 A 
ENDROOT
BRANCH   1   8
ATOM      7  C   UNL     1     101.744 130.200  85.327  0.00  0.00    +0.000 C 
ATOM      8  O   UNL     1     100.907 130.321  84.185  0.00  0.00    +0.000 OA
ENDBRANCH   1   8
BRANCH   5   9
ATOM      9  C   UNL     1     102.042 125.955  82.561  0.00  0.00    +0.000 C 
ATOM     10  C   UNL     1     102.767 125.901  81.432  0.00  0.00    +0.000 C 
BRANCH  10  11
ATOM     11  C   UNL     1     103.824 124.910  81.185  0.00  0.00    +0.000 A 
ATOM     12  C   UNL     1     104.543 124.868  79.982  0.00  0.00    +0.000 A 
ATOM     13  C   UNL     1     105.564 123.931  79.796  0.00  0.00    +0.000 A 
ATOM     14  C   UNL     1     105.878 123.036  80.816  0.00  0.00    +0.000 A 
ATOM     15  C   UNL     1     105.185 123.075  82.023  0.00  0.00    +0.000 A 
ATOM     16  C   UNL     1     104.165 124.014  82.208  0.00  0.00    +0.000 A 
ATOM     17 CL   UNL     1     107.135 121.883  80.588  0.00  0.00    +0.000 Cl
ENDBRANCH  10  11
ENDBRANCH   5   9
BRANCH   3  18
ATOM     18  O   UNL     1      97.385 127.275  82.592  0.00  0.00    +0.000 OA
ATOM     19  C   UNL     1      96.629 126.706  83.652  0.00  0.00    +0.000 C 
ENDBRANCH   3  18
TORSDOF 4
ENDMDL
