REMARK  Name = *****
REMARK  3 active torsions:
REMARK  status: ('A' for Active; 'I' for Inactive)
REMARK    1  A    between atoms: C_4  and  O_7
REMARK    2  A    between atoms: O_7  and  C_8
REMARK    3  A    between atoms: C_8  and  C_10
REMARK                            x       y       z     vdW  Elec       q    Type
REMARK                         _______ _______ _______ _____ _____    ______ ____
ROOT
ATOM      1  C   UNL     1      -3.642  -0.766  -0.104  0.00  0.00    +0.000 C 
ATOM      2  O   UNL     1      -3.346  -1.827   0.424  0.00  0.00    +0.000 OA
ENDROOT
BRANCH   1   3
ATOM      3  C   UNL     1      -5.037  -0.435  -0.472  0.00  0.00    +0.000 A 
ATOM      4  C   UNL     1      -5.355   0.500  -1.460  0.00  0.00    +0.000 A 
ATOM      5  C   UNL     1      -6.685   0.767  -1.767  0.00  0.00    +0.000 A 
ATOM      6  C   UNL     1      -7.704   0.099  -1.098  0.00  0.00    +0.000 A 
ATOM      7  C   UNL     1      -7.408  -0.845  -0.120  0.00  0.00    +0.000 A 
ATOM      8  C   UNL     1      -6.073  -1.116   0.191  0.00  0.00    +0.000 A 
ATOM      9  F   UNL     1      -8.985   0.356  -1.393  0.00  0.00    +0.000 F 
ATOM     10  F   UNL     1      -6.985   1.665  -2.715  0.00  0.00    +0.000 F 
ATOM     11  F   UNL     1      -4.398   1.137  -2.150  0.00  0.00    +0.000 F 
ENDBRANCH   1   3
BRANCH   1  12
ATOM     12  O   UNL     1      -2.815   0.306  -0.367  0.00  0.00    +0.000 OA
BRANCH  12  16
ATOM     13  C   UNL     1       1.243  -0.067   0.543  0.00  0.00    +0.000 A 
ATOM     14  C   UNL     1       0.661  -0.961  -0.358  0.00  0.00    +0.000 A 
ATOM     15  C   UNL     1      -0.696  -0.860  -0.665  0.00  0.00    +0.000 A 
ATOM     16  C   UNL     1      -1.462   0.128  -0.048  0.00  0.00    +0.000 A 
ATOM     17  C   UNL     1      -0.887   1.039   0.836  0.00  0.00    +0.000 A 
ATOM     18  C   UNL     1       0.471   0.934   1.137  0.00  0.00    +0.000 A 
ENDBRANCH  12  16
ENDBRANCH   1  12
TORSDOF 3
