REMARK  Name = *****
REMARK  3 active torsions:
REMARK  status: ('A' for Active; 'I' for Inactive)
REMARK    1  A    between atoms: C_5  and  C_7
REMARK    2  A    between atoms: C_7  and  O_9
REMARK    3  A    between atoms: O_9  and  C_10
REMARK                            x       y       z     vdW  Elec       q    Type
REMARK                         _______ _______ _______ _____ _____    ______ ____
ROOT
ATOM      1  C   UNL     1      -0.260  -2.478  -0.695  0.00  0.00    +0.000 C 
ATOM      2  O   UNL     1       0.409  -3.494  -0.792  0.00  0.00    +0.000 OA
ENDROOT
BRANCH   1   7
ATOM      3  C   UNL     1       1.724   0.021   1.267  0.00  0.00    +0.000 A 
ATOM      4  C   UNL     1       1.459   1.210   0.591  0.00  0.00    +0.000 A 
ATOM      5  C   UNL     1       0.636   1.205  -0.538  0.00  0.00    +0.000 A 
ATOM      6  C   UNL     1       0.063   0.011  -0.990  0.00  0.00    +0.000 A 
ATOM      7  C   UNL     1       0.308  -1.178  -0.295  0.00  0.00    +0.000 A 
ATOM      8  C   UNL     1       1.155  -1.173   0.824  0.00  0.00    +0.000 A 
ATOM      9 CL   UNL     1      -0.878   0.077  -2.437  0.00  0.00    +0.000 Cl
ENDBRANCH   1   7
BRANCH   1  10
ATOM     10  O   UNL     1      -1.632  -2.346  -0.783  0.00  0.00    +0.000 OA
BRANCH  10  11
ATOM     11  C   UNL     1      -2.323  -3.510  -1.142  0.00  0.00    +0.000 A 
ATOM     12  C   UNL     1      -3.304  -3.971  -0.265  0.00  0.00    +0.000 A 
ATOM     13  C   UNL     1      -4.056  -5.094  -0.610  0.00  0.00    +0.000 A 
ATOM     14  C   UNL     1      -3.827  -5.733  -1.831  0.00  0.00    +0.000 A 
ATOM     15  C   UNL     1      -2.859  -5.254  -2.714  0.00  0.00    +0.000 A 
ATOM     16  C   UNL     1      -2.106  -4.129  -2.374  0.00  0.00    +0.000 A 
ATOM     17 CL   UNL     1      -4.758  -7.117  -2.255  0.00  0.00    +0.000 Cl
ENDBRANCH  10  11
ENDBRANCH   1  10
TORSDOF 3
