MODEL 1
REMARK VINA RESULT:      -4.4      0.000      0.000
REMARK  Name = *****
REMARK  5 active torsions:
REMARK  status: ('A' for Active; 'I' for Inactive)
REMARK    1  A    between atoms: C_4  and  C_7
REMARK    2  A    between atoms: C_7  and  N_8
REMARK    3  A    between atoms: N_8  and  C_9
REMARK    4  A    between atoms: C_9  and  C_11
REMARK    5  A    between atoms: C_16  and  S_17
REMARK                            x       y       z     vdW  Elec       q    Type
REMARK                         _______ _______ _______ _____ _____    ______ ____
ROOT
ATOM      1  C   UNL     1      87.761  63.402  85.817  0.00  0.00    +0.000 C 
ATOM      2  S   UNL     1      86.614  63.367  84.591  0.00  0.00    +0.000 S 
ENDROOT
BRANCH   1   3
ATOM      3  C   UNL     1      88.936  64.312  85.751  0.00  0.00    +0.000 A 
ATOM      4  C   UNL     1      88.826  65.558  86.387  0.00  0.00    +0.000 A 
ATOM      5  C   UNL     1      89.886  66.463  86.344  0.00  0.00    +0.000 A 
ATOM      6  C   UNL     1      91.055  66.127  85.664  0.00  0.00    +0.000 A 
ATOM      7  C   UNL     1      91.166  64.890  85.024  0.00  0.00    +0.000 A 
ATOM      8  C   UNL     1      90.107  63.969  85.051  0.00  0.00    +0.000 A 
BRANCH   8   9
ATOM      9  S   UNL     1      90.331  62.400  84.224  0.00  0.00    +0.000 S 
ATOM     10  H   UNL     1      91.197  62.553  83.186  0.00  0.00    +0.000 HD
ENDBRANCH   8   9
ENDBRANCH   1   3
BRANCH   1  11
ATOM     11  N   UNL     1      87.750  62.598  86.941  0.00  0.00    +0.000 N 
ATOM     12  H   UNL     1      88.501  61.972  87.052  0.00  0.00    +0.000 HD
BRANCH  11  13
ATOM     13  C   UNL     1      86.727  62.596  87.973  0.00  0.00    +0.000 C 
BRANCH  13  17
ATOM     14  C   UNL     1      88.295  64.247  91.631  0.00  0.00    +0.000 A 
ATOM     15  C   UNL     1      86.925  64.029  91.496  0.00  0.00    +0.000 A 
ATOM     16  C   UNL     1      86.417  63.486  90.315  0.00  0.00    +0.000 A 
ATOM     17  C   UNL     1      87.277  63.148  89.260  0.00  0.00    +0.000 A 
ATOM     18  C   UNL     1      88.652  63.384  89.403  0.00  0.00    +0.000 A 
ATOM     19  C   UNL     1      89.157  63.928  90.584  0.00  0.00    +0.000 A 
ENDBRANCH  13  17
ENDBRANCH  11  13
ENDBRANCH   1  11
TORSDOF 5
ENDMDL
