MODEL 1
REMARK VINA RESULT:      -4.5      0.000      0.000
REMARK  Name = *****
REMARK  6 active torsions:
REMARK  status: ('A' for Active; 'I' for Inactive)
REMARK    1  A    between atoms: C_1  and  C_2
REMARK    2  A    between atoms: C_5  and  C_8
REMARK    3  A    between atoms: C_8  and  S_10
REMARK    4  A    between atoms: S_10  and  C_11
REMARK    5  A    between atoms: C_16  and  O_17
REMARK    6  A    between atoms: O_17  and  C_18
REMARK                            x       y       z     vdW  Elec       q    Type
REMARK                         _______ _______ _______ _____ _____    ______ ____
ROOT
ATOM      1  C   UNL     1      88.291  70.355  87.382  0.00  0.00    +0.000 C 
ATOM      2  O   UNL     1      88.913  70.470  88.434  0.00  0.00    +0.000 OA
ENDROOT
BRANCH   1   7
ATOM      3  C   UNL     1      83.166  73.053  86.874  0.00  0.00    +0.000 C 
ATOM      4  C   UNL     1      84.504  72.383  86.988  0.00  0.00    +0.000 A 
ATOM      5  C   UNL     1      85.229  72.051  85.839  0.00  0.00    +0.000 A 
ATOM      6  C   UNL     1      86.462  71.396  85.938  0.00  0.00    +0.000 A 
ATOM      7  C   UNL     1      86.982  71.048  87.192  0.00  0.00    +0.000 A 
ATOM      8  C   UNL     1      86.247  71.377  88.342  0.00  0.00    +0.000 A 
ATOM      9  C   UNL     1      85.016  72.031  88.241  0.00  0.00    +0.000 A 
ENDBRANCH   1   7
BRANCH   1  10
ATOM     10  S   UNL     1      88.881  69.302  86.099  0.00  0.00    +0.000 S 
BRANCH  10  11
ATOM     11  C   UNL     1      88.393  67.713  86.772  0.00  0.00    +0.000 A 
ATOM     12  C   UNL     1      87.071  67.574  87.216  0.00  0.00    +0.000 A 
ATOM     13  C   UNL     1      86.628  66.362  87.745  0.00  0.00    +0.000 A 
ATOM     14  C   UNL     1      87.501  65.281  87.826  0.00  0.00    +0.000 A 
ATOM     15  C   UNL     1      88.819  65.406  87.379  0.00  0.00    +0.000 A 
ATOM     16  C   UNL     1      89.279  66.618  86.850  0.00  0.00    +0.000 A 
BRANCH  16  17
ATOM     17  O   UNL     1      90.550  66.819  86.372  0.00  0.00    +0.000 OA
ATOM     18  C   UNL     1      91.057  65.874  85.439  0.00  0.00    +0.000 C 
ENDBRANCH  16  17
ENDBRANCH  10  11
ENDBRANCH   1  10
TORSDOF 4
ENDMDL
