MODEL 1
REMARK VINA RESULT:      -4.8      0.000      0.000
REMARK  Name = *****
REMARK  2 active torsions:
REMARK  status: ('A' for Active; 'I' for Inactive)
REMARK    1  A    between atoms: C_4  and  N_7
REMARK    2  A    between atoms: C_8  and  C_10
REMARK                            x       y       z     vdW  Elec       q    Type
REMARK                         _______ _______ _______ _____ _____    ______ ____
ROOT
ATOM      1  N   UNL     1      88.290  64.394  88.764  0.00  0.00    +0.000 N 
ATOM      2  C   UNL     1      88.068  64.944  87.419  0.00  0.00    +0.000 C 
ATOM      3  N   UNL     1      89.107  63.971  87.718  0.00  0.00    +0.000 NA
ATOM      4  H   UNL     1      89.022  63.018  87.365  0.00  0.00    +0.000 HD
ENDROOT
BRANCH   2   5
ATOM      5  C   UNL     1      88.487  66.364  87.154  0.00  0.00    +0.000 A 
ATOM      6  C   UNL     1      89.670  66.652  86.445  0.00  0.00    +0.000 A 
ATOM      7  C   UNL     1      90.061  67.968  86.182  0.00  0.00    +0.000 A 
ATOM      8  C   UNL     1      89.269  69.025  86.621  0.00  0.00    +0.000 A 
ATOM      9  C   UNL     1      88.091  68.774  87.317  0.00  0.00    +0.000 A 
ATOM     10  C   UNL     1      87.707  67.455  87.576  0.00  0.00    +0.000 A 
ATOM     11 CL   UNL     1      89.746  70.645  86.299  0.00  0.00    +0.000 Cl
ENDBRANCH   2   5
BRANCH   1  15
ATOM     12  C   UNL     1      85.505  61.661  90.424  0.00  0.00    +0.000 A 
ATOM     13  C   UNL     1      86.036  61.395  89.164  0.00  0.00    +0.000 A 
ATOM     14  C   UNL     1      86.959  62.276  88.591  0.00  0.00    +0.000 A 
ATOM     15  C   UNL     1      87.363  63.439  89.267  0.00  0.00    +0.000 A 
ATOM     16  C   UNL     1      86.822  63.682  90.539  0.00  0.00    +0.000 A 
ATOM     17  C   UNL     1      85.900  62.804  91.114  0.00  0.00    +0.000 A 
ENDBRANCH   1  15
TORSDOF 2
ENDMDL
