MODEL 1
REMARK VINA RESULT:      -4.5      0.000      0.000
REMARK  Name = *****
REMARK  3 active torsions:
REMARK  status: ('A' for Active; 'I' for Inactive)
REMARK    1  A    between atoms: C_4  and  C_7
REMARK    2  A    between atoms: C_7  and  O_8
REMARK    3  A    between atoms: O_8  and  C_9
REMARK                            x       y       z     vdW  Elec       q    Type
REMARK                         _______ _______ _______ _____ _____    ______ ____
ROOT
ATOM      1  O   UNL     1     102.613 126.976  83.127  0.00  0.00    +0.000 OA
ENDROOT
BRANCH   1   2
ATOM      2  C   UNL     1     101.343 127.484  83.107  0.00  0.00    +0.000 A 
ATOM      3  C   UNL     1     100.963 128.765  83.505  0.00  0.00    +0.000 A 
ATOM      4  C   UNL     1      99.623 129.141  83.427  0.00  0.00    +0.000 A 
ATOM      5  C   UNL     1      98.651 128.269  82.961  0.00  0.00    +0.000 A 
ATOM      6  C   UNL     1      99.037 126.998  82.567  0.00  0.00    +0.000 A 
ATOM      7  C   UNL     1     100.369 126.599  82.637  0.00  0.00    +0.000 A 
ATOM      8  F   UNL     1      98.115 126.139  82.114  0.00  0.00    +0.000 F 
ATOM      9  F   UNL     1      99.267 130.374  83.813  0.00  0.00    +0.000 F 
ENDBRANCH   1   2
BRANCH   1  10
ATOM     10  C   UNL     1     102.765 125.615  83.537  0.00  0.00    +0.000 C 
BRANCH  10  14
ATOM     11  C   UNL     1     104.954 123.420  80.529  0.00  0.00    +0.000 A 
ATOM     12  C   UNL     1     104.902 122.944  81.838  0.00  0.00    +0.000 A 
ATOM     13  C   UNL     1     104.203 123.657  82.813  0.00  0.00    +0.000 A 
ATOM     14  C   UNL     1     103.556 124.860  82.493  0.00  0.00    +0.000 A 
ATOM     15  C   UNL     1     103.606 125.322  81.170  0.00  0.00    +0.000 A 
ATOM     16  C   UNL     1     104.306 124.607  80.195  0.00  0.00    +0.000 A 
ENDBRANCH  10  14
ENDBRANCH   1  10
TORSDOF 3
ENDMDL
