MODEL 1
REMARK VINA RESULT:      -4.4      0.000      0.000
REMARK  Name = *****
REMARK  3 active torsions:
REMARK  status: ('A' for Active; 'I' for Inactive)
REMARK    1  A    between atoms: C_5  and  S_7
REMARK    2  A    between atoms: S_7  and  S_8
REMARK    3  A    between atoms: S_8  and  C_11
REMARK                            x       y       z     vdW  Elec       q    Type
REMARK                         _______ _______ _______ _____ _____    ______ ____
ROOT
ATOM      1  S   UNL     1      87.887  70.892  85.226  0.00  0.00    +0.000 S 
ATOM      2  O   UNL     1      88.425  72.026  84.501  0.00  0.00    +0.000 OA
ATOM      3  O   UNL     1      87.514  69.668  84.543  0.00  0.00    +0.000 OA
ENDROOT
BRANCH   1   4
ATOM      4  C   UNL     1      86.459  71.459  86.120  0.00  0.00    +0.000 A 
ATOM      5  C   UNL     1      86.423  71.346  87.516  0.00  0.00    +0.000 A 
ATOM      6  C   UNL     1      85.309  71.812  88.215  0.00  0.00    +0.000 A 
ATOM      7  C   UNL     1      84.246  72.393  87.522  0.00  0.00    +0.000 A 
ATOM      8  C   UNL     1      84.306  72.510  86.135  0.00  0.00    +0.000 A 
ATOM      9  C   UNL     1      85.406  72.054  85.422  0.00  0.00    +0.000 A 
ATOM     10  F   UNL     1      83.285  73.074  85.479  0.00  0.00    +0.000 F 
ENDBRANCH   1   4
BRANCH   1  11
ATOM     11  S   UNL     1      89.225  70.401  86.760  0.00  0.00    +0.000 S 
BRANCH  11  16
ATOM     12  C   UNL     1      87.898  66.611  87.468  0.00  0.00    +0.000 A 
ATOM     13  C   UNL     1      88.903  65.832  86.901  0.00  0.00    +0.000 A 
ATOM     14  C   UNL     1      89.991  66.453  86.298  0.00  0.00    +0.000 A 
ATOM     15  C   UNL     1      90.091  67.839  86.247  0.00  0.00    +0.000 A 
ATOM     16  C   UNL     1      89.082  68.628  86.806  0.00  0.00    +0.000 A 
ATOM     17  C   UNL     1      87.990  68.005  87.426  0.00  0.00    +0.000 A 
ATOM     18  F   UNL     1      90.960  65.703  85.759  0.00  0.00    +0.000 F 
ENDBRANCH  11  16
ENDBRANCH   1  11
TORSDOF 3
ENDMDL
