MODEL 1
REMARK VINA RESULT:      -5.1      0.000      0.000
REMARK  Name = *****
REMARK  3 active torsions:
REMARK  status: ('A' for Active; 'I' for Inactive)
REMARK    1  A    between atoms: C_1  and  C_2
REMARK    2  A    between atoms: C_4  and  C_8
REMARK    3  A    between atoms: C_14  and  C_17
REMARK                            x       y       z     vdW  Elec       q    Type
REMARK                         _______ _______ _______ _____ _____    ______ ____
ROOT
ATOM      1  C   UNL     1     102.726 126.130  81.850  0.00  0.00    +0.000 A 
ATOM      2  N   UNL     1     103.365 126.276  80.701  0.00  0.00    +0.000 NA
ATOM      3  C   UNL     1     104.147 125.153  80.617  0.00  0.00    +0.000 A 
ATOM      4  C   UNL     1     103.952 124.359  81.733  0.00  0.00    +0.000 A 
ATOM      5  O   UNL     1     103.038 124.979  82.532  0.00  0.00    +0.000 OA
ATOM      6  C   UNL     1     104.591 123.146  81.966  0.00  0.00    +0.000 A 
ATOM      7  C   UNL     1     105.503 122.729  80.981  0.00  0.00    +0.000 A 
ATOM      8  C   UNL     1     105.713 123.506  79.827  0.00  0.00    +0.000 A 
ATOM      9  C   UNL     1     105.045 124.727  79.631  0.00  0.00    +0.000 A 
ATOM     10  C   UNL     1     106.214 121.413  81.133  0.00  0.00    +0.000 C 
ENDROOT
BRANCH   1  14
ATOM     11  C   UNL     1      97.957 127.182  82.893  0.00  0.00    +0.000 C 
ATOM     12  C   UNL     1      99.414 127.523  83.007  0.00  0.00    +0.000 A 
ATOM     13  C   UNL     1     100.382 126.701  82.412  0.00  0.00    +0.000 A 
ATOM     14  C   UNL     1     101.749 127.019  82.477  0.00  0.00    +0.000 A 
ATOM     15  C   UNL     1     102.131 128.190  83.146  0.00  0.00    +0.000 A 
ATOM     16  C   UNL     1     101.173 129.023  83.728  0.00  0.00    +0.000 A 
ATOM     17  C   UNL     1      99.821 128.693  83.654  0.00  0.00    +0.000 A 
ENDBRANCH   1  14
TORSDOF 1
ENDMDL
