MODEL 1
REMARK VINA RESULT:      -5.0      0.000      0.000
REMARK  Name = *****
REMARK  5 active torsions:
REMARK  status: ('A' for Active; 'I' for Inactive)
REMARK    1  A    between atoms: C_1  and  C_2
REMARK    2  A    between atoms: C_5  and  C_8
REMARK    3  A    between atoms: C_8  and  C_17
REMARK    4  A    between atoms: N_9  and  O_10
REMARK    5  A    between atoms: O_10  and  C_11
REMARK                            x       y       z     vdW  Elec       q    Type
REMARK                         _______ _______ _______ _____ _____    ______ ____
ROOT
ATOM      1  C   UNL     1      88.753  70.001  86.494  0.00  0.00    +0.000 C 
ATOM      2  N   UNL     1      88.898  68.778  86.914  0.00  0.00    +0.000 NA
ATOM      3  C   UNL     1      89.823  70.741  85.716  0.00  0.00    +0.000 C 
ENDROOT
BRANCH   1   8
ATOM      4  C   UNL     1      83.752  72.733  87.594  0.00  0.00    +0.000 C 
ATOM      5  C   UNL     1      85.061  72.054  87.319  0.00  0.00    +0.000 A 
ATOM      6  C   UNL     1      85.841  71.564  88.373  0.00  0.00    +0.000 A 
ATOM      7  C   UNL     1      87.044  70.899  88.118  0.00  0.00    +0.000 A 
ATOM      8  C   UNL     1      87.478  70.714  86.801  0.00  0.00    +0.000 A 
ATOM      9  C   UNL     1      86.687  71.178  85.744  0.00  0.00    +0.000 A 
ATOM     10  C   UNL     1      85.485  71.843  86.002  0.00  0.00    +0.000 A 
ENDBRANCH   1   8
BRANCH   2  11
ATOM     11  O   UNL     1      90.155  68.263  86.571  0.00  0.00    +0.000 OA
BRANCH  11  12
ATOM     12  C   UNL     1      90.097  66.912  86.313  0.00  0.00    +0.000 A 
ATOM     13  C   UNL     1      91.029  66.202  85.551  0.00  0.00    +0.000 A 
ATOM     14  C   UNL     1      90.868  64.828  85.350  0.00  0.00    +0.000 A 
ATOM     15  C   UNL     1      89.778  64.161  85.908  0.00  0.00    +0.000 A 
ATOM     16  C   UNL     1      88.846  64.866  86.666  0.00  0.00    +0.000 A 
ATOM     17  C   UNL     1      89.005  66.238  86.867  0.00  0.00    +0.000 A 
ENDBRANCH  11  12
ENDBRANCH   2  11
TORSDOF 3
ENDMDL
