MODEL 1
REMARK VINA RESULT:      -5.0      0.000      0.000
REMARK  Name = *****
REMARK  3 active torsions:
REMARK  status: ('A' for Active; 'I' for Inactive)
REMARK    1  A    between atoms: C_1  and  C_2
REMARK    2  A    between atoms: C_5  and  S_8
REMARK    3  A    between atoms: S_8  and  C_9
REMARK                            x       y       z     vdW  Elec       q    Type
REMARK                         _______ _______ _______ _____ _____    ______ ____
ROOT
ATOM      1  C   UNL     1      86.952  70.625  87.008  0.00  0.00    +0.000 C 
ATOM      2  C   UNL     1      86.535  71.336  88.312  0.00  0.00    +0.000 C 
ATOM      3  C   UNL     1      85.237  71.961  87.895  0.00  0.00    +0.000 A 
ATOM      4  C   UNL     1      84.233  72.463  88.705  0.00  0.00    +0.000 A 
ATOM      5  C   UNL     1      83.118  73.042  88.095  0.00  0.00    +0.000 A 
ATOM      6  C   UNL     1      83.029  73.122  86.695  0.00  0.00    +0.000 A 
ATOM      7  C   UNL     1      84.053  72.625  85.887  0.00  0.00    +0.000 A 
ATOM      8  C   UNL     1      85.148  72.041  86.501  0.00  0.00    +0.000 A 
ATOM      9  C   UNL     1      86.378  71.478  85.856  0.00  0.00    +0.000 C 
ENDROOT
BRANCH   1  10
ATOM     10  S   UNL     1      88.759  70.409  86.836  0.00  0.00    +0.000 S 
BRANCH  10  15
ATOM     11  C   UNL     1      89.071  64.320  86.875  0.00  0.00    +0.000 C 
ATOM     12  C   UNL     1      88.989  65.818  86.834  0.00  0.00    +0.000 A 
ATOM     13  C   UNL     1      90.043  66.572  86.306  0.00  0.00    +0.000 A 
ATOM     14  C   UNL     1      89.982  67.968  86.300  0.00  0.00    +0.000 A 
ATOM     15  C   UNL     1      88.869  68.629  86.824  0.00  0.00    +0.000 A 
ATOM     16  C   UNL     1      87.829  67.880  87.380  0.00  0.00    +0.000 A 
ATOM     17  C   UNL     1      87.889  66.483  87.388  0.00  0.00    +0.000 A 
ENDBRANCH  10  15
ENDBRANCH   1  10
TORSDOF 2
ENDMDL
