MODEL 1
REMARK VINA RESULT:      -4.2      0.000      0.000
REMARK  Name = *****
REMARK  5 active torsions:
REMARK  status: ('A' for Active; 'I' for Inactive)
REMARK    1  A    between atoms: C_1  and  C_2
REMARK    2  A    between atoms: C_2  and  C_4
REMARK    3  A    between atoms: C_9  and  S_10
REMARK    4  A    between atoms: S_10  and  C_11
REMARK    5  A    between atoms: C_11  and  C_13
REMARK                            x       y       z     vdW  Elec       q    Type
REMARK                         _______ _______ _______ _____ _____    ______ ____
ROOT
ATOM      1  C   UNL     1      88.167  71.324  84.255  0.00  0.00    +0.000 A 
ATOM      2  C   UNL     1      88.601  72.623  83.938  0.00  0.00    +0.000 A 
ATOM      3  C   UNL     1      89.943  72.865  83.649  0.00  0.00    +0.000 A 
ATOM      4  C   UNL     1      90.858  71.817  83.681  0.00  0.00    +0.000 A 
ATOM      5  C   UNL     1      90.432  70.525  83.999  0.00  0.00    +0.000 A 
ATOM      6  C   UNL     1      89.083  70.257  84.284  0.00  0.00    +0.000 A 
ENDROOT
BRANCH   1   8
ATOM      7  C   UNL     1      86.263  71.543  85.954  0.00  0.00    +0.000 C 
ATOM      8  C   UNL     1      86.730  71.139  84.580  0.00  0.00    +0.000 C 
ATOM      9  O   UNL     1      85.964  70.652  83.753  0.00  0.00    +0.000 OA
ENDBRANCH   1   8
BRANCH   6  10
ATOM     10  S   UNL     1      88.676  68.554  84.660  0.00  0.00    +0.000 S 
BRANCH  10  11
ATOM     11  C   UNL     1      89.362  68.371  86.272  0.00  0.00    +0.000 C 
ATOM     12  O   UNL     1      90.392  67.734  86.465  0.00  0.00    +0.000 OA
BRANCH  11  13
ATOM     13  C   UNL     1      88.685  69.076  87.393  0.00  0.00    +0.000 A 
ATOM     14  C   UNL     1      89.174  70.267  87.945  0.00  0.00    +0.000 A 
ATOM     15  C   UNL     1      88.487  70.889  88.990  0.00  0.00    +0.000 A 
ATOM     16  C   UNL     1      87.306  70.332  89.482  0.00  0.00    +0.000 A 
ATOM     17  C   UNL     1      86.804  69.157  88.925  0.00  0.00    +0.000 A 
ATOM     18  C   UNL     1      87.487  68.533  87.880  0.00  0.00    +0.000 A 
ENDBRANCH  11  13
ENDBRANCH  10  11
ENDBRANCH   6  10
TORSDOF 4
ENDMDL
