MODEL 1
REMARK VINA RESULT:      -4.0      0.000      0.000
REMARK  Name = *****
REMARK  4 active torsions:
REMARK  status: ('A' for Active; 'I' for Inactive)
REMARK    1  A    between atoms: C_4  and  C_7
REMARK    2  A    between atoms: C_7  and  S_8
REMARK    3  A    between atoms: S_8  and  C_9
REMARK    4  A    between atoms: C_10  and  C_11
REMARK                            x       y       z     vdW  Elec       q    Type
REMARK                         _______ _______ _______ _____ _____    ______ ____
ROOT
ATOM      1  S   UNL     1     104.065 127.711  82.759  0.00  0.00    +0.000 S 
ENDROOT
BRANCH   1   2
ATOM      2  C   UNL     1     103.520 127.857  81.123  0.00  0.00    +0.000 C 
ATOM      3  C   UNL     1     103.668 126.938  80.155  0.00  0.00    +0.000 C 
BRANCH   3   4
ATOM      4  C   UNL     1     104.319 125.661  80.186  0.00  0.00    +0.000 A 
ATOM      5  C   UNL     1     105.533 125.458  79.561  0.00  0.00    +0.000 A 
ATOM      6  S   UNL     1     106.115 123.860  79.761  0.00  0.00    +0.000 S 
ATOM      7  C   UNL     1     104.761 123.432  80.713  0.00  0.00    +0.000 A 
ATOM      8  C   UNL     1     103.886 124.486  80.870  0.00  0.00    +0.000 A 
ENDBRANCH   3   4
ENDBRANCH   1   2
BRANCH   1   9
ATOM      9  C   UNL     1     102.741 126.690  83.471  0.00  0.00    +0.000 C 
BRANCH   9  13
ATOM     10  C   UNL     1      98.852 128.477  82.936  0.00  0.00    +0.000 A 
ATOM     11  C   UNL     1      99.852 129.172  83.614  0.00  0.00    +0.000 A 
ATOM     12  C   UNL     1     101.111 128.596  83.788  0.00  0.00    +0.000 A 
ATOM     13  C   UNL     1     101.385 127.318  83.277  0.00  0.00    +0.000 A 
ATOM     14  C   UNL     1     100.367 126.624  82.605  0.00  0.00    +0.000 A 
ATOM     15  C   UNL     1      99.109 127.203  82.433  0.00  0.00    +0.000 A 
ENDBRANCH   9  13
ENDBRANCH   1   9
TORSDOF 4
ENDMDL
