REMARK  Name = *****
REMARK  2 active torsions:
REMARK  status: ('A' for Active; 'I' for Inactive)
REMARK    1  A    between atoms: C_1  and  C_2
REMARK    2  A    between atoms: C_9  and  C_11
REMARK                            x       y       z     vdW  Elec       q    Type
REMARK                         _______ _______ _______ _____ _____    ______ ____
ROOT
ATOM      1  C   UNL     1       1.022   0.052  -0.099  0.00  0.00    +0.000 C 
ATOM      2  C   UNL     1       2.524   0.017  -0.080  0.00  0.00    +0.000 A 
ATOM      3  C   UNL     1       3.206  -1.216  -0.087  0.00  0.00    +0.000 A 
ATOM      4  C   UNL     1       4.607  -1.205  -0.073  0.00  0.00    +0.000 A 
ATOM      5  C   UNL     1       5.269   0.010  -0.052  0.00  0.00    +0.000 A 
ATOM      6  C   UNL     1       4.646   1.251  -0.044  0.00  0.00    +0.000 A 
ATOM      7  C   UNL     1       3.245   1.225  -0.060  0.00  0.00    +0.000 A 
ATOM      8  O   UNL     1       6.609  -0.244  -0.043  0.00  0.00    +0.000 OA
ATOM      9  C   UNL     1       6.687  -1.614  -0.059  0.00  0.00    +0.000 A 
ATOM     10  N   UNL     1       5.518  -2.232  -0.076  0.00  0.00    +0.000 NA
ENDROOT
BRANCH   9  11
ATOM     11  C   UNL     1       8.028  -2.195  -0.056  0.00  0.00    +0.000 A 
ATOM     12  C   UNL     1       9.181  -1.396  -0.042  0.00  0.00    +0.000 A 
ATOM     13  C   UNL     1      10.442  -1.989  -0.042  0.00  0.00    +0.000 A 
ATOM     14  C   UNL     1      10.574  -3.371  -0.057  0.00  0.00    +0.000 A 
ATOM     15  C   UNL     1       9.446  -4.182  -0.071  0.00  0.00    +0.000 A 
ATOM     16  C   UNL     1       8.177  -3.594  -0.071  0.00  0.00    +0.000 A 
ATOM     17  F   UNL     1      11.790  -3.934  -0.058  0.00  0.00    +0.000 F 
ATOM     18  F   UNL     1      11.531  -1.209  -0.029  0.00  0.00    +0.000 F 
ENDBRANCH   9  11
TORSDOF 1
