MODEL 1
REMARK VINA RESULT:      -5.0      0.000      0.000
REMARK  Name = *****
REMARK  2 active torsions:
REMARK  status: ('A' for Active; 'I' for Inactive)
REMARK    1  A    between atoms: C_1  and  C_2
REMARK    2  A    between atoms: C_5  and  C_8
REMARK                            x       y       z     vdW  Elec       q    Type
REMARK                         _______ _______ _______ _____ _____    ______ ____
ROOT
ATOM      1  C   UNL     1     102.865 126.140  81.639  0.00  0.00    +0.000 A 
ATOM      2  N   UNL     1     103.583 126.432  80.568  0.00  0.00    +0.000 NA
ATOM      3  C   UNL     1     104.348 125.312  80.370  0.00  0.00    +0.000 A 
ATOM      4  C   UNL     1     104.058 124.366  81.340  0.00  0.00    +0.000 A 
ATOM      5  O   UNL     1     103.104 124.892  82.161  0.00  0.00    +0.000 OA
ATOM      6  C   UNL     1     104.651 123.115  81.433  0.00  0.00    +0.000 A 
ATOM      7  C   UNL     1     105.606 122.842  80.453  0.00  0.00    +0.000 A 
ATOM      8  C   UNL     1     105.937 123.760  79.453  0.00  0.00    +0.000 A 
ATOM      9  C   UNL     1     105.311 125.015  79.396  0.00  0.00    +0.000 A 
ATOM     10  F   UNL     1     106.228 121.656  80.471  0.00  0.00    +0.000 F 
ENDROOT
BRANCH   1  15
ATOM     11  C   UNL     1      98.997 129.424  84.425  0.00  0.00    +0.000 C 
ATOM     12  C   UNL     1      99.998 128.582  83.691  0.00  0.00    +0.000 A 
ATOM     13  C   UNL     1     101.355 128.919  83.685  0.00  0.00    +0.000 A 
ATOM     14  C   UNL     1     102.280 128.117  83.010  0.00  0.00    +0.000 A 
ATOM     15  C   UNL     1     101.872 126.961  82.330  0.00  0.00    +0.000 A 
ATOM     16  C   UNL     1     100.510 126.627  82.341  0.00  0.00    +0.000 A 
ATOM     17  C   UNL     1      99.583 127.429  83.016  0.00  0.00    +0.000 A 
ENDBRANCH   1  15
TORSDOF 1
ENDMDL
