MODEL 1
REMARK VINA RESULT:      -4.7      0.000      0.000
REMARK  Name = *****
REMARK  4 active torsions:
REMARK  status: ('A' for Active; 'I' for Inactive)
REMARK    1  A    between atoms: C_1  and  C_2
REMARK    2  A    between atoms: C_7  and  N_8
REMARK    3  A    between atoms: C_9  and  C_10
REMARK    4  A    between atoms: C_15  and  C_16
REMARK                            x       y       z     vdW  Elec       q    Type
REMARK                         _______ _______ _______ _____ _____    ______ ____
ROOT
ATOM      1  C   UNL     1     101.265 127.112  82.523  0.00  0.00    +0.000 A 
ATOM      2  C   UNL     1      99.925 126.719  82.389  0.00  0.00    +0.000 A 
ATOM      3  C   UNL     1      98.900 127.502  82.916  0.00  0.00    +0.000 A 
ATOM      4  C   UNL     1      99.204 128.686  83.582  0.00  0.00    +0.000 A 
ATOM      5  C   UNL     1     100.534 129.085  83.719  0.00  0.00    +0.000 A 
ATOM      6  C   UNL     1     101.584 128.307  83.192  0.00  0.00    +0.000 A 
ENDROOT
BRANCH   6   7
ATOM      7  C   UNL     1     103.006 128.771  83.354  0.00  0.00    +0.000 C 
ATOM      8  F   UNL     1     103.678 128.823  82.172  0.00  0.00    +0.000 F 
ATOM      9  F   UNL     1     103.116 130.018  83.894  0.00  0.00    +0.000 F 
ATOM     10  F   UNL     1     103.733 127.956  84.166  0.00  0.00    +0.000 F 
ENDBRANCH   6   7
BRANCH   1  12
ATOM     11  N   UNL     1     102.798 125.229  82.598  0.00  0.00    +0.000 NA
ATOM     12  C   UNL     1     102.318 126.241  81.944  0.00  0.00    +0.000 C 
BRANCH  11  19
ATOM     13  C   UNL     1     104.299 123.209  84.057  0.00  0.00    +0.000 C 
ATOM     14  C   UNL     1     104.542 123.506  82.605  0.00  0.00    +0.000 A 
ATOM     15  C   UNL     1     105.516 122.785  81.897  0.00  0.00    +0.000 A 
ATOM     16  C   UNL     1     105.757 123.052  80.547  0.00  0.00    +0.000 A 
ATOM     17  C   UNL     1     105.028 124.040  79.893  0.00  0.00    +0.000 A 
ATOM     18  C   UNL     1     104.051 124.755  80.585  0.00  0.00    +0.000 A 
ATOM     19  C   UNL     1     103.788 124.486  81.934  0.00  0.00    +0.000 A 
ENDBRANCH  11  19
ENDBRANCH   1  12
TORSDOF 3
ENDMDL
