MODEL 1
REMARK VINA RESULT:      -4.1      0.000      0.000
REMARK  Name = *****
REMARK  6 active torsions:
REMARK  status: ('A' for Active; 'I' for Inactive)
REMARK    1  A    between atoms: C_1  and  O_2
REMARK    2  A    between atoms: O_2  and  C_3
REMARK    3  A    between atoms: C_3  and  C_5
REMARK    4  A    between atoms: C_6  and  S_10
REMARK    5  A    between atoms: S_10  and  C_11
REMARK    6  A    between atoms: C_11  and  C_12
REMARK                            x       y       z     vdW  Elec       q    Type
REMARK                         _______ _______ _______ _____ _____    ______ ____
ROOT
ATOM      1  C   UNL     1      89.650  66.041  86.073  0.00  0.00    +0.000 C 
ATOM      2  C   UNL     1      89.140  67.213  86.484  0.00  0.00    +0.000 C 
ATOM      3  C   UNL     1      87.970  67.074  87.425  0.00  0.00    +0.000 C 
ATOM      4  C   UNL     1      87.430  65.652  87.296  0.00  0.00    +0.000 C 
ATOM      5  S   UNL     1      88.837  64.649  86.736  0.00  0.00    +0.000 S 
ENDROOT
BRANCH   1   6
ATOM      6  C   UNL     1      90.807  65.843  85.165  0.00  0.00    +0.000 C 
ATOM      7  O   UNL     1      91.943  65.589  85.537  0.00  0.00    +0.000 OA
BRANCH   6   9
ATOM      8  C   UNL     1      90.333  64.768  83.145  0.00  0.00    +0.000 C 
ATOM      9  O   UNL     1      90.410  65.992  83.872  0.00  0.00    +0.000 OA
ENDBRANCH   6   9
ENDBRANCH   1   6
BRANCH   2  10
ATOM     10  S   UNL     1      89.662  68.774  85.951  0.00  0.00    +0.000 S 
BRANCH  10  11
ATOM     11  C   UNL     1      89.250  69.793  87.399  0.00  0.00    +0.000 C 
BRANCH  11  12
ATOM     12  C   UNL     1      87.944  70.524  87.220  0.00  0.00    +0.000 A 
ATOM     13  C   UNL     1      87.489  70.873  85.940  0.00  0.00    +0.000 A 
ATOM     14  C   UNL     1      86.278  71.549  85.777  0.00  0.00    +0.000 A 
ATOM     15  C   UNL     1      85.512  71.885  86.891  0.00  0.00    +0.000 A 
ATOM     16  C   UNL     1      85.958  71.553  88.169  0.00  0.00    +0.000 A 
ATOM     17  C   UNL     1      87.170  70.879  88.334  0.00  0.00    +0.000 A 
ENDBRANCH  11  12
ENDBRANCH  10  11
ENDBRANCH   2  10
TORSDOF 5
ENDMDL
