REMARK  Name = *****
REMARK  4 active torsions:
REMARK  status: ('A' for Active; 'I' for Inactive)
REMARK    1  A    between atoms: C_1  and  C_2
REMARK    2  A    between atoms: C_7  and  O_8
REMARK    3  A    between atoms: O_8  and  C_9
REMARK    4  A    between atoms: C_9  and  C_11
REMARK                            x       y       z     vdW  Elec       q    Type
REMARK                         _______ _______ _______ _____ _____    ______ ____
ROOT
ATOM      1  O   UNL     1       0.304  -1.268  -1.675  0.00  0.00    +0.000 OA
ENDROOT
BRANCH   1   8
ATOM      2  C   UNL     1       2.473  -0.001  -0.221  0.00  0.00    +0.000 C 
ATOM      3  C   UNL     1       1.020   0.010   0.258  0.00  0.00    +0.000 C 
ATOM      4  C   UNL     1       0.327   1.307  -0.188  0.00  0.00    +0.000 C 
ATOM      5  C   UNL     1      -1.134   1.344   0.255  0.00  0.00    +0.000 C 
ATOM      6  C   UNL     1      -1.901   0.112  -0.214  0.00  0.00    +0.000 C 
ATOM      7  C   UNL     1      -1.212  -1.180   0.223  0.00  0.00    +0.000 C 
ATOM      8  C   UNL     1       0.252  -1.235  -0.234  0.00  0.00    +0.000 C 
ENDBRANCH   1   8
BRANCH   1   9
ATOM      9  C   UNL     1       0.160  -2.484  -2.256  0.00  0.00    +0.000 C 
ATOM     10  O   UNL     1      -0.003  -3.544  -1.673  0.00  0.00    +0.000 OA
BRANCH   9  11
ATOM     11  C   UNL     1       0.221  -2.360  -3.738  0.00  0.00    +0.000 A 
ATOM     12  C   UNL     1       0.070  -3.523  -4.506  0.00  0.00    +0.000 A 
ATOM     13  C   UNL     1       0.116  -3.458  -5.900  0.00  0.00    +0.000 A 
ATOM     14  C   UNL     1       0.314  -2.232  -6.534  0.00  0.00    +0.000 A 
ATOM     15  C   UNL     1       0.466  -1.070  -5.778  0.00  0.00    +0.000 A 
ATOM     16  C   UNL     1       0.420  -1.131  -4.383  0.00  0.00    +0.000 A 
ENDBRANCH   9  11
ENDBRANCH   1   9
TORSDOF 3
