REMARK  Name = *****
REMARK  4 active torsions:
REMARK  status: ('A' for Active; 'I' for Inactive)
REMARK    1  A    between atoms: C_1  and  C_2
REMARK    2  A    between atoms: C_3  and  O_9
REMARK    3  A    between atoms: O_9  and  C_10
REMARK    4  A    between atoms: C_10  and  C_12
REMARK                            x       y       z     vdW  Elec       q    Type
REMARK                         _______ _______ _______ _____ _____    ______ ____
ROOT
ATOM      1  O   UNL     1      -3.408  -1.074  -0.562  0.00  0.00    +0.000 OA
ENDROOT
BRANCH   1   4
ATOM      2  C   UNL     1      -2.706   1.559   0.331  0.00  0.00    +0.000 C 
ATOM      3  C   UNL     1      -1.678   0.515   0.010  0.00  0.00    +0.000 A 
ATOM      4  C   UNL     1      -2.051  -0.775  -0.391  0.00  0.00    +0.000 A 
ATOM      5  C   UNL     1      -1.101  -1.750  -0.706  0.00  0.00    +0.000 A 
ATOM      6  C   UNL     1       0.254  -1.449  -0.583  0.00  0.00    +0.000 A 
ATOM      7  C   UNL     1       0.643  -0.178  -0.161  0.00  0.00    +0.000 A 
ATOM      8  C   UNL     1      -0.312   0.800   0.134  0.00  0.00    +0.000 A 
ATOM      9 CL   UNL     1       2.317   0.194  -0.009  0.00  0.00    +0.000 Cl
ENDBRANCH   1   4
BRANCH   1  10
ATOM     10  C   UNL     1      -3.946  -1.811   0.475  0.00  0.00    +0.000 C 
ATOM     11  O   UNL     1      -3.371  -2.213   1.475  0.00  0.00    +0.000 OA
BRANCH  10  12
ATOM     12  C   UNL     1      -5.389  -2.069   0.211  0.00  0.00    +0.000 A 
ATOM     13  C   UNL     1      -6.093  -2.850   1.136  0.00  0.00    +0.000 A 
ATOM     14  C   UNL     1      -7.442  -3.114   0.926  0.00  0.00    +0.000 A 
ATOM     15  C   UNL     1      -8.108  -2.613  -0.186  0.00  0.00    +0.000 A 
ATOM     16  C   UNL     1      -7.415  -1.834  -1.111  0.00  0.00    +0.000 A 
ATOM     17  C   UNL     1      -6.058  -1.561  -0.914  0.00  0.00    +0.000 A 
ATOM     18  F   UNL     1      -8.112  -3.862   1.812  0.00  0.00    +0.000 F 
ENDBRANCH  10  12
ENDBRANCH   1  10
TORSDOF 3
