MODEL 1
REMARK VINA RESULT:      -4.7      0.000      0.000
REMARK  Name = *****
REMARK  5 active torsions:
REMARK  status: ('A' for Active; 'I' for Inactive)
REMARK    1  A    between atoms: C_2  and  C_3
REMARK    2  A    between atoms: C_3  and  C_4
REMARK    3  A    between atoms: C_4  and  C_5
REMARK    4  A    between atoms: C_4  and  C_12
REMARK    5  A    between atoms: C_5  and  C_6
REMARK                            x       y       z     vdW  Elec       q    Type
REMARK                         _______ _______ _______ _____ _____    ______ ____
ROOT
ATOM      1  C   UNL     1      88.007  70.648  85.622  0.00  0.00    +0.000 C 
ENDROOT
BRANCH   1   2
ATOM      2  C   UNL     1      86.712  71.264  86.144  0.00  0.00    +0.000 A 
ATOM      3  C   UNL     1      86.483  71.309  87.530  0.00  0.00    +0.000 A 
ATOM      4  C   UNL     1      85.316  71.878  88.045  0.00  0.00    +0.000 A 
ATOM      5  C   UNL     1      84.365  72.417  87.184  0.00  0.00    +0.000 A 
ATOM      6  C   UNL     1      84.580  72.389  85.809  0.00  0.00    +0.000 A 
ATOM      7  C   UNL     1      85.745  71.818  85.292  0.00  0.00    +0.000 A 
ENDBRANCH   1   2
BRANCH   1   8
ATOM      8  C   UNL     1      88.791  71.591  84.675  0.00  0.00    +0.000 C 
BRANCH   8  10
ATOM      9  C   UNL     1      90.657  70.398  83.485  0.00  0.00    +0.000 C 
ATOM     10  C   UNL     1      90.230  71.185  84.482  0.00  0.00    +0.000 C 
ENDBRANCH   8  10
ENDBRANCH   1   8
BRANCH   1  11
ATOM     11  C   UNL     1      88.859  70.030  86.764  0.00  0.00    +0.000 C 
BRANCH  11  12
ATOM     12  C   UNL     1      88.932  68.521  86.820  0.00  0.00    +0.000 A 
ATOM     13  C   UNL     1      87.908  67.782  87.428  0.00  0.00    +0.000 A 
ATOM     14  C   UNL     1      87.972  66.389  87.486  0.00  0.00    +0.000 A 
ATOM     15  C   UNL     1      89.058  65.717  86.930  0.00  0.00    +0.000 A 
ATOM     16  C   UNL     1      90.079  66.438  86.315  0.00  0.00    +0.000 A 
ATOM     17  C   UNL     1      90.015  67.832  86.258  0.00  0.00    +0.000 A 
ENDBRANCH  11  12
ENDBRANCH   1  11
TORSDOF 5
ENDMDL
