MODEL 1
REMARK VINA RESULT:      -4.2      0.000      0.000
REMARK  Name = *****
REMARK  3 active torsions:
REMARK  status: ('A' for Active; 'I' for Inactive)
REMARK    1  A    between atoms: C_3  and  O_6
REMARK    2  A    between atoms: O_6  and  C_7
REMARK    3  A    between atoms: C_7  and  C_9
REMARK                            x       y       z     vdW  Elec       q    Type
REMARK                         _______ _______ _______ _____ _____    ______ ____
ROOT
ATOM      1  C   UNL     1     103.415 127.200  83.149  0.00  0.00    +0.000 C 
ATOM      2  O   UNL     1     104.147 128.165  83.278  0.00  0.00    +0.000 OA
ENDROOT
BRANCH   1   3
ATOM      3  C   UNL     1     103.783 125.956  82.444  0.00  0.00    +0.000 A 
ATOM      4  C   UNL     1     103.837 125.898  81.048  0.00  0.00    +0.000 A 
ATOM      5  C   UNL     1     104.158 124.693  80.414  0.00  0.00    +0.000 A 
ATOM      6  C   UNL     1     104.422 123.556  81.176  0.00  0.00    +0.000 A 
ATOM      7  C   UNL     1     104.373 123.606  82.568  0.00  0.00    +0.000 A 
ATOM      8  C   UNL     1     104.051 124.806  83.205  0.00  0.00    +0.000 A 
ATOM      9 CL   UNL     1     104.818 122.076  80.392  0.00  0.00    +0.000 Cl
ATOM     10 CL   UNL     1     103.575 127.279  80.043  0.00  0.00    +0.000 Cl
ENDBRANCH   1   3
BRANCH   1  11
ATOM     11  O   UNL     1     102.149 127.068  83.611  0.00  0.00    +0.000 OA
BRANCH  11  14
ATOM     12  C   UNL     1      98.845 128.417  83.126  0.00  0.00    +0.000 C 
ATOM     13  C   UNL     1     100.280 128.652  83.599  0.00  0.00    +0.000 C 
ATOM     14  C   UNL     1     101.157 127.686  82.793  0.00  0.00    +0.000 C 
ATOM     15  C   UNL     1     100.172 126.643  82.368  0.00  0.00    +0.000 C 
ATOM     16  C   UNL     1      98.909 127.044  82.545  0.00  0.00    +0.000 C 
ENDBRANCH  11  14
ENDBRANCH   1  11
TORSDOF 3
ENDMDL
