MODEL 1
REMARK VINA RESULT:      -5.1      0.000      0.000
REMARK  Name = *****
REMARK  3 active torsions:
REMARK  status: ('A' for Active; 'I' for Inactive)
REMARK    1  A    between atoms: C_1  and  C_2
REMARK    2  A    between atoms: C_10  and  C_12
REMARK    3  A    between atoms: C_15  and  C_18
REMARK                            x       y       z     vdW  Elec       q    Type
REMARK                         _______ _______ _______ _____ _____    ______ ____
ROOT
ATOM      1  C   UNL     1     103.119 128.079  85.005  0.00  0.00    +0.000 C 
ATOM      2  C   UNL     1     102.776 128.135  83.519  0.00  0.00    +0.000 C 
ATOM      3  C   UNL     1     101.294 128.159  83.284  0.00  0.00    +0.000 A 
ATOM      4  C   UNL     1     100.507 129.268  83.632  0.00  0.00    +0.000 A 
ATOM      5  C   UNL     1      99.129 129.247  83.416  0.00  0.00    +0.000 A 
ATOM      6  C   UNL     1      98.533 128.122  82.850  0.00  0.00    +0.000 A 
ATOM      7  C   UNL     1      99.319 127.023  82.499  0.00  0.00    +0.000 A 
ATOM      8  C   UNL     1     100.699 127.038  82.713  0.00  0.00    +0.000 A 
ATOM      9  N   UNL     1     101.449 125.921  82.347  0.00  0.00    +0.000 NA
ATOM     10  C   UNL     1     102.736 125.978  82.439  0.00  0.00    +0.000 C 
ATOM     11  O   UNL     1     103.455 127.033  82.882  0.00  0.00    +0.000 OA
ENDROOT
BRANCH  10  12
ATOM     12  C   UNL     1     103.624 124.858  82.033  0.00  0.00    +0.000 A 
ATOM     13  C   UNL     1     104.091 123.973  83.013  0.00  0.00    +0.000 A 
ATOM     14  C   UNL     1     104.938 122.916  82.671  0.00  0.00    +0.000 A 
ATOM     15  C   UNL     1     105.335 122.729  81.343  0.00  0.00    +0.000 A 
ATOM     16  C   UNL     1     104.870 123.613  80.362  0.00  0.00    +0.000 A 
ATOM     17  C   UNL     1     104.020 124.670  80.703  0.00  0.00    +0.000 A 
ATOM     18  C   UNL     1     106.248 121.601  80.961  0.00  0.00    +0.000 C 
ENDBRANCH  10  12
TORSDOF 1
ENDMDL
