MODEL 1
REMARK VINA RESULT:      -4.2      0.000      0.000
REMARK  Name = *****
REMARK  3 active torsions:
REMARK  status: ('A' for Active; 'I' for Inactive)
REMARK    1  A    between atoms: C_3  and  C_6
REMARK    2  A    between atoms: C_6  and  C_7
REMARK    3  A    between atoms: C_7  and  C_8
REMARK                            x       y       z     vdW  Elec       q    Type
REMARK                         _______ _______ _______ _____ _____    ______ ____
ROOT
ATOM      1  C   UNL     1      87.372  70.847  88.244  0.00  0.00    +0.000 C 
ENDROOT
BRANCH   1   2
ATOM      2  C   UNL     1      86.230  71.456  87.467  0.00  0.00    +0.000 A 
ATOM      3  C   UNL     1      85.107  71.966  88.133  0.00  0.00    +0.000 A 
ATOM      4  C   UNL     1      84.045  72.513  87.411  0.00  0.00    +0.000 A 
ATOM      5  C   UNL     1      84.093  72.550  86.019  0.00  0.00    +0.000 A 
ATOM      6  C   UNL     1      85.201  72.039  85.346  0.00  0.00    +0.000 A 
ATOM      7  C   UNL     1      86.265  71.492  86.066  0.00  0.00    +0.000 A 
ENDBRANCH   1   2
BRANCH   1   8
ATOM      8  C   UNL     1      87.840  69.530  87.618  0.00  0.00    +0.000 C 
BRANCH   8  11
ATOM      9  C   UNL     1      89.755  69.072  84.888  0.00  0.00    +0.000 C 
ATOM     10  C   UNL     1      89.700  68.424  86.272  0.00  0.00    +0.000 C 
ATOM     11  C   UNL     1      89.333  69.545  87.261  0.00  0.00    +0.000 C 
ATOM     12  C   UNL     1      89.748  70.771  86.502  0.00  0.00    +0.000 C 
ATOM     13  C   UNL     1      89.976  70.512  85.211  0.00  0.00    +0.000 C 
ENDBRANCH   8  11
ENDBRANCH   1   8
TORSDOF 3
ENDMDL
