MODEL 1
REMARK VINA RESULT:      -3.8      0.000      0.000
REMARK  Name = *****
REMARK  3 active torsions:
REMARK  status: ('A' for Active; 'I' for Inactive)
REMARK    1  A    between atoms: C_4  and  S_6
REMARK    2  A    between atoms: S_6  and  C_7
REMARK    3  A    between atoms: C_7  and  C_8
REMARK                            x       y       z     vdW  Elec       q    Type
REMARK                         _______ _______ _______ _____ _____    ______ ____
ROOT
ATOM      1  C   UNL     1     101.413 127.754  83.073  0.00  0.00    +0.000 A 
ATOM      2  C   UNL     1     100.410 126.960  82.501  0.00  0.00    +0.000 A 
ATOM      3  C   UNL     1      99.069 127.338  82.521  0.00  0.00    +0.000 A 
ATOM      4  C   UNL     1      98.700 128.538  83.119  0.00  0.00    +0.000 A 
ATOM      5  C   UNL     1      99.678 129.350  83.691  0.00  0.00    +0.000 A 
ATOM      6  C   UNL     1     101.025 128.964  83.666  0.00  0.00    +0.000 A 
ATOM      7 CL   UNL     1     102.170 130.032  84.397  0.00  0.00    +0.000 Cl
ATOM      8  F   UNL     1     100.732 125.797  81.916  0.00  0.00    +0.000 F 
ENDROOT
BRANCH   1   9
ATOM      9  C   UNL     1     102.845 127.292  82.996  0.00  0.00    +0.000 C 
BRANCH   9  10
ATOM     10  S   UNL     1     103.646 127.861  81.470  0.00  0.00    +0.000 S 
BRANCH  10  14
ATOM     11  C   UNL     1     104.495 124.175  80.374  0.00  0.00    +0.000 C 
ATOM     12  C   UNL     1     105.549 124.765  79.452  0.00  0.00    +0.000 C 
ATOM     13  S   UNL     1     105.880 126.364  80.209  0.00  0.00    +0.000 S 
ATOM     14  C   UNL     1     104.277 126.360  80.886  0.00  0.00    +0.000 C 
ATOM     15  N   UNL     1     103.622 125.248  80.897  0.00  0.00    +0.000 NA
ENDBRANCH  10  14
ENDBRANCH   9  10
ENDBRANCH   1   9
TORSDOF 3
ENDMDL
