MODEL 1
REMARK VINA RESULT:      -3.7      0.000      0.000
REMARK  Name = *****
REMARK  2 active torsions:
REMARK  status: ('A' for Active; 'I' for Inactive)
REMARK    1  A    between atoms: C_5  and  C_6
REMARK    2  A    between atoms: C_7  and  C_8
REMARK                            x       y       z     vdW  Elec       q    Type
REMARK                         _______ _______ _______ _____ _____    ______ ____
ROOT
ATOM      1  C   UNL     1     102.868 125.617  81.477  0.00  0.00    +0.000 C 
ATOM      2  C   UNL     1     101.974 126.253  81.964  0.00  0.00    +0.000 C 
ENDROOT
BRANCH   1   7
ATOM      3  C   UNL     1     104.730 125.287  79.796  0.00  0.00    +0.000 A 
ATOM      4  C   UNL     1     105.683 124.351  79.455  0.00  0.00    +0.000 A 
ATOM      5  S   UNL     1     105.613 122.967  80.460  0.00  0.00    +0.000 S 
ATOM      6  C   UNL     1     104.307 123.619  81.357  0.00  0.00    +0.000 A 
ATOM      7  C   UNL     1     103.933 124.862  80.897  0.00  0.00    +0.000 A 
ENDBRANCH   1   7
BRANCH   2   8
ATOM      8  C   UNL     1     100.911 127.015  82.542  0.00  0.00    +0.000 A 
ATOM      9  C   UNL     1     101.125 128.113  83.345  0.00  0.00    +0.000 A 
ATOM     10  S   UNL     1      99.656 128.812  83.881  0.00  0.00    +0.000 S 
ATOM     11  C   UNL     1      98.730 127.645  83.038  0.00  0.00    +0.000 A 
ATOM     12  C   UNL     1      99.524 126.743  82.364  0.00  0.00    +0.000 A 
ENDBRANCH   2   8
TORSDOF 2
ENDMDL
