REMARK  Name = *****
REMARK  5 active torsions:
REMARK  status: ('A' for Active; 'I' for Inactive)
REMARK    1  A    between atoms: C_1  and  C_2
REMARK    2  A    between atoms: C_5  and  O_8
REMARK    3  A    between atoms: O_8  and  C_9
REMARK    4  A    between atoms: C_9  and  N_11
REMARK    5  A    between atoms: N_11  and  C_12
REMARK                            x       y       z     vdW  Elec       q    Type
REMARK                         _______ _______ _______ _____ _____    ______ ____
ROOT
ATOM      1  C   UNL     1      -3.702   0.935   0.076  0.00  0.00    +0.000 C 
ATOM      2  S   UNL     1      -3.416   1.643   1.561  0.00  0.00    +0.000 S 
ENDROOT
BRANCH   1   3
ATOM      3  N   UNL     1      -4.981   0.895  -0.420  0.00  0.00    +0.000 N 
ATOM      4  H   UNL     1      -5.655   1.300   0.171  0.00  0.00    +0.000 HD
BRANCH   3   5
ATOM      5  C   UNL     1      -5.504   0.377  -1.623  0.00  0.00    +0.000 A 
ATOM      6  C   UNL     1      -6.898   0.437  -1.773  0.00  0.00    +0.000 A 
ATOM      7  C   UNL     1      -7.520  -0.053  -2.925  0.00  0.00    +0.000 A 
ATOM      8  C   UNL     1      -6.754  -0.605  -3.945  0.00  0.00    +0.000 A 
ATOM      9  C   UNL     1      -5.370  -0.663  -3.813  0.00  0.00    +0.000 A 
ATOM     10  C   UNL     1      -4.747  -0.173  -2.658  0.00  0.00    +0.000 A 
ENDBRANCH   3   5
ENDBRANCH   1   3
BRANCH   1  11
ATOM     11  O   UNL     1      -2.709   0.337  -0.694  0.00  0.00    +0.000 OA
BRANCH  11  16
ATOM     12  C   UNL     1       2.866   0.157   0.425  0.00  0.00    +0.000 C 
ATOM     13  C   UNL     1       1.397   0.201   0.125  0.00  0.00    +0.000 A 
ATOM     14  C   UNL     1       0.577  -0.900   0.414  0.00  0.00    +0.000 A 
ATOM     15  C   UNL     1      -0.792  -0.848   0.156  0.00  0.00    +0.000 A 
ATOM     16  C   UNL     1      -1.335   0.320  -0.369  0.00  0.00    +0.000 A 
ATOM     17  C   UNL     1      -0.545   1.425  -0.670  0.00  0.00    +0.000 A 
ATOM     18  C   UNL     1       0.823   1.367  -0.408  0.00  0.00    +0.000 A 
ENDBRANCH  11  16
ENDBRANCH   1  11
TORSDOF 4
