MODEL 1
REMARK VINA RESULT:      -4.4      0.000      0.000
REMARK  Name = *****
REMARK  4 active torsions:
REMARK  status: ('A' for Active; 'I' for Inactive)
REMARK    1  A    between atoms: C_1  and  C_2
REMARK    2  A    between atoms: C_2  and  C_3
REMARK    3  A    between atoms: C_2  and  S_9
REMARK    4  A    between atoms: S_9  and  C_10
REMARK                            x       y       z     vdW  Elec       q    Type
REMARK                         _______ _______ _______ _____ _____    ______ ____
ROOT
ATOM      1  C   UNL     1      88.440  71.139  89.424  0.00  0.00    +0.000 C 
ATOM      2  C   UNL     1      87.838  70.406  88.223  0.00  0.00    +0.000 C 
ENDROOT
BRANCH   2   3
ATOM      3  C   UNL     1      86.631  71.135  87.653  0.00  0.00    +0.000 A 
ATOM      4  C   UNL     1      86.469  71.338  86.272  0.00  0.00    +0.000 A 
ATOM      5  C   UNL     1      85.350  72.012  85.775  0.00  0.00    +0.000 A 
ATOM      6  C   UNL     1      84.377  72.490  86.649  0.00  0.00    +0.000 A 
ATOM      7  C   UNL     1      84.519  72.291  88.020  0.00  0.00    +0.000 A 
ATOM      8  C   UNL     1      85.635  71.617  88.519  0.00  0.00    +0.000 A 
ENDBRANCH   2   3
BRANCH   2   9
ATOM      9  S   UNL     1      89.106  70.152  86.906  0.00  0.00    +0.000 S 
BRANCH   9  10
ATOM     10  C   UNL     1      89.103  68.374  86.787  0.00  0.00    +0.000 A 
ATOM     11  C   UNL     1      88.057  67.613  87.316  0.00  0.00    +0.000 A 
ATOM     12  C   UNL     1      88.071  66.221  87.204  0.00  0.00    +0.000 A 
ATOM     13  C   UNL     1      89.127  65.585  86.554  0.00  0.00    +0.000 A 
ATOM     14  C   UNL     1      90.166  66.338  86.011  0.00  0.00    +0.000 A 
ATOM     15  C   UNL     1      90.152  67.730  86.123  0.00  0.00    +0.000 A 
ENDBRANCH   9  10
ENDBRANCH   2   9
TORSDOF 3
ENDMDL
