REMARK  Name = *****
REMARK  5 active torsions:
REMARK  status: ('A' for Active; 'I' for Inactive)
REMARK    1  A    between atoms: C_1  and  N_2
REMARK    2  A    between atoms: N_2  and  C_3
REMARK    3  A    between atoms: N_2  and  C_4
REMARK    4  A    between atoms: C_7  and  C_10
REMARK    5  A    between atoms: C_11  and  C_12
REMARK                            x       y       z     vdW  Elec       q    Type
REMARK                         _______ _______ _______ _____ _____    ______ ____
ROOT
ATOM      1  C   UNL     1       4.658  -3.658  -3.852  0.00  0.00    +0.000 C 
ATOM      2  C   UNL     1       5.004  -4.519  -4.614  0.00  0.00    +0.000 C 
ENDROOT
BRANCH   2   3
ATOM      3  C   UNL     1       5.361  -5.560  -5.527  0.00  0.00    +0.000 A 
ATOM      4  C   UNL     1       5.642  -5.271  -6.866  0.00  0.00    +0.000 A 
ATOM      5  C   UNL     1       5.958  -6.284  -7.765  0.00  0.00    +0.000 A 
ATOM      6  C   UNL     1       5.992  -7.596  -7.314  0.00  0.00    +0.000 A 
ATOM      7  C   UNL     1       5.719  -7.908  -5.985  0.00  0.00    +0.000 A 
ATOM      8  C   UNL     1       5.402  -6.887  -5.086  0.00  0.00    +0.000 A 
ATOM      9  F   UNL     1       6.288  -8.581  -8.172  0.00  0.00    +0.000 F 
ATOM     10  F   UNL     1       5.602  -4.006  -7.312  0.00  0.00    +0.000 F 
ENDBRANCH   2   3
BRANCH   1  14
ATOM     11  C   UNL     1       3.138  -0.714  -1.144  0.00  0.00    +0.000 A 
ATOM     12  C   UNL     1       2.664  -0.832  -2.464  0.00  0.00    +0.000 A 
ATOM     13  C   UNL     1       3.169  -1.786  -3.357  0.00  0.00    +0.000 A 
ATOM     14  C   UNL     1       4.181  -2.651  -2.956  0.00  0.00    +0.000 A 
ATOM     15  C   UNL     1       4.701  -2.538  -1.671  0.00  0.00    +0.000 A 
ATOM     16  C   UNL     1       4.189  -1.577  -0.786  0.00  0.00    +0.000 A 
BRANCH  11  18
ATOM     17  C   UNL     1       1.180   0.547  -0.405  0.00  0.00    +0.000 C 
ATOM     18  N   UNL     1       2.606   0.240  -0.265  0.00  0.00    +0.000 N 
ATOM     19  C   UNL     1       3.130   0.326   1.096  0.00  0.00    +0.000 C 
ENDBRANCH  11  18
ENDBRANCH   1  14
TORSDOF 3
