MODEL 1
REMARK VINA RESULT:      -4.8      0.000      0.000
REMARK  Name = *****
REMARK  5 active torsions:
REMARK  status: ('A' for Active; 'I' for Inactive)
REMARK    1  A    between atoms: C_4  and  C_7
REMARK    2  A    between atoms: C_7  and  C_8
REMARK    3  A    between atoms: C_8  and  C_9
REMARK    4  A    between atoms: C_8  and  C_12
REMARK    5  A    between atoms: C_9  and  C_10
REMARK                            x       y       z     vdW  Elec       q    Type
REMARK                         _______ _______ _______ _____ _____    ______ ____
ROOT
ATOM      1  C   UNL     1      88.468  70.026  86.702  0.00  0.00    +0.000 C 
ENDROOT
BRANCH   1   2
ATOM      2  C   UNL     1      88.692  68.519  86.811  0.00  0.00    +0.000 A 
ATOM      3  C   UNL     1      87.716  67.721  87.435  0.00  0.00    +0.000 A 
ATOM      4  C   UNL     1      87.881  66.339  87.537  0.00  0.00    +0.000 A 
ATOM      5  C   UNL     1      89.020  65.745  87.012  0.00  0.00    +0.000 A 
ATOM      6  C   UNL     1      89.995  66.507  86.385  0.00  0.00    +0.000 A 
ATOM      7  C   UNL     1      89.832  67.891  86.282  0.00  0.00    +0.000 A 
ATOM      8  F   UNL     1      89.176  64.418  87.109  0.00  0.00    +0.000 F 
ENDBRANCH   1   2
BRANCH   1   9
ATOM      9  C   UNL     1      87.818  70.641  87.965  0.00  0.00    +0.000 C 
BRANCH   9  13
ATOM     10  C   UNL     1      84.026  72.558  87.213  0.00  0.00    +0.000 A 
ATOM     11  C   UNL     1      84.837  72.178  86.146  0.00  0.00    +0.000 A 
ATOM     12  C   UNL     1      86.062  71.552  86.386  0.00  0.00    +0.000 A 
ATOM     13  C   UNL     1      86.485  71.302  87.698  0.00  0.00    +0.000 A 
ATOM     14  C   UNL     1      85.660  71.685  88.763  0.00  0.00    +0.000 A 
ATOM     15  C   UNL     1      84.436  72.310  88.522  0.00  0.00    +0.000 A 
ENDBRANCH   9  13
ENDBRANCH   1   9
BRANCH   1  16
ATOM     16  C   UNL     1      89.730  70.743  86.190  0.00  0.00    +0.000 C 
BRANCH  16  17
ATOM     17  C   UNL     1      89.676  71.329  84.799  0.00  0.00    +0.000 C 
ATOM     18  O   UNL     1      88.950  72.247  84.437  0.00  0.00    +0.000 OA
ENDBRANCH  16  17
ENDBRANCH   1  16
TORSDOF 5
ENDMDL
