MODEL 1
REMARK VINA RESULT:      -4.8      0.000      0.000
REMARK  Name = *****
REMARK  4 active torsions:
REMARK  status: ('A' for Active; 'I' for Inactive)
REMARK    1  A    between atoms: C_1  and  C_2
REMARK    2  A    between atoms: C_4  and  C_16
REMARK    3  A    between atoms: C_6  and  C_8
REMARK    4  A    between atoms: N_9  and  C_10
REMARK                            x       y       z     vdW  Elec       q    Type
REMARK                         _______ _______ _______ _____ _____    ______ ____
ROOT
ATOM      1  C   UNL     1     105.117 121.863  82.432  0.00  0.00    +0.000 C 
ATOM      2  C   UNL     1     104.858 123.054  81.559  0.00  0.00    +0.000 A 
ATOM      3  C   UNL     1     105.623 123.265  80.403  0.00  0.00    +0.000 A 
ATOM      4  C   UNL     1     105.421 124.396  79.598  0.00  0.00    +0.000 A 
ATOM      5  C   UNL     1     104.428 125.316  79.953  0.00  0.00    +0.000 A 
ATOM      6  C   UNL     1     103.672 125.121  81.111  0.00  0.00    +0.000 A 
ATOM      7  C   UNL     1     103.889 124.000  81.918  0.00  0.00    +0.000 A 
ATOM      8  C   UNL     1     106.216 124.587  78.340  0.00  0.00    +0.000 C 
ENDROOT
BRANCH   6   9
ATOM      9  C   UNL     1     102.632 126.091  81.508  0.00  0.00    +0.000 C 
ATOM     10  N   UNL     1     101.924 125.938  82.583  0.00  0.00    +0.000 NA
BRANCH  10  11
ATOM     11  C   UNL     1     100.974 126.939  82.833  0.00  0.00    +0.000 A 
ATOM     12  C   UNL     1     101.344 128.124  83.472  0.00  0.00    +0.000 A 
ATOM     13  C   UNL     1     100.398 129.124  83.710  0.00  0.00    +0.000 A 
ATOM     14  C   UNL     1      99.078 128.946  83.298  0.00  0.00    +0.000 A 
ATOM     15  C   UNL     1      98.706 127.773  82.643  0.00  0.00    +0.000 A 
ATOM     16  C   UNL     1      99.653 126.775  82.408  0.00  0.00    +0.000 A 
ENDBRANCH  10  11
ENDBRANCH   6   9
TORSDOF 2
ENDMDL
