MODEL 1
REMARK VINA RESULT:      -5.5      0.000      0.000
REMARK  Name = *****
REMARK  1 active torsions:
REMARK  status: ('A' for Active; 'I' for Inactive)
REMARK    1  A    between atoms: C_3  and  C_13
REMARK                            x       y       z     vdW  Elec       q    Type
REMARK                         _______ _______ _______ _____ _____    ______ ____
ROOT
ATOM      1  C   UNL     1     103.213 127.242  81.094  0.00  0.00    +0.000 C 
ATOM      2  C   UNL     1     102.990 126.108  81.786  0.00  0.00    +0.000 C 
ATOM      3  C   UNL     1     101.932 125.923  82.863  0.00  0.00    +0.000 C 
ATOM      4  S   UNL     1     102.789 125.639  84.440  0.00  0.00    +0.000 S 
ATOM      5  C   UNL     1     103.690 124.205  83.999  0.00  0.00    +0.000 C 
ATOM      6  O   UNL     1     103.959 123.376  84.859  0.00  0.00    +0.000 OA
ATOM      7  C   UNL     1     104.138 124.009  82.592  0.00  0.00    +0.000 A 
ATOM      8  C   UNL     1     104.910 122.861  82.326  0.00  0.00    +0.000 A 
ATOM      9  C   UNL     1     105.369 122.590  81.039  0.00  0.00    +0.000 A 
ATOM     10  C   UNL     1     105.055 123.458  80.002  0.00  0.00    +0.000 A 
ATOM     11  C   UNL     1     104.290 124.599  80.253  0.00  0.00    +0.000 A 
ATOM     12  C   UNL     1     103.830 124.904  81.550  0.00  0.00    +0.000 A 
ENDROOT
BRANCH   3  13
ATOM     13  C   UNL     1     100.872 127.018  82.956  0.00  0.00    +0.000 A 
ATOM     14  C   UNL     1     101.187 128.223  83.610  0.00  0.00    +0.000 A 
ATOM     15  C   UNL     1     100.239 129.241  83.736  0.00  0.00    +0.000 A 
ATOM     16  C   UNL     1      98.958 129.070  83.219  0.00  0.00    +0.000 A 
ATOM     17  C   UNL     1      98.621 127.882  82.578  0.00  0.00    +0.000 A 
ATOM     18  C   UNL     1      99.567 126.862  82.450  0.00  0.00    +0.000 A 
ENDBRANCH   3  13
TORSDOF 1
ENDMDL
