REMARK  Name = *****
REMARK  2 active torsions:
REMARK  status: ('A' for Active; 'I' for Inactive)
REMARK    1  A    between atoms: C_2  and  C_11
REMARK    2  A    between atoms: C_3  and  C_4
REMARK                            x       y       z     vdW  Elec       q    Type
REMARK                         _______ _______ _______ _____ _____    ______ ____
ROOT
ATOM      1  C   UNL     1       0.003   0.855   0.017  0.00  0.00    +0.000 C 
ATOM      2  C   UNL     1       0.817  -0.413   0.007  0.00  0.00    +0.000 C 
ATOM      3  C   UNL     1      -0.703  -0.480  -0.061  0.00  0.00    +0.000 C 
ENDROOT
BRANCH   3   4
ATOM      4  C   UNL     1      -1.423  -0.856  -1.347  0.00  0.00    +0.000 A 
ATOM      5  C   UNL     1      -2.287   0.081  -1.953  0.00  0.00    +0.000 A 
ATOM      6  C   UNL     1      -2.990  -0.205  -3.127  0.00  0.00    +0.000 A 
ATOM      7  C   UNL     1      -2.858  -1.450  -3.728  0.00  0.00    +0.000 A 
ATOM      8  C   UNL     1      -2.030  -2.407  -3.149  0.00  0.00    +0.000 A 
ATOM      9  C   UNL     1      -1.327  -2.116  -1.972  0.00  0.00    +0.000 A 
ATOM     10 BR   UNL     1      -0.262  -3.514  -1.248  0.00  0.00    +0.000 Br
ENDBRANCH   3   4
BRANCH   2  11
ATOM     11  C   UNL     1       1.570  -0.784   1.267  0.00  0.00    +0.000 A 
ATOM     12  C   UNL     1       1.279  -1.943   2.001  0.00  0.00    +0.000 A 
ATOM     13  C   UNL     1       1.998  -2.261   3.151  0.00  0.00    +0.000 A 
ATOM     14  C   UNL     1       3.024  -1.445   3.605  0.00  0.00    +0.000 A 
ATOM     15  C   UNL     1       3.339  -0.292   2.894  0.00  0.00    +0.000 A 
ATOM     16  C   UNL     1       2.620   0.029   1.737  0.00  0.00    +0.000 A 
ATOM     17  F   UNL     1       1.692  -3.373   3.832  0.00  0.00    +0.000 F 
ENDBRANCH   2  11
TORSDOF 2
