MODEL 1
REMARK VINA RESULT:      -4.4      0.000      0.000
REMARK  Name = *****
REMARK  3 active torsions:
REMARK  status: ('A' for Active; 'I' for Inactive)
REMARK    1  A    between atoms: C_2  and  C_3
REMARK    2  A    between atoms: C_2  and  S_10
REMARK    3  A    between atoms: S_10  and  C_11
REMARK                            x       y       z     vdW  Elec       q    Type
REMARK                         _______ _______ _______ _____ _____    ______ ____
ROOT
ATOM      1  C   UNL     1     103.907 128.386  81.588  0.00  0.00    +0.000 C 
ATOM      2  C   UNL     1     103.710 127.237  82.249  0.00  0.00    +0.000 C 
ENDROOT
BRANCH   2   3
ATOM      3  C   UNL     1     104.088 125.945  81.655  0.00  0.00    +0.000 A 
ATOM      4  C   UNL     1     104.504 125.866  80.316  0.00  0.00    +0.000 A 
ATOM      5  C   UNL     1     104.863 124.637  79.758  0.00  0.00    +0.000 A 
ATOM      6  C   UNL     1     104.802 123.488  80.537  0.00  0.00    +0.000 A 
ATOM      7  C   UNL     1     104.388 123.542  81.863  0.00  0.00    +0.000 A 
ATOM      8  C   UNL     1     104.027 124.769  82.421  0.00  0.00    +0.000 A 
ATOM      9  F   UNL     1     105.148 122.309  80.002  0.00  0.00    +0.000 F 
ENDBRANCH   2   3
BRANCH   2  10
ATOM     10  S   UNL     1     103.056 127.223  83.856  0.00  0.00    +0.000 S 
BRANCH  10  11
ATOM     11  C   UNL     1     101.393 127.761  83.489  0.00  0.00    +0.000 A 
ATOM     12  C   UNL     1     100.959 129.015  83.936  0.00  0.00    +0.000 A 
ATOM     13  C   UNL     1      99.662 129.454  83.659  0.00  0.00    +0.000 A 
ATOM     14  C   UNL     1      98.790 128.649  82.928  0.00  0.00    +0.000 A 
ATOM     15  C   UNL     1      99.215 127.402  82.470  0.00  0.00    +0.000 A 
ATOM     16  C   UNL     1     100.509 126.968  82.751  0.00  0.00    +0.000 A 
ATOM     17  F   UNL     1     100.887 125.763  82.295  0.00  0.00    +0.000 F 
ENDBRANCH  10  11
ENDBRANCH   2  10
TORSDOF 3
ENDMDL
