MODEL 1
REMARK VINA RESULT:      -4.8      0.000      0.000
REMARK  Name = *****
REMARK  3 active torsions:
REMARK  status: ('A' for Active; 'I' for Inactive)
REMARK    1  A    between atoms: C_3  and  C_8
REMARK    2  A    between atoms: C_8  and  O_10
REMARK    3  A    between atoms: O_10  and  C_11
REMARK                            x       y       z     vdW  Elec       q    Type
REMARK                         _______ _______ _______ _____ _____    ______ ____
ROOT
ATOM      1  C   UNL     1     103.188 126.687  81.869  0.00  0.00    +0.000 C 
ATOM      2  O   UNL     1     103.237 127.348  80.843  0.00  0.00    +0.000 OA
ENDROOT
BRANCH   1   5
ATOM      3  C   UNL     1     104.304 123.418  83.396  0.00  0.00    +0.000 A 
ATOM      4  C   UNL     1     103.822 124.722  83.243  0.00  0.00    +0.000 A 
ATOM      5  C   UNL     1     103.708 125.295  81.966  0.00  0.00    +0.000 A 
ATOM      6  C   UNL     1     104.082 124.549  80.842  0.00  0.00    +0.000 A 
ATOM      7  C   UNL     1     104.561 123.253  81.010  0.00  0.00    +0.000 A 
ATOM      8  C   UNL     1     104.675 122.682  82.273  0.00  0.00    +0.000 A 
ATOM      9  F   UNL     1     104.919 122.543  79.933  0.00  0.00    +0.000 F 
ENDBRANCH   1   5
BRANCH   1  10
ATOM     10  O   UNL     1     102.669 127.080  83.088  0.00  0.00    +0.000 OA
BRANCH  10  11
ATOM     11  C   UNL     1     101.334 127.490  83.017  0.00  0.00    +0.000 A 
ATOM     12  C   UNL     1     100.969 128.761  83.455  0.00  0.00    +0.000 A 
ATOM     13  C   UNL     1      99.626 129.118  83.415  0.00  0.00    +0.000 A 
ATOM     14  C   UNL     1      98.656 128.230  82.965  0.00  0.00    +0.000 A 
ATOM     15  C   UNL     1      99.046 126.961  82.552  0.00  0.00    +0.000 A 
ATOM     16  C   UNL     1     100.382 126.573  82.579  0.00  0.00    +0.000 A 
ATOM     17  F   UNL     1      98.118 126.093  82.128  0.00  0.00    +0.000 F 
ATOM     18  F   UNL     1      99.258 130.339  83.826  0.00  0.00    +0.000 F 
ENDBRANCH  10  11
ENDBRANCH   1  10
TORSDOF 3
ENDMDL
