MODEL 1
REMARK VINA RESULT:      -4.6      0.000      0.000
REMARK  Name = *****
REMARK  8 active torsions:
REMARK  status: ('A' for Active; 'I' for Inactive)
REMARK    1  A    between atoms: C_1  and  C_2
REMARK    2  A    between atoms: C_3  and  C_18
REMARK    3  A    between atoms: C_4  and  C_17
REMARK    4  A    between atoms: C_5  and  C_10
REMARK    5  A    between atoms: C_6  and  C_9
REMARK    6  A    between atoms: C_7  and  C_8
REMARK    7  A    between atoms: C_10  and  S_11
REMARK    8  A    between atoms: S_11  and  C_12
REMARK                            x       y       z     vdW  Elec       q    Type
REMARK                         _______ _______ _______ _____ _____    ______ ____
ROOT
ATOM      1  C   UNL     1      85.147  71.938  89.521  0.00  0.00    +0.000 C 
ATOM      2  C   UNL     1      85.961  71.553  88.302  0.00  0.00    +0.000 A 
ATOM      3  C   UNL     1      85.479  71.905  87.015  0.00  0.00    +0.000 A 
ATOM      4  C   UNL     1      86.189  71.500  85.853  0.00  0.00    +0.000 A 
ATOM      5  C   UNL     1      87.461  70.877  85.983  0.00  0.00    +0.000 A 
ATOM      6  C   UNL     1      88.003  70.650  87.280  0.00  0.00    +0.000 A 
ATOM      7  C   UNL     1      87.212  70.903  88.434  0.00  0.00    +0.000 A 
ATOM      8  C   UNL     1      87.709  70.511  89.810  0.00  0.00    +0.000 C 
ATOM      9  C   UNL     1      89.406  70.104  87.443  0.00  0.00    +0.000 C 
ATOM     10  C   UNL     1      85.605  71.820  84.492  0.00  0.00    +0.000 C 
ATOM     11  C   UNL     1      84.175  72.664  86.874  0.00  0.00    +0.000 C 
ENDROOT
BRANCH   5  12
ATOM     12  C   UNL     1      88.252  70.466  84.745  0.00  0.00    +0.000 C 
BRANCH  12  13
ATOM     13  S   UNL     1      87.605  68.943  84.001  0.00  0.00    +0.000 S 
BRANCH  13  14
ATOM     14  C   UNL     1      88.693  67.786  84.684  0.00  0.00    +0.000 C 
ATOM     15  N   UNL     1      89.912  67.620  84.294  0.00  0.00    +0.000 NA
ATOM     16  C   UNL     1      90.515  66.512  85.064  0.00  0.00    +0.000 C 
ATOM     17  C   UNL     1      89.813  66.369  86.404  0.00  0.00    +0.000 C 
ATOM     18  S   UNL     1      88.115  66.813  86.006  0.00  0.00    +0.000 S 
ENDBRANCH  13  14
ENDBRANCH  12  13
ENDBRANCH   5  12
TORSDOF 3
ENDMDL
