MODEL 1
REMARK VINA RESULT:      -4.5      0.000      0.000
REMARK  Name = *****
REMARK  3 active torsions:
REMARK  status: ('A' for Active; 'I' for Inactive)
REMARK    1  A    between atoms: C_4  and  C_7
REMARK    2  A    between atoms: C_7  and  S_8
REMARK    3  A    between atoms: S_8  and  C_9
REMARK                            x       y       z     vdW  Elec       q    Type
REMARK                         _______ _______ _______ _____ _____    ______ ____
ROOT
ATOM      1  C   UNL     1     102.991 126.802  81.290  0.00  0.00    +0.000 C 
ATOM      2 CL   UNL     1     103.931 127.806  80.142  0.00  0.00    +0.000 Cl
ENDROOT
BRANCH   1   6
ATOM      3  C   UNL     1     104.809 122.890  81.671  0.00  0.00    +0.000 A 
ATOM      4  C   UNL     1     104.769 123.533  80.435  0.00  0.00    +0.000 A 
ATOM      5  C   UNL     1     104.188 124.797  80.321  0.00  0.00    +0.000 A 
ATOM      6  C   UNL     1     103.635 125.439  81.444  0.00  0.00    +0.000 A 
ATOM      7  C   UNL     1     103.682 124.773  82.682  0.00  0.00    +0.000 A 
ATOM      8  C   UNL     1     104.266 123.510  82.794  0.00  0.00    +0.000 A 
ENDBRANCH   1   6
BRANCH   1   9
ATOM      9  S   UNL     1     102.811 127.694  82.876  0.00  0.00    +0.000 S 
BRANCH   9  10
ATOM     10  C   UNL     1     101.033 127.750  82.971  0.00  0.00    +0.000 A 
ATOM     11  C   UNL     1     100.265 126.723  82.416  0.00  0.00    +0.000 A 
ATOM     12  C   UNL     1      98.871 126.773  82.484  0.00  0.00    +0.000 A 
ATOM     13  C   UNL     1      98.242 127.844  83.116  0.00  0.00    +0.000 A 
ATOM     14  C   UNL     1      99.004 128.864  83.683  0.00  0.00    +0.000 A 
ATOM     15  C   UNL     1     100.398 128.817  83.614  0.00  0.00    +0.000 A 
ENDBRANCH   9  10
ENDBRANCH   1   9
TORSDOF 3
ENDMDL
