MODEL 1
REMARK VINA RESULT:      -4.6      0.000      0.000
REMARK  Name = *****
REMARK  2 active torsions:
REMARK  status: ('A' for Active; 'I' for Inactive)
REMARK    1  A    between atoms: C_4  and  N_7
REMARK    2  A    between atoms: C_8  and  C_9
REMARK                            x       y       z     vdW  Elec       q    Type
REMARK                         _______ _______ _______ _____ _____    ______ ____
ROOT
ATOM      1  N   UNL     1     101.782 125.908  82.436  0.00  0.00    +0.000 NA
ATOM      2  C   UNL     1     102.691 126.182  81.555  0.00  0.00    +0.000 C 
ENDROOT
BRANCH   2   3
ATOM      3  C   UNL     1     103.704 125.187  81.148  0.00  0.00    +0.000 A 
ATOM      4  C   UNL     1     104.415 125.339  79.951  0.00  0.00    +0.000 A 
ATOM      5  C   UNL     1     105.367 124.385  79.587  0.00  0.00    +0.000 A 
ATOM      6  C   UNL     1     105.598 123.295  80.419  0.00  0.00    +0.000 A 
ATOM      7  C   UNL     1     104.895 123.136  81.610  0.00  0.00    +0.000 A 
ATOM      8  C   UNL     1     103.941 124.087  81.979  0.00  0.00    +0.000 A 
ATOM      9  F   UNL     1     106.512 122.381  80.068  0.00  0.00    +0.000 F 
ENDBRANCH   2   3
BRANCH   1  13
ATOM     10  C   UNL     1      99.091 129.008  83.338  0.00  0.00    +0.000 A 
ATOM     11  C   UNL     1      98.633 127.846  82.716  0.00  0.00    +0.000 A 
ATOM     12  C   UNL     1      99.527 126.816  82.417  0.00  0.00    +0.000 A 
ATOM     13  C   UNL     1     100.884 126.945  82.726  0.00  0.00    +0.000 A 
ATOM     14  C   UNL     1     101.332 128.105  83.363  0.00  0.00    +0.000 A 
ATOM     15  C   UNL     1     100.440 129.136  83.665  0.00  0.00    +0.000 A 
ENDBRANCH   1  13
TORSDOF 2
ENDMDL
