MODEL 1
REMARK VINA RESULT:      -4.8      0.000      0.000
REMARK  Name = *****
REMARK  3 active torsions:
REMARK  status: ('A' for Active; 'I' for Inactive)
REMARK    1  A    between atoms: C_6  and  C_7
REMARK    2  A    between atoms: C_7  and  C_8
REMARK    3  A    between atoms: C_8  and  C_9
REMARK                            x       y       z     vdW  Elec       q    Type
REMARK                         _______ _______ _______ _____ _____    ______ ____
ROOT
ATOM      1  C   UNL     1      88.749  70.311  86.844  0.00  0.00    +0.000 C 
ATOM      2  F   UNL     1      89.960  70.904  86.601  0.00  0.00    +0.000 F 
ENDROOT
BRANCH   1   3
ATOM      3  C   UNL     1      88.862  68.797  86.845  0.00  0.00    +0.000 A 
ATOM      4  C   UNL     1      89.979  68.174  86.261  0.00  0.00    +0.000 A 
ATOM      5  C   UNL     1      90.094  66.783  86.253  0.00  0.00    +0.000 A 
ATOM      6  C   UNL     1      89.093  66.011  86.828  0.00  0.00    +0.000 A 
ATOM      7  C   UNL     1      87.983  66.605  87.417  0.00  0.00    +0.000 A 
ATOM      8  C   UNL     1      87.867  67.996  87.431  0.00  0.00    +0.000 A 
ATOM      9  F   UNL     1      89.201  64.676  86.818  0.00  0.00    +0.000 F 
ENDBRANCH   1   3
BRANCH   1  10
ATOM     10  C   UNL     1      87.756  70.807  85.784  0.00  0.00    +0.000 C 
BRANCH  10  16
ATOM     11  C   UNL     1      85.493  71.930  85.583  0.00  0.00    +0.000 A 
ATOM     12  C   UNL     1      84.333  72.458  86.156  0.00  0.00    +0.000 A 
ATOM     13  C   UNL     1      84.180  72.452  87.541  0.00  0.00    +0.000 A 
ATOM     14  C   UNL     1      85.173  71.920  88.359  0.00  0.00    +0.000 A 
ATOM     15  C   UNL     1      86.331  71.390  87.786  0.00  0.00    +0.000 A 
ATOM     16  C   UNL     1      86.504  71.396  86.394  0.00  0.00    +0.000 A 
ATOM     17 BR   UNL     1      82.610  73.167  88.316  0.00  0.00    +0.000 Br
ENDBRANCH  10  16
ENDBRANCH   1  10
TORSDOF 3
ENDMDL
