MODEL 1
REMARK VINA RESULT:      -4.4      0.000      0.000
REMARK  Name = *****
REMARK  4 active torsions:
REMARK  status: ('A' for Active; 'I' for Inactive)
REMARK    1  A    between atoms: C_1  and  C_2
REMARK    2  A    between atoms: C_2  and  C_3
REMARK    3  A    between atoms: C_3  and  C_10
REMARK    4  A    between atoms: C_4  and  C_5
REMARK                            x       y       z     vdW  Elec       q    Type
REMARK                         _______ _______ _______ _____ _____    ______ ____
ROOT
ATOM      1  C   UNL     1     102.756 126.087  81.812  0.00  0.00    +0.000 C 
ATOM      2  C   UNL     1     101.790 126.077  82.754  0.00  0.00    +0.000 C 
ENDROOT
BRANCH   1   3
ATOM      3  C   UNL     1     103.616 124.886  81.726  0.00  0.00    +0.000 A 
ATOM      4  C   UNL     1     104.152 124.486  80.495  0.00  0.00    +0.000 A 
ATOM      5  C   UNL     1     104.961 123.351  80.410  0.00  0.00    +0.000 A 
ATOM      6  C   UNL     1     105.236 122.606  81.555  0.00  0.00    +0.000 A 
ATOM      7  C   UNL     1     104.704 122.992  82.784  0.00  0.00    +0.000 A 
ATOM      8  C   UNL     1     103.897 124.128  82.870  0.00  0.00    +0.000 A 
ENDBRANCH   1   3
BRANCH   2   9
ATOM      9  C   UNL     1     100.880 127.144  82.995  0.00  0.00    +0.000 A 
ATOM     10  C   UNL     1     101.090 128.408  83.523  0.00  0.00    +0.000 A 
ATOM     11  C   UNL     1      99.903 129.195  83.582  0.00  0.00    +0.000 A 
ATOM     12  C   UNL     1      98.816 128.522  83.078  0.00  0.00    +0.000 A 
ATOM     13  S   UNL     1      99.229 126.959  82.531  0.00  0.00    +0.000 S 
ENDBRANCH   2   9
BRANCH   1  15
ATOM     14  C   UNL     1     104.193 128.137  81.489  0.00  0.00    +0.000 C 
ATOM     15  C   UNL     1     103.130 127.227  80.889  0.00  0.00    +0.000 C 
ENDBRANCH   1  15
TORSDOF 3
ENDMDL
