MODEL 1
REMARK VINA RESULT:      -4.2      0.000      0.000
REMARK  Name = *****
REMARK  3 active torsions:
REMARK  status: ('A' for Active; 'I' for Inactive)
REMARK    1  A    between atoms: C_6  and  C_7
REMARK    2  A    between atoms: N_8  and  C_9
REMARK    3  A    between atoms: C_12  and  S_15
REMARK                            x       y       z     vdW  Elec       q    Type
REMARK                         _______ _______ _______ _____ _____    ______ ____
ROOT
ATOM      1  C   UNL     1     103.190 126.277  81.844  0.00  0.00    +0.000 C 
ATOM      2  N   UNL     1     103.136 125.499  80.809  0.00  0.00    +0.000 NA
ENDROOT
BRANCH   1   8
ATOM      3  C   UNL     1     100.738 126.354  82.175  0.00  0.00    +0.000 A 
ATOM      4  C   UNL     1      99.591 126.974  82.676  0.00  0.00    +0.000 A 
ATOM      5  C   UNL     1      99.706 128.174  83.372  0.00  0.00    +0.000 A 
ATOM      6  C   UNL     1     100.946 128.769  83.579  0.00  0.00    +0.000 A 
ATOM      7  C   UNL     1     102.096 128.153  83.082  0.00  0.00    +0.000 A 
ATOM      8  C   UNL     1     101.990 126.946  82.379  0.00  0.00    +0.000 A 
ATOM      9  F   UNL     1      98.604 128.764  83.850  0.00  0.00    +0.000 F 
ENDBRANCH   1   8
BRANCH   2  10
ATOM     10  C   UNL     1     104.352 124.929  80.408  0.00  0.00    +0.000 A 
ATOM     11  C   UNL     1     105.342 125.718  79.818  0.00  0.00    +0.000 A 
ATOM     12  C   UNL     1     106.561 125.153  79.430  0.00  0.00    +0.000 A 
ATOM     13  C   UNL     1     106.801 123.792  79.639  0.00  0.00    +0.000 A 
ATOM     14  C   UNL     1     105.821 123.007  80.251  0.00  0.00    +0.000 A 
ATOM     15  C   UNL     1     104.603 123.575  80.636  0.00  0.00    +0.000 A 
BRANCH  13  16
ATOM     16  S   UNL     1     108.350 123.057  79.164  0.00  0.00    +0.000 S 
ATOM     17  H   UNL     1     108.988 123.872  78.282  0.00  0.00    +0.000 HD
ENDBRANCH  13  16
ENDBRANCH   2  10
TORSDOF 3
ENDMDL
