MODEL 1
REMARK VINA RESULT:      -4.7      0.000      0.000
REMARK  Name = *****
REMARK  5 active torsions:
REMARK  status: ('A' for Active; 'I' for Inactive)
REMARK    1  A    between atoms: C_1  and  C_2
REMARK    2  A    between atoms: C_2  and  C_3
REMARK    3  A    between atoms: C_2  and  C_9
REMARK    4  A    between atoms: C_9  and  C_10
REMARK    5  A    between atoms: C_9  and  C_16
REMARK                            x       y       z     vdW  Elec       q    Type
REMARK                         _______ _______ _______ _____ _____    ______ ____
ROOT
ATOM      1  C   UNL     1      87.764  63.517  88.423  0.00  0.00    +0.000 C 
ENDROOT
BRANCH   1   2
ATOM      2  C   UNL     1      87.778  63.846  89.911  0.00  0.00    +0.000 A 
ATOM      3  C   UNL     1      86.595  64.069  90.632  0.00  0.00    +0.000 A 
ATOM      4  C   UNL     1      86.639  64.367  91.995  0.00  0.00    +0.000 A 
ATOM      5  C   UNL     1      87.863  64.447  92.655  0.00  0.00    +0.000 A 
ATOM      6  C   UNL     1      89.045  64.229  91.953  0.00  0.00    +0.000 A 
ATOM      7  C   UNL     1      89.004  63.930  90.591  0.00  0.00    +0.000 A 
ENDBRANCH   1   2
BRANCH   1   8
ATOM      8  C   UNL     1      86.694  62.474  88.075  0.00  0.00    +0.000 C 
ATOM      9  O   UNL     1      86.618  61.382  88.634  0.00  0.00    +0.000 OA
ATOM     10 CL   UNL     1      85.615  63.013  86.808  0.00  0.00    +0.000 Cl
ENDBRANCH   1   8
BRANCH   1  12
ATOM     11  C   UNL     1      87.201  66.054  88.106  0.00  0.00    +0.000 C 
ATOM     12  C   UNL     1      87.686  64.746  87.463  0.00  0.00    +0.000 C 
BRANCH  12  13
ATOM     13  C   UNL     1      88.996  64.929  86.699  0.00  0.00    +0.000 A 
ATOM     14  C   UNL     1      89.525  66.222  86.542  0.00  0.00    +0.000 A 
ATOM     15  C   UNL     1      90.706  66.430  85.827  0.00  0.00    +0.000 A 
ATOM     16  C   UNL     1      91.373  65.351  85.253  0.00  0.00    +0.000 A 
ATOM     17  C   UNL     1      90.860  64.065  85.394  0.00  0.00    +0.000 A 
ATOM     18  C   UNL     1      89.679  63.855  86.110  0.00  0.00    +0.000 A 
ENDBRANCH  12  13
ENDBRANCH   1  12
TORSDOF 4
ENDMDL
