MODEL 1
REMARK VINA RESULT:      -3.9      0.000      0.000
REMARK  Name = *****
REMARK  4 active torsions:
REMARK  status: ('A' for Active; 'I' for Inactive)
REMARK    1  A    between atoms: C_7  and  C_8
REMARK    2  A    between atoms: C_8  and  O_9
REMARK    3  A    between atoms: O_9  and  S_10
REMARK    4  A    between atoms: S_10  and  C_11
REMARK                            x       y       z     vdW  Elec       q    Type
REMARK                         _______ _______ _______ _____ _____    ______ ____
ROOT
ATOM      1  C   UNL     1     104.782 126.134  83.510  0.00  0.00    +0.000 C 
ENDROOT
BRANCH   1   8
ATOM      2  C   UNL     1     103.483 127.050  80.167  0.00  0.00    +0.000 C 
ATOM      3  C   UNL     1     104.816 127.536  80.753  0.00  0.00    +0.000 C 
ATOM      4  C   UNL     1     105.575 126.225  81.021  0.00  0.00    +0.000 C 
ATOM      5  C   UNL     1     105.150 125.388  79.809  0.00  0.00    +0.000 C 
ATOM      6  C   UNL     1     103.661 125.522  80.123  0.00  0.00    +0.000 C 
ATOM      7  C   UNL     1     103.580 124.974  81.561  0.00  0.00    +0.000 C 
ATOM      8  C   UNL     1     104.925 125.415  82.171  0.00  0.00    +0.000 C 
ENDBRANCH   1   8
BRANCH   1   9
ATOM      9  O   UNL     1     103.399 126.394  83.740  0.00  0.00    +0.000 OA
BRANCH   9  10
ATOM     10  S   UNL     1     103.038 127.999  84.004  0.00  0.00    +0.000 S 
BRANCH  10  11
ATOM     11  C   UNL     1     101.323 127.993  83.502  0.00  0.00    +0.000 A 
ATOM     12  C   UNL     1     100.806 126.862  82.861  0.00  0.00    +0.000 A 
ATOM     13  C   UNL     1      99.472 126.827  82.449  0.00  0.00    +0.000 A 
ATOM     14  C   UNL     1      98.645 127.928  82.673  0.00  0.00    +0.000 A 
ATOM     15  C   UNL     1      99.152 129.062  83.304  0.00  0.00    +0.000 A 
ATOM     16  C   UNL     1     100.487 129.096  83.714  0.00  0.00    +0.000 A 
ENDBRANCH  10  11
ENDBRANCH   9  10
ENDBRANCH   1   9
TORSDOF 4
ENDMDL
