REMARK  Name = *****
REMARK  5 active torsions:
REMARK  status: ('A' for Active; 'I' for Inactive)
REMARK    1  A    between atoms: C_1  and  C_2
REMARK    2  A    between atoms: C_5  and  S_8
REMARK    3  A    between atoms: S_8  and  C_10
REMARK    4  A    between atoms: C_10  and  C_11
REMARK    5  A    between atoms: C_15  and  C_17
REMARK                            x       y       z     vdW  Elec       q    Type
REMARK                         _______ _______ _______ _____ _____    ______ ____
ROOT
ATOM      1  S   UNL     1      -3.769  -0.023  -0.026  0.00  0.00    +0.000 S 
ATOM      2  O   UNL     1      -5.033  -0.764   0.309  0.00  0.00    +0.000 OA
ENDROOT
BRANCH   1   7
ATOM      3  C   UNL     1      -0.021  -0.792   4.748  0.00  0.00    +0.000 C 
ATOM      4  C   UNL     1      -0.952  -0.612   3.586  0.00  0.00    +0.000 A 
ATOM      5  C   UNL     1      -0.443  -0.247   2.334  0.00  0.00    +0.000 A 
ATOM      6  C   UNL     1      -1.300  -0.075   1.244  0.00  0.00    +0.000 A 
ATOM      7  C   UNL     1      -2.678  -0.256   1.396  0.00  0.00    +0.000 A 
ATOM      8  C   UNL     1      -3.189  -0.627   2.642  0.00  0.00    +0.000 A 
ATOM      9  C   UNL     1      -2.331  -0.800   3.732  0.00  0.00    +0.000 A 
ENDBRANCH   1   7
BRANCH   1  10
ATOM     10  C   UNL     1      -4.114   1.755   0.210  0.00  0.00    +0.000 C 
BRANCH  10  11
ATOM     11  C   UNL     1      -2.966   2.640  -0.201  0.00  0.00    +0.000 A 
ATOM     12  C   UNL     1      -2.653   2.823  -1.555  0.00  0.00    +0.000 A 
ATOM     13  C   UNL     1      -1.584   3.637  -1.928  0.00  0.00    +0.000 A 
ATOM     14  C   UNL     1      -0.816   4.275  -0.955  0.00  0.00    +0.000 A 
ATOM     15  C   UNL     1      -1.103   4.097   0.403  0.00  0.00    +0.000 A 
ATOM     16  C   UNL     1      -2.188   3.290   0.770  0.00  0.00    +0.000 A 
ATOM     17  C   UNL     1      -0.300   4.809   1.451  0.00  0.00    +0.000 C 
ENDBRANCH  10  11
ENDBRANCH   1  10
TORSDOF 3
