MODEL 1
REMARK VINA RESULT:      -4.5      0.000      0.000
REMARK  Name = *****
REMARK  0 active torsions:
REMARK  status: ('A' for Active; 'I' for Inactive)
REMARK                            x       y       z     vdW  Elec       q    Type
REMARK                         _______ _______ _______ _____ _____    ______ ____
ROOT
ATOM      1  C   UNL     1      88.789  71.471  84.810  0.00  0.00    +0.000 C 
ATOM      2  C   UNL     1      87.528  71.244  85.636  0.00  0.00    +0.000 C 
ATOM      3  C   UNL     1      87.212  69.810  86.048  0.00  0.00    +0.000 C 
ATOM      4  C   UNL     1      87.461  68.751  84.976  0.00  0.00    +0.000 C 
ATOM      5  C   UNL     1      88.900  68.202  84.917  0.00  0.00    +0.000 C 
ATOM      6  C   UNL     1      89.914  69.234  84.395  0.00  0.00    +0.000 C 
ATOM      7  C   UNL     1      89.964  70.563  85.151  0.00  0.00    +0.000 C 
ATOM      8  O   UNL     1      89.220  67.734  86.242  0.00  0.00    +0.000 OA
ATOM      9  O   UNL     1      90.532  67.079  86.200  0.00  0.00    +0.000 OA
ATOM     10  C   UNL     1      90.441  65.957  85.305  0.00  0.00    +0.000 C 
ATOM     11  C   UNL     1      91.849  65.345  85.244  0.00  0.00    +0.000 C 
ATOM     12  C   UNL     1      91.896  64.066  84.410  0.00  0.00    +0.000 C 
ATOM     13  C   UNL     1      90.879  63.040  84.900  0.00  0.00    +0.000 C 
ATOM     14  C   UNL     1      89.472  63.628  84.969  0.00  0.00    +0.000 C 
ATOM     15  C   UNL     1      89.439  64.904  85.809  0.00  0.00    +0.000 C 
ATOM     16  O   UNL     1      90.134  66.418  83.978  0.00  0.00    +0.000 OA
ATOM     17  O   UNL     1      88.823  67.075  84.012  0.00  0.00    +0.000 OA
ENDROOT
TORSDOF 0
ENDMDL
