MODEL 1
REMARK VINA RESULT:      -4.7      0.000      0.000
REMARK  Name = *****
REMARK  6 active torsions:
REMARK  status: ('A' for Active; 'I' for Inactive)
REMARK    1  A    between atoms: C_1  and  O_2
REMARK    2  A    between atoms: O_2  and  N_3
REMARK    3  A    between atoms: N_3  and  C_4
REMARK    4  A    between atoms: C_4  and  C_5
REMARK    5  A    between atoms: C_10  and  C_11
REMARK    6  A    between atoms: C_12  and  C_13
REMARK                            x       y       z     vdW  Elec       q    Type
REMARK                         _______ _______ _______ _____ _____    ______ ____
ROOT
ATOM      1  C   UNL     1      84.634  58.445  90.996  0.00  0.00    +0.000 A 
ATOM      2  C   UNL     1      83.666  57.548  91.473  0.00  0.00    +0.000 A 
ATOM      3  C   UNL     1      82.337  57.952  91.617  0.00  0.00    +0.000 A 
ATOM      4  C   UNL     1      81.968  59.253  91.287  0.00  0.00    +0.000 A 
ATOM      5  C   UNL     1      82.925  60.151  90.811  0.00  0.00    +0.000 A 
ATOM      6  C   UNL     1      84.262  59.755  90.660  0.00  0.00    +0.000 A 
ENDROOT
BRANCH   6   7
ATOM      7  C   UNL     1      85.189  60.724  90.150  0.00  0.00    +0.000 C 
ATOM      8  C   UNL     1      85.945  61.536  89.690  0.00  0.00    +0.000 C 
BRANCH   8   9
ATOM      9  C   UNL     1      86.831  62.500  89.113  0.00  0.00    +0.000 A 
ATOM     10  C   UNL     1      87.591  63.330  89.941  0.00  0.00    +0.000 A 
ATOM     11  C   UNL     1      88.448  64.280  89.383  0.00  0.00    +0.000 A 
ATOM     12  C   UNL     1      88.545  64.402  87.996  0.00  0.00    +0.000 A 
ATOM     13  C   UNL     1      87.788  63.572  87.168  0.00  0.00    +0.000 A 
ATOM     14  C   UNL     1      86.930  62.621  87.725  0.00  0.00    +0.000 A 
ENDBRANCH   8   9
ENDBRANCH   6   7
BRANCH   1  15
ATOM     15  C   UNL     1      86.034  57.982  90.861  0.00  0.00    +0.000 C 
BRANCH  15  16
ATOM     16  N   UNL     1      86.346  56.948  90.143  0.00  0.00    +0.000 NA
BRANCH  16  18
ATOM     17  C   UNL     1      88.489  56.142  90.156  0.00  0.00    +0.000 C 
ATOM     18  O   UNL     1      87.630  57.136  89.611  0.00  0.00    +0.000 OA
ENDBRANCH  16  18
ENDBRANCH  15  16
ENDBRANCH   1  15
TORSDOF 5
ENDMDL
