MODEL 1
REMARK VINA RESULT:      -4.7      0.000      0.000
REMARK  Name = *****
REMARK  6 active torsions:
REMARK  status: ('A' for Active; 'I' for Inactive)
REMARK    1  A    between atoms: C_1  and  C_2
REMARK    2  A    between atoms: C_5  and  C_8
REMARK    3  A    between atoms: C_8  and  N_9
REMARK    4  A    between atoms: N_9  and  C_10
REMARK    5  A    between atoms: N_9  and  C_11
REMARK    6  A    between atoms: C_14  and  C_17
REMARK                            x       y       z     vdW  Elec       q    Type
REMARK                         _______ _______ _______ _____ _____    ______ ____
ROOT
ATOM      1  N   UNL     1      87.945  70.560  87.943  0.00  0.00    +0.000 N 
ATOM      2  C   UNL     1      88.486  70.801  89.275  0.00  0.00    +0.000 C 
ENDROOT
BRANCH   1   3
ATOM      3  C   UNL     1      86.772  71.189  87.527  0.00  0.00    +0.000 A 
ATOM      4  C   UNL     1      85.784  71.613  88.430  0.00  0.00    +0.000 A 
ATOM      5  C   UNL     1      84.599  72.231  88.003  0.00  0.00    +0.000 A 
ATOM      6  C   UNL     1      84.350  72.428  86.646  0.00  0.00    +0.000 A 
ATOM      7  C   UNL     1      85.314  72.016  85.728  0.00  0.00    +0.000 A 
ATOM      8  C   UNL     1      86.496  71.400  86.165  0.00  0.00    +0.000 A 
ATOM      9  C   UNL     1      83.100  73.117  86.187  0.00  0.00    +0.000 C 
ENDBRANCH   1   3
BRANCH   1  10
ATOM     10  C   UNL     1      88.895  70.045  86.947  0.00  0.00    +0.000 C 
BRANCH  10  15
ATOM     11  C   UNL     1      89.195  64.224  86.518  0.00  0.00    +0.000 C 
ATOM     12  C   UNL     1      89.125  65.715  86.667  0.00  0.00    +0.000 A 
ATOM     13  C   UNL     1      88.028  66.313  87.294  0.00  0.00    +0.000 A 
ATOM     14  C   UNL     1      87.943  67.704  87.402  0.00  0.00    +0.000 A 
ATOM     15  C   UNL     1      88.949  68.530  86.881  0.00  0.00    +0.000 A 
ATOM     16  C   UNL     1      90.036  67.922  86.233  0.00  0.00    +0.000 A 
ATOM     17  C   UNL     1      90.122  66.531  86.124  0.00  0.00    +0.000 A 
ENDBRANCH  10  15
ENDBRANCH   1  10
TORSDOF 3
ENDMDL
