MODEL 1
REMARK VINA RESULT:      -4.3      0.000      0.000
REMARK  Name = *****
REMARK  1 active torsions:
REMARK  status: ('A' for Active; 'I' for Inactive)
REMARK    1  A    between atoms: C_8  and  C_10
REMARK                            x       y       z     vdW  Elec       q    Type
REMARK                         _______ _______ _______ _____ _____    ______ ____
ROOT
ATOM      1  C   UNL     1      99.413 130.776  84.360  0.00  0.00    +0.000 C 
ATOM      2  C   UNL     1     100.836 131.302  84.512  0.00  0.00    +0.000 C 
ATOM      3  C   UNL     1     101.777 130.214  85.035  0.00  0.00    +0.000 C 
ATOM      4  C   UNL     1     101.562 128.883  84.366  0.00  0.00    +0.000 C 
ATOM      5  C   UNL     1     100.482 128.606  83.617  0.00  0.00    +0.000 C 
ATOM      6  C   UNL     1      99.361 129.586  83.398  0.00  0.00    +0.000 C 
ATOM      7  S   UNL     1     100.383 127.038  82.870  0.00  0.00    +0.000 S 
ATOM      8  C   UNL     1     101.878 126.332  83.651  0.00  0.00    +0.000 C 
ATOM      9  S   UNL     1     102.778 127.653  84.539  0.00  0.00    +0.000 S 
ENDROOT
BRANCH   8  10
ATOM     10  C   UNL     1     102.757 125.592  82.663  0.00  0.00    +0.000 A 
ATOM     11  C   UNL     1     103.590 124.530  83.058  0.00  0.00    +0.000 A 
ATOM     12  C   UNL     1     104.392 123.865  82.129  0.00  0.00    +0.000 A 
ATOM     13  C   UNL     1     104.375 124.249  80.791  0.00  0.00    +0.000 A 
ATOM     14  C   UNL     1     103.556 125.299  80.380  0.00  0.00    +0.000 A 
ATOM     15  C   UNL     1     102.754 125.966  81.308  0.00  0.00    +0.000 A 
ENDBRANCH   8  10
TORSDOF 1
ENDMDL
