REMARK  Name = *****
REMARK  6 active torsions:
REMARK  status: ('A' for Active; 'I' for Inactive)
REMARK    1  A    between atoms: C_1  and  C_2
REMARK    2  A    between atoms: C_4  and  C_19
REMARK    3  A    between atoms: C_5  and  C_9
REMARK    4  A    between atoms: C_6  and  C_8
REMARK    5  A    between atoms: C_9  and  C_10
REMARK    6  A    between atoms: C_10  and  C_12
REMARK                            x       y       z     vdW  Elec       q    Type
REMARK                         _______ _______ _______ _____ _____    ______ ____
ROOT
ATOM      1  C   UNL     1      -1.894  -2.300   0.901  0.00  0.00    +0.000 C 
ENDROOT
BRANCH   1   6
ATOM      2  C   UNL     1       1.933   1.608  -1.200  0.00  0.00    +0.000 C 
ATOM      3  C   UNL     1       0.956   0.606  -0.663  0.00  0.00    +0.000 A 
ATOM      4  C   UNL     1       1.404  -0.551  -0.026  0.00  0.00    +0.000 A 
ATOM      5  C   UNL     1       0.505  -1.485   0.519  0.00  0.00    +0.000 A 
ATOM      6  C   UNL     1      -0.891  -1.280   0.382  0.00  0.00    +0.000 A 
ATOM      7  C   UNL     1      -1.344  -0.062  -0.190  0.00  0.00    +0.000 A 
ATOM      8  C   UNL     1      -0.416   0.853  -0.715  0.00  0.00    +0.000 A 
ATOM      9  C   UNL     1      -2.804   0.311  -0.251  0.00  0.00    +0.000 C 
ATOM     10  C   UNL     1       1.095  -2.680   1.223  0.00  0.00    +0.000 C 
ENDBRANCH   1   6
BRANCH   1  11
ATOM     11  C   UNL     1      -1.668  -3.744   0.487  0.00  0.00    +0.000 C 
ATOM     12  O   UNL     1      -1.578  -4.632   1.338  0.00  0.00    +0.000 OA
BRANCH  11  13
ATOM     13  C   UNL     1      -1.594  -4.131  -0.956  0.00  0.00    +0.000 A 
ATOM     14  C   UNL     1      -1.099  -5.409  -1.269  0.00  0.00    +0.000 A 
ATOM     15  C   UNL     1      -1.010  -5.830  -2.598  0.00  0.00    +0.000 A 
ATOM     16  C   UNL     1      -1.420  -4.977  -3.613  0.00  0.00    +0.000 A 
ATOM     17  C   UNL     1      -1.921  -3.713  -3.323  0.00  0.00    +0.000 A 
ATOM     18  C   UNL     1      -2.013  -3.290  -1.993  0.00  0.00    +0.000 A 
ATOM     19  F   UNL     1      -1.337  -5.377  -4.888  0.00  0.00    +0.000 F 
ENDBRANCH  11  13
ENDBRANCH   1  11
TORSDOF 3
