REMARK  Name = *****
REMARK  3 active torsions:
REMARK  status: ('A' for Active; 'I' for Inactive)
REMARK    1  A    between atoms: C_5  and  C_8
REMARK    2  A    between atoms: C_8  and  O_9
REMARK    3  A    between atoms: O_9  and  C_10
REMARK                            x       y       z     vdW  Elec       q    Type
REMARK                         _______ _______ _______ _____ _____    ______ ____
ROOT
ATOM      1  C   UNL     1       2.312   0.073  -1.519  0.00  0.00    +0.000 C 
ENDROOT
BRANCH   1   6
ATOM      2  C   UNL     1      -2.349  -0.025   0.478  0.00  0.00    +0.000 C 
ATOM      3  C   UNL     1      -1.120  -0.003  -0.060  0.00  0.00    +0.000 C 
ATOM      4  C   UNL     1      -0.377  -1.264  -0.426  0.00  0.00    +0.000 C 
ATOM      5  C   UNL     1       1.010  -1.285   0.221  0.00  0.00    +0.000 C 
ATOM      6  C   UNL     1       1.825  -0.006  -0.060  0.00  0.00    +0.000 C 
ATOM      7  C   UNL     1       1.014   1.242   0.331  0.00  0.00    +0.000 C 
ATOM      8  C   UNL     1      -0.373   1.282  -0.314  0.00  0.00    +0.000 C 
ENDBRANCH   1   6
BRANCH   1   9
ATOM      9  O   UNL     1       3.168  -1.041  -1.777  0.00  0.00    +0.000 OA
BRANCH   9  10
ATOM     10  C   UNL     1       3.708  -1.138  -3.029  0.00  0.00    +0.000 A 
ATOM     11  C   UNL     1       3.501  -0.250  -4.086  0.00  0.00    +0.000 A 
ATOM     12  C   UNL     1       4.119  -0.471  -5.321  0.00  0.00    +0.000 A 
ATOM     13  C   UNL     1       4.946  -1.578  -5.504  0.00  0.00    +0.000 A 
ATOM     14  C   UNL     1       5.156  -2.467  -4.453  0.00  0.00    +0.000 A 
ATOM     15  C   UNL     1       4.538  -2.246  -3.221  0.00  0.00    +0.000 A 
ENDBRANCH   9  10
ENDBRANCH   1   9
TORSDOF 3
