MODEL 1
REMARK VINA RESULT:      -4.8      0.000      0.000
REMARK  Name = *****
REMARK  5 active torsions:
REMARK  status: ('A' for Active; 'I' for Inactive)
REMARK    1  A    between atoms: C_1  and  C_2
REMARK    2  A    between atoms: C_5  and  C_8
REMARK    3  A    between atoms: C_8  and  C_10
REMARK    4  A    between atoms: C_10  and  C_11
REMARK    5  A    between atoms: C_16  and  C_17
REMARK                            x       y       z     vdW  Elec       q    Type
REMARK                         _______ _______ _______ _____ _____    ______ ____
ROOT
ATOM      1  C   UNL     1      87.977  70.511  88.202  0.00  0.00    +0.000 C 
ATOM      2  O   UNL     1      87.879  69.919  89.278  0.00  0.00    +0.000 OA
ENDROOT
BRANCH   1   7
ATOM      3  C   UNL     1      83.210  73.084  86.084  0.00  0.00    +0.000 C 
ATOM      4  C   UNL     1      84.430  72.389  86.615  0.00  0.00    +0.000 A 
ATOM      5  C   UNL     1      84.612  72.228  87.992  0.00  0.00    +0.000 A 
ATOM      6  C   UNL     1      85.766  71.615  88.486  0.00  0.00    +0.000 A 
ATOM      7  C   UNL     1      86.763  71.159  87.611  0.00  0.00    +0.000 A 
ATOM      8  C   UNL     1      86.587  71.333  86.234  0.00  0.00    +0.000 A 
ATOM      9  C   UNL     1      85.432  71.950  85.743  0.00  0.00    +0.000 A 
ENDBRANCH   1   7
BRANCH   1  10
ATOM     10  C   UNL     1      89.307  70.578  87.471  0.00  0.00    +0.000 C 
BRANCH  10  11
ATOM     11  C   UNL     1      89.494  69.536  86.386  0.00  0.00    +0.000 A 
ATOM     12  C   UNL     1      89.301  68.176  86.690  0.00  0.00    +0.000 A 
ATOM     13  C   UNL     1      89.455  67.190  85.715  0.00  0.00    +0.000 A 
ATOM     14  C   UNL     1      89.788  67.548  84.414  0.00  0.00    +0.000 A 
ATOM     15  C   UNL     1      89.950  68.893  84.085  0.00  0.00    +0.000 A 
ATOM     16  C   UNL     1      89.790  69.898  85.052  0.00  0.00    +0.000 A 
ATOM     17  C   UNL     1      89.952  71.334  84.631  0.00  0.00    +0.000 C 
ENDBRANCH  10  11
ENDBRANCH   1  10
TORSDOF 3
ENDMDL
