REMARK  Name = *****
REMARK  6 active torsions:
REMARK  status: ('A' for Active; 'I' for Inactive)
REMARK    1  A    between atoms: C_1  and  C_2
REMARK    2  A    between atoms: C_6  and  C_16
REMARK    3  A    between atoms: C_7  and  C_8
REMARK    4  A    between atoms: C_7  and  C_9
REMARK    5  A    between atoms: C_9  and  C_10
REMARK    6  A    between atoms: C_10  and  C_11
REMARK                            x       y       z     vdW  Elec       q    Type
REMARK                         _______ _______ _______ _____ _____    ______ ____
ROOT
ATOM      1  C   UNL     1       3.590   1.001   1.200  0.00  0.00    +0.000 C 
ATOM      2  C   UNL     1       2.595   0.286   0.280  0.00  0.00    +0.000 C 
ATOM      3  C   UNL     1       2.268   1.213  -0.907  0.00  0.00    +0.000 C 
ATOM      4  C   UNL     1       3.456   1.362  -1.853  0.00  0.00    +0.000 C 
ATOM      5  C   UNL     1       4.106   0.051  -2.170  0.00  0.00    +0.000 C 
ATOM      6  C   UNL     1       3.906  -1.094  -1.487  0.00  0.00    +0.000 C 
ATOM      7  C   UNL     1       3.018  -1.156  -0.227  0.00  0.00    +0.000 C 
ATOM      8  C   UNL     1       1.699  -1.878  -0.646  0.00  0.00    +0.000 C 
ATOM      9  C   UNL     1       4.504  -2.378  -2.018  0.00  0.00    +0.000 C 
ENDROOT
BRANCH   7  10
ATOM     10  C   UNL     1       3.639  -2.035   0.913  0.00  0.00    +0.000 C 
BRANCH  10  11
ATOM     11  C   UNL     1       5.097  -1.770   1.333  0.00  0.00    +0.000 C 
BRANCH  11  12
ATOM     12  C   UNL     1       5.664  -2.915   2.112  0.00  0.00    +0.000 A 
ATOM     13  C   UNL     1       6.440  -3.950   1.632  0.00  0.00    +0.000 A 
ATOM     14  O   UNL     1       6.773  -4.809   2.629  0.00  0.00    +0.000 OA
ATOM     15  C   UNL     1       6.211  -4.327   3.766  0.00  0.00    +0.000 A 
ATOM     16  C   UNL     1       5.521  -3.167   3.506  0.00  0.00    +0.000 A 
ENDBRANCH  11  12
ENDBRANCH  10  11
ENDBRANCH   7  10
TORSDOF 3
