REMARK  Name = *****
REMARK  4 active torsions:
REMARK  status: ('A' for Active; 'I' for Inactive)
REMARK    1  A    between atoms: C_1  and  O_2
REMARK    2  A    between atoms: O_2  and  C_3
REMARK    3  A    between atoms: C_8  and  C_9
REMARK    4  A    between atoms: C_11  and  C_12
REMARK                            x       y       z     vdW  Elec       q    Type
REMARK                         _______ _______ _______ _____ _____    ______ ____
ROOT
ATOM      1  C   UNL     1       4.838   1.629   1.131  0.00  0.00    +0.000 C 
ATOM      2  C   UNL     1       4.051   2.855   1.533  0.00  0.00    +0.000 C 
ATOM      3  C   UNL     1       4.320   2.600   0.077  0.00  0.00    +0.000 C 
ENDROOT
BRANCH   1   9
ATOM      4  C   UNL     1       3.815  -0.167   2.667  0.00  0.00    +0.000 A 
ATOM      5  C   UNL     1       3.295  -1.455   2.860  0.00  0.00    +0.000 A 
ATOM      6  C   UNL     1       3.219  -2.355   1.798  0.00  0.00    +0.000 A 
ATOM      7  C   UNL     1       3.672  -1.980   0.541  0.00  0.00    +0.000 A 
ATOM      8  C   UNL     1       4.189  -0.699   0.344  0.00  0.00    +0.000 A 
ATOM      9  C   UNL     1       4.251   0.248   1.384  0.00  0.00    +0.000 A 
BRANCH   4  11
ATOM     10  C   UNL     1       3.545   0.391   4.977  0.00  0.00    +0.000 C 
ATOM     11  O   UNL     1       3.959   0.762   3.669  0.00  0.00    +0.000 OA
ENDBRANCH   4  11
ENDBRANCH   1   9
BRANCH   3  12
ATOM     12  C   UNL     1       3.230   2.231  -0.911  0.00  0.00    +0.000 A 
ATOM     13  C   UNL     1       1.857   2.323  -0.630  0.00  0.00    +0.000 A 
ATOM     14  C   UNL     1       0.888   1.984  -1.582  0.00  0.00    +0.000 A 
ATOM     15  C   UNL     1       1.272   1.550  -2.846  0.00  0.00    +0.000 A 
ATOM     16  C   UNL     1       2.624   1.460  -3.160  0.00  0.00    +0.000 A 
ATOM     17  C   UNL     1       3.585   1.801  -2.204  0.00  0.00    +0.000 A 
ENDBRANCH   3  12
TORSDOF 3
