REMARK  Name = *****
REMARK  5 active torsions:
REMARK  status: ('A' for Active; 'I' for Inactive)
REMARK    1  A    between atoms: C_1  and  C_2
REMARK    2  A    between atoms: C_5  and  C_8
REMARK    3  A    between atoms: C_8  and  O_9
REMARK    4  A    between atoms: O_9  and  C_10
REMARK    5  A    between atoms: C_10  and  C_11
REMARK                            x       y       z     vdW  Elec       q    Type
REMARK                         _______ _______ _______ _____ _____    ______ ____
ROOT
ATOM      1  C   UNL     1      -3.315  -0.189  -0.018  0.00  0.00    +0.000 C 
ENDROOT
BRANCH   1   6
ATOM      2  C   UNL     1       2.541   0.134  -0.017  0.00  0.00    +0.000 C 
ATOM      3  C   UNL     1       1.041   0.089  -0.054  0.00  0.00    +0.000 C 
ATOM      4  C   UNL     1       0.297   1.199  -0.208  0.00  0.00    +0.000 C 
ATOM      5  C   UNL     1      -1.206   1.204  -0.209  0.00  0.00    +0.000 C 
ATOM      6  C   UNL     1      -1.820  -0.109   0.308  0.00  0.00    +0.000 C 
ATOM      7  C   UNL     1      -1.069  -1.313  -0.271  0.00  0.00    +0.000 C 
ATOM      8  C   UNL     1       0.417  -1.275   0.099  0.00  0.00    +0.000 C 
ENDBRANCH   1   6
BRANCH   1   9
ATOM      9  O   UNL     1      -3.987   0.909   0.594  0.00  0.00    +0.000 OA
BRANCH   9  10
ATOM     10  C   UNL     1      -5.390   0.885   0.331  0.00  0.00    +0.000 C 
BRANCH  10  11
ATOM     11  C   UNL     1      -6.056   2.086   0.954  0.00  0.00    +0.000 A 
ATOM     12  C   UNL     1      -5.450   3.350   0.916  0.00  0.00    +0.000 A 
ATOM     13  C   UNL     1      -6.091   4.465   1.459  0.00  0.00    +0.000 A 
ATOM     14  C   UNL     1      -7.352   4.331   2.038  0.00  0.00    +0.000 A 
ATOM     15  C   UNL     1      -7.972   3.083   2.072  0.00  0.00    +0.000 A 
ATOM     16  C   UNL     1      -7.331   1.968   1.528  0.00  0.00    +0.000 A 
ENDBRANCH  10  11
ENDBRANCH   9  10
ENDBRANCH   1   9
TORSDOF 4
