REMARK  Name = *****
REMARK  3 active torsions:
REMARK  status: ('A' for Active; 'I' for Inactive)
REMARK    1  A    between atoms: N_2  and  C_3
REMARK    2  A    between atoms: C_8  and  C_9
REMARK    3  A    between atoms: C_10  and  C_11
REMARK                            x       y       z     vdW  Elec       q    Type
REMARK                         _______ _______ _______ _____ _____    ______ ____
ROOT
ATOM      1  C   UNL     1      -0.644   2.377  -0.053  0.00  0.00    +0.000 C 
ATOM      2  C   UNL     1      -1.936   2.540   0.271  0.00  0.00    +0.000 C 
ENDROOT
BRANCH   2   3
ATOM      3  C   UNL     1      -2.625   3.834   0.211  0.00  0.00    +0.000 A 
ATOM      4  C   UNL     1      -3.922   3.887  -0.312  0.00  0.00    +0.000 A 
ATOM      5  C   UNL     1      -4.604   5.099  -0.354  0.00  0.00    +0.000 A 
ATOM      6  C   UNL     1      -4.025   6.268   0.128  0.00  0.00    +0.000 A 
ATOM      7  C   UNL     1      -2.740   6.224   0.664  0.00  0.00    +0.000 A 
ATOM      8  C   UNL     1      -2.045   5.011   0.710  0.00  0.00    +0.000 A 
ATOM      9  F   UNL     1      -5.842   5.142  -0.864  0.00  0.00    +0.000 F 
ENDBRANCH   2   3
BRANCH   1  15
ATOM     10  C   UNL     1      -0.356  -0.045  -0.749  0.00  0.00    +0.000 A 
ATOM     11  C   UNL     1       0.333  -1.258  -0.660  0.00  0.00    +0.000 A 
ATOM     12  C   UNL     1       1.430  -1.365   0.192  0.00  0.00    +0.000 A 
ATOM     13  C   UNL     1       1.835  -0.263   0.943  0.00  0.00    +0.000 A 
ATOM     14  C   UNL     1       1.142   0.949   0.848  0.00  0.00    +0.000 A 
ATOM     15  C   UNL     1       0.029   1.073   0.006  0.00  0.00    +0.000 A 
BRANCH  10  17
ATOM     16  C   UNL     1      -2.326   0.043  -2.387  0.00  0.00    +0.000 C 
ATOM     17  N   UNL     1      -1.428   0.022  -1.634  0.00  0.00    +0.000 NA
ENDBRANCH  10  17
ENDBRANCH   1  15
TORSDOF 3
