REMARK  Name = *****
REMARK  2 active torsions:
REMARK  status: ('A' for Active; 'I' for Inactive)
REMARK    1  A    between atoms: C_4  and  S_16
REMARK    2  A    between atoms: C_5  and  C_7
REMARK                            x       y       z     vdW  Elec       q    Type
REMARK                         _______ _______ _______ _____ _____    ______ ____
ROOT
ATOM      1  C   UNL     1       0.552  -2.407   0.120  0.00  0.00    +0.000 A 
ATOM      2  N   UNL     1       0.573  -3.332  -0.825  0.00  0.00    +0.000 NA
ATOM      3  C   UNL     1       1.325  -4.342  -0.278  0.00  0.00    +0.000 A 
ATOM      4  C   UNL     1       1.714  -5.585  -0.792  0.00  0.00    +0.000 A 
ATOM      5  C   UNL     1       2.489  -6.424   0.024  0.00  0.00    +0.000 A 
ATOM      6  C   UNL     1       2.864  -6.033   1.316  0.00  0.00    +0.000 A 
ATOM      7  C   UNL     1       2.484  -4.792   1.842  0.00  0.00    +0.000 A 
ATOM      8  C   UNL     1       1.719  -3.992   1.002  0.00  0.00    +0.000 A 
ATOM      9  O   UNL     1       1.219  -2.753   1.268  0.00  0.00    +0.000 OA
ENDROOT
BRANCH   1  14
ATOM     10  C   UNL     1      -2.204   0.045  -0.551  0.00  0.00    +0.000 A 
ATOM     11  C   UNL     1      -1.749   1.200   0.072  0.00  0.00    +0.000 A 
ATOM     12  C   UNL     1      -0.507   1.202   0.707  0.00  0.00    +0.000 A 
ATOM     13  C   UNL     1       0.296   0.048   0.734  0.00  0.00    +0.000 A 
ATOM     14  C   UNL     1      -0.172  -1.137   0.130  0.00  0.00    +0.000 A 
ATOM     15  C   UNL     1      -1.422  -1.110  -0.523  0.00  0.00    +0.000 A 
BRANCH  13  16
ATOM     16  S   UNL     1       1.897   0.235   1.519  0.00  0.00    +0.000 S 
ATOM     17  H   UNL     1       2.022   1.502   1.996  0.00  0.00    +0.000 HD
ENDBRANCH  13  16
ENDBRANCH   1  14
TORSDOF 2
