REMARK  Name = *****
REMARK  3 active torsions:
REMARK  status: ('A' for Active; 'I' for Inactive)
REMARK    1  A    between atoms: C_4  and  C_7
REMARK    2  A    between atoms: C_7  and  C_8
REMARK    3  A    between atoms: C_8  and  C_9
REMARK                            x       y       z     vdW  Elec       q    Type
REMARK                         _______ _______ _______ _____ _____    ______ ____
ROOT
ATOM      1  C   UNL     1      -3.592  -0.825  -0.313  0.00  0.00    +0.000 C 
ENDROOT
BRANCH   1   2
ATOM      2  C   UNL     1      -5.070  -0.582  -0.481  0.00  0.00    +0.000 A 
ATOM      3  C   UNL     1      -5.601  -0.289  -1.744  0.00  0.00    +0.000 A 
ATOM      4  C   UNL     1      -6.957  -0.046  -1.922  0.00  0.00    +0.000 A 
ATOM      5  C   UNL     1      -7.796  -0.092  -0.818  0.00  0.00    +0.000 A 
ATOM      6  C   UNL     1      -7.299  -0.374   0.451  0.00  0.00    +0.000 A 
ATOM      7  C   UNL     1      -5.934  -0.617   0.623  0.00  0.00    +0.000 A 
ATOM      8  F   UNL     1      -9.105   0.141  -0.974  0.00  0.00    +0.000 F 
ATOM      9  F   UNL     1      -4.790  -0.235  -2.810  0.00  0.00    +0.000 F 
ENDBRANCH   1   2
BRANCH   1  10
ATOM     10  C   UNL     1      -2.810   0.487  -0.204  0.00  0.00    +0.000 C 
BRANCH  10  14
ATOM     11  C   UNL     1       1.406  -0.267   0.292  0.00  0.00    +0.000 A 
ATOM     12  C   UNL     1       0.861  -0.162  -0.987  0.00  0.00    +0.000 A 
ATOM     13  C   UNL     1      -0.502   0.088  -1.147  0.00  0.00    +0.000 A 
ATOM     14  C   UNL     1      -1.333   0.239  -0.029  0.00  0.00    +0.000 A 
ATOM     15  C   UNL     1      -0.777   0.126   1.252  0.00  0.00    +0.000 A 
ATOM     16  C   UNL     1       0.587  -0.124   1.411  0.00  0.00    +0.000 A 
ENDBRANCH  10  14
ENDBRANCH   1  10
TORSDOF 3
