MODEL 1
REMARK VINA RESULT:      -5.0      0.000      0.000
REMARK  Name = *****
REMARK  2 active torsions:
REMARK  status: ('A' for Active; 'I' for Inactive)
REMARK    1  A    between atoms: C_4  and  N_8
REMARK    2  A    between atoms: C_9  and  C_10
REMARK                            x       y       z     vdW  Elec       q    Type
REMARK                         _______ _______ _______ _____ _____    ______ ____
ROOT
ATOM      1  N   UNL     1     103.081 125.929  82.517  0.00  0.00    +0.000 NA
ATOM      2  C   UNL     1     101.786 125.946  82.490  0.00  0.00    +0.000 C 
ENDROOT
BRANCH   1   6
ATOM      3  C   UNL     1     105.030 122.351  81.351  0.00  0.00    +0.000 A 
ATOM      4  C   UNL     1     104.681 123.312  80.403  0.00  0.00    +0.000 A 
ATOM      5  C   UNL     1     104.032 124.482  80.802  0.00  0.00    +0.000 A 
ATOM      6  C   UNL     1     103.708 124.721  82.142  0.00  0.00    +0.000 A 
ATOM      7  C   UNL     1     104.079 123.745  83.077  0.00  0.00    +0.000 A 
ATOM      8  C   UNL     1     104.727 122.569  82.693  0.00  0.00    +0.000 A 
ATOM      9  F   UNL     1     103.801 123.922  84.379  0.00  0.00    +0.000 F 
ATOM     10  F   UNL     1     103.711 125.384  79.860  0.00  0.00    +0.000 F 
ENDBRANCH   1   6
BRANCH   2  11
ATOM     11  C   UNL     1     101.025 127.149  82.866  0.00  0.00    +0.000 A 
ATOM     12  C   UNL     1      99.663 127.210  82.568  0.00  0.00    +0.000 A 
ATOM     13  C   UNL     1      98.912 128.329  82.907  0.00  0.00    +0.000 A 
ATOM     14  C   UNL     1      99.536 129.391  83.549  0.00  0.00    +0.000 A 
ATOM     15  C   UNL     1     100.895 129.351  83.854  0.00  0.00    +0.000 A 
ATOM     16  C   UNL     1     101.646 128.225  83.512  0.00  0.00    +0.000 A 
ATOM     17  F   UNL     1      98.820 130.473  83.879  0.00  0.00    +0.000 F 
ATOM     18  F   UNL     1      99.056 126.188  81.948  0.00  0.00    +0.000 F 
ENDBRANCH   2  11
TORSDOF 2
ENDMDL
