REMARK  Name = *****
REMARK  4 active torsions:
REMARK  status: ('A' for Active; 'I' for Inactive)
REMARK    1  A    between atoms: C_1  and  C_2
REMARK    2  A    between atoms: C_2  and  C_9
REMARK    3  A    between atoms: C_9  and  C_10
REMARK    4  A    between atoms: C_10  and  C_11
REMARK                            x       y       z     vdW  Elec       q    Type
REMARK                         _______ _______ _______ _____ _____    ______ ____
ROOT
ATOM      1  C   UNL     1       0.831   0.498  -0.447  0.00  0.00    +0.000 C 
ATOM      2  C   UNL     1       2.339   0.388  -0.380  0.00  0.00    +0.000 C 
ATOM      3  C   UNL     1       3.082  -0.492  -1.099  0.00  0.00    +0.000 C 
ATOM      4  C   UNL     1       4.595  -0.613  -0.962  0.00  0.00    +0.000 C 
ATOM      5  C   UNL     1       5.067  -2.065  -1.046  0.00  0.00    +0.000 C 
ATOM      6  C   UNL     1       4.613  -2.719  -2.347  0.00  0.00    +0.000 C 
ATOM      7  C   UNL     1       3.194  -2.379  -2.683  0.00  0.00    +0.000 C 
ATOM      8  C   UNL     1       2.505  -1.388  -2.097  0.00  0.00    +0.000 C 
ENDROOT
BRANCH   2   9
ATOM      9  C   UNL     1       2.955   1.403   0.573  0.00  0.00    +0.000 C 
BRANCH   9  10
ATOM     10  C   UNL     1       2.993   0.896   2.020  0.00  0.00    +0.000 C 
BRANCH  10  11
ATOM     11  C   UNL     1       3.670   1.885   2.937  0.00  0.00    +0.000 A 
ATOM     12  C   UNL     1       2.953   2.960   3.479  0.00  0.00    +0.000 A 
ATOM     13  C   UNL     1       3.586   3.884   4.312  0.00  0.00    +0.000 A 
ATOM     14  C   UNL     1       4.940   3.744   4.608  0.00  0.00    +0.000 A 
ATOM     15  C   UNL     1       5.664   2.681   4.070  0.00  0.00    +0.000 A 
ATOM     16  C   UNL     1       5.033   1.756   3.236  0.00  0.00    +0.000 A 
ENDBRANCH  10  11
ENDBRANCH   9  10
ENDBRANCH   2   9
TORSDOF 3
