REMARK  Name = *****
REMARK  2 active torsions:
REMARK  status: ('A' for Active; 'I' for Inactive)
REMARK    1  A    between atoms: C_3  and  N_8
REMARK    2  A    between atoms: C_9  and  C_10
REMARK                            x       y       z     vdW  Elec       q    Type
REMARK                         _______ _______ _______ _____ _____    ______ ____
ROOT
ATOM      1  N   UNL     1       2.365   2.488  -0.499  0.00  0.00    +0.000 NA
ATOM      2  C   UNL     1       1.988   3.510   0.202  0.00  0.00    +0.000 C 
ENDROOT
BRANCH   1   5
ATOM      3  C   UNL     1       1.496  -0.867   0.807  0.00  0.00    +0.000 A 
ATOM      4  C   UNL     1       2.179   0.331   0.590  0.00  0.00    +0.000 A 
ATOM      5  C   UNL     1       1.660   1.297  -0.278  0.00  0.00    +0.000 A 
ATOM      6  C   UNL     1       0.463   1.045  -0.951  0.00  0.00    +0.000 A 
ATOM      7  C   UNL     1      -0.218  -0.151  -0.732  0.00  0.00    +0.000 A 
ATOM      8  C   UNL     1       0.291  -1.108   0.146  0.00  0.00    +0.000 A 
ATOM      9 CL   UNL     1      -1.701  -0.452  -1.553  0.00  0.00    +0.000 Cl
ENDBRANCH   1   5
BRANCH   2  10
ATOM     10  C   UNL     1       2.640   4.828   0.071  0.00  0.00    +0.000 A 
ATOM     11  C   UNL     1       3.707   5.014  -0.815  0.00  0.00    +0.000 A 
ATOM     12  C   UNL     1       4.308   6.269  -0.921  0.00  0.00    +0.000 A 
ATOM     13  C   UNL     1       3.838   7.322  -0.144  0.00  0.00    +0.000 A 
ATOM     14  C   UNL     1       2.778   7.146   0.740  0.00  0.00    +0.000 A 
ATOM     15  C   UNL     1       2.172   5.893   0.851  0.00  0.00    +0.000 A 
ATOM     16  F   UNL     1       4.416   8.526  -0.246  0.00  0.00    +0.000 F 
ENDBRANCH   2  10
TORSDOF 2
