MODEL 1
REMARK VINA RESULT:      -4.9      0.000      0.000
REMARK  Name = *****
REMARK  5 active torsions:
REMARK  status: ('A' for Active; 'I' for Inactive)
REMARK    1  A    between atoms: C_1  and  C_2
REMARK    2  A    between atoms: C_7  and  C_8
REMARK    3  A    between atoms: C_9  and  C_10
REMARK    4  A    between atoms: C_9  and  C_12
REMARK    5  A    between atoms: C_17  and  C_18
REMARK                            x       y       z     vdW  Elec       q    Type
REMARK                         _______ _______ _______ _____ _____    ______ ____
ROOT
ATOM      1  C   UNL     1     101.711 127.568  83.263  0.00  0.00    +0.000 C 
ATOM      2  C   UNL     1     100.373 127.717  83.235  0.00  0.00    +0.000 C 
ENDROOT
BRANCH   1   9
ATOM      3  C   UNL     1     102.769 125.121  84.590  0.00  0.00    +0.000 C 
ATOM      4  C   UNL     1     103.032 125.430  83.143  0.00  0.00    +0.000 A 
ATOM      5  C   UNL     1     103.797 124.536  82.377  0.00  0.00    +0.000 A 
ATOM      6  C   UNL     1     104.046 124.783  81.026  0.00  0.00    +0.000 A 
ATOM      7  C   UNL     1     103.529 125.924  80.421  0.00  0.00    +0.000 A 
ATOM      8  C   UNL     1     102.762 126.819  81.166  0.00  0.00    +0.000 A 
ATOM      9  C   UNL     1     102.507 126.581  82.525  0.00  0.00    +0.000 A 
ENDBRANCH   1   9
BRANCH   2  10
ATOM     10  C   UNL     1      99.787 128.801  84.049  0.00  0.00    +0.000 A 
ATOM     11  C   UNL     1      99.776 130.101  83.516  0.00  0.00    +0.000 A 
ATOM     12  C   UNL     1      99.234 131.161  84.241  0.00  0.00    +0.000 A 
ATOM     13  C   UNL     1      98.702 130.934  85.507  0.00  0.00    +0.000 A 
ATOM     14  C   UNL     1      98.710 129.648  86.049  0.00  0.00    +0.000 A 
ATOM     15  C   UNL     1      99.247 128.568  85.331  0.00  0.00    +0.000 A 
ATOM     16  C   UNL     1      99.253 127.200  85.958  0.00  0.00    +0.000 C 
ENDBRANCH   2  10
BRANCH   2  17
ATOM     17  C   UNL     1      99.437 126.872  82.429  0.00  0.00    +0.000 C 
ATOM     18  O   UNL     1      98.298 127.180  82.102  0.00  0.00    +0.000 OA
ENDBRANCH   2  17
TORSDOF 3
ENDMDL
