MODEL 1
REMARK VINA RESULT:      -4.3      0.000      0.000
REMARK  Name = *****
REMARK  3 active torsions:
REMARK  status: ('A' for Active; 'I' for Inactive)
REMARK    1  A    between atoms: C_1  and  N_2
REMARK    2  A    between atoms: N_2  and  C_3
REMARK    3  A    between atoms: C_10  and  C_12
REMARK                            x       y       z     vdW  Elec       q    Type
REMARK                         _______ _______ _______ _____ _____    ______ ____
ROOT
ATOM      1  C   UNL     1     102.986 125.450  83.740  0.00  0.00    +0.000 C 
ATOM      2  N   UNL     1     102.639 126.381  82.669  0.00  0.00    +0.000 N 
ATOM      3  C   UNL     1     103.415 126.537  81.511  0.00  0.00    +0.000 C 
ATOM      4  O   UNL     1     103.179 127.389  80.650  0.00  0.00    +0.000 OA
ENDROOT
BRANCH   2   5
ATOM      5  C   UNL     1     101.449 127.172  82.838  0.00  0.00    +0.000 A 
ATOM      6  C   UNL     1     100.235 126.647  82.356  0.00  0.00    +0.000 A 
ATOM      7  C   UNL     1      99.023 127.317  82.542  0.00  0.00    +0.000 A 
ATOM      8  C   UNL     1      98.999 128.534  83.213  0.00  0.00    +0.000 A 
ATOM      9  C   UNL     1     100.189 129.087  83.680  0.00  0.00    +0.000 A 
ATOM     10  C   UNL     1     101.410 128.420  83.493  0.00  0.00    +0.000 A 
ATOM     11 BR   UNL     1     102.963 129.392  84.017  0.00  0.00    +0.000 Br
ENDBRANCH   2   5
BRANCH   3  12
ATOM     12  C   UNL     1     104.588 125.566  81.309  0.00  0.00    +0.000 C 
ATOM     13  C   UNL     1     105.748 126.255  80.572  0.00  0.00    +0.000 C 
ATOM     14  C   UNL     1     106.902 125.287  80.319  0.00  0.00    +0.000 C 
ATOM     15  C   UNL     1     106.437 124.051  79.555  0.00  0.00    +0.000 C 
ATOM     16  C   UNL     1     105.262 123.368  80.250  0.00  0.00    +0.000 C 
ATOM     17  C   UNL     1     104.115 124.342  80.511  0.00  0.00    +0.000 C 
ENDBRANCH   3  12
TORSDOF 2
ENDMDL
