MODEL 1
REMARK VINA RESULT:      -5.4      0.000      0.000
REMARK  Name = *****
REMARK  4 active torsions:
REMARK  status: ('A' for Active; 'I' for Inactive)
REMARK    1  A    between atoms: C_1  and  C_2
REMARK    2  A    between atoms: C_2  and  N_3
REMARK    3  A    between atoms: C_6  and  C_9
REMARK    4  A    between atoms: C_10  and  C_11
REMARK                            x       y       z     vdW  Elec       q    Type
REMARK                         _______ _______ _______ _____ _____    ______ ____
ROOT
ATOM      1  C   UNL     1     102.670 125.913  81.484  0.00  0.00    +0.000 C 
ATOM      2  C   UNL     1     102.035 126.042  82.661  0.00  0.00    +0.000 C 
ENDROOT
BRANCH   2   3
ATOM      3  C   UNL     1     100.920 126.991  82.841  0.00  0.00    +0.000 A 
ATOM      4  C   UNL     1      99.649 126.615  82.375  0.00  0.00    +0.000 A 
ATOM      5  C   UNL     1      98.567 127.480  82.499  0.00  0.00    +0.000 A 
ATOM      6  C   UNL     1      98.743 128.731  83.083  0.00  0.00    +0.000 A 
ATOM      7  C   UNL     1     100.000 129.138  83.552  0.00  0.00    +0.000 A 
ATOM      8  C   UNL     1     100.157 130.406  84.136  0.00  0.00    +0.000 A 
ATOM      9  C   UNL     1     101.398 130.830  84.611  0.00  0.00    +0.000 A 
ATOM     10  C   UNL     1     102.498 129.990  84.512  0.00  0.00    +0.000 A 
ATOM     11  C   UNL     1     102.359 128.725  83.935  0.00  0.00    +0.000 A 
ATOM     12  C   UNL     1     101.115 128.268  83.437  0.00  0.00    +0.000 A 
ENDBRANCH   2   3
BRANCH   1  16
ATOM     13  N   UNL     1     105.900 123.271  80.723  0.00  0.00    +0.000 N 
ATOM     14  C   UNL     1     105.502 124.155  79.779  0.00  0.00    +0.000 C 
ATOM     15  C   UNL     1     104.442 125.021  80.020  0.00  0.00    +0.000 C 
ATOM     16  C   UNL     1     103.768 124.972  81.240  0.00  0.00    +0.000 C 
ATOM     17  C   UNL     1     104.207 124.063  82.202  0.00  0.00    +0.000 C 
ATOM     18  C   UNL     1     105.273 123.216  81.920  0.00  0.00    +0.000 C 
BRANCH  13  20
ATOM     19  C   UNL     1     106.869 121.094  81.270  0.00  0.00    +0.000 C 
ATOM     20  C   UNL     1     107.029 122.353  80.442  0.00  0.00    +0.000 C 
ENDBRANCH  13  20
ENDBRANCH   1  16
TORSDOF 3
ENDMDL
