MODEL 1
REMARK VINA RESULT:      -5.3      0.000      0.000
REMARK  Name = *****
REMARK  3 active torsions:
REMARK  status: ('A' for Active; 'I' for Inactive)
REMARK    1  A    between atoms: C_9  and  N_11
REMARK    2  A    between atoms: N_11  and  C_12
REMARK    3  A    between atoms: N_11  and  N_18
REMARK                            x       y       z     vdW  Elec       q    Type
REMARK                         _______ _______ _______ _____ _____    ______ ____
ROOT
ATOM      1  C   UNL     1     104.748 123.920  82.143  0.00  0.00    +0.000 C 
ATOM      2  C   UNL     1     104.686 124.945  81.019  0.00  0.00    +0.000 C 
ATOM      3  C   UNL     1     103.244 125.390  80.781  0.00  0.00    +0.000 C 
ATOM      4  C   UNL     1     102.507 125.733  82.054  0.00  0.00    +0.000 A 
ATOM      5  C   UNL     1     102.966 125.298  83.307  0.00  0.00    +0.000 A 
ATOM      6  C   UNL     1     104.261 124.536  83.454  0.00  0.00    +0.000 C 
ATOM      7  C   UNL     1     102.241 125.636  84.455  0.00  0.00    +0.000 A 
ATOM      8  C   UNL     1     101.054 126.368  84.360  0.00  0.00    +0.000 A 
ATOM      9  C   UNL     1     100.550 126.784  83.114  0.00  0.00    +0.000 A 
ATOM     10  C   UNL     1     101.304 126.458  81.970  0.00  0.00    +0.000 A 
ENDROOT
BRANCH   9  11
ATOM     11  N   UNL     1      99.321 127.536  83.021  0.00  0.00    +0.000 N 
BRANCH  11  12
ATOM     12  C   UNL     1      99.068 128.673  83.875  0.00  0.00    +0.000 A 
ATOM     13  C   UNL     1      98.302 128.535  85.048  0.00  0.00    +0.000 A 
ATOM     14  C   UNL     1      98.049 129.631  85.877  0.00  0.00    +0.000 A 
ATOM     15  C   UNL     1      98.561 130.884  85.552  0.00  0.00    +0.000 A 
ATOM     16  C   UNL     1      99.329 131.044  84.401  0.00  0.00    +0.000 A 
ATOM     17  C   UNL     1      99.583 129.947  83.571  0.00  0.00    +0.000 A 
ENDBRANCH  11  12
BRANCH  11  18
ATOM     18  N   UNL     1      98.360 127.058  82.167  0.00  0.00    +0.000 NA
ATOM     19  O   UNL     1      97.587 126.234  82.668  0.00  0.00    +0.000 OA
ENDBRANCH  11  18
ENDBRANCH   9  11
TORSDOF 3
ENDMDL
