REMARK  Name = *****
REMARK  3 active torsions:
REMARK  status: ('A' for Active; 'I' for Inactive)
REMARK    1  A    between atoms: C_4  and  O_8
REMARK    2  A    between atoms: O_8  and  C_9
REMARK    3  A    between atoms: C_9  and  C_11
REMARK                            x       y       z     vdW  Elec       q    Type
REMARK                         _______ _______ _______ _____ _____    ______ ____
ROOT
ATOM      1  O   UNL     1       0.592  -1.571  -1.586  0.00  0.00    +0.000 OA
ENDROOT
BRANCH   1   5
ATOM      2  C   UNL     1       0.743   0.014   1.696  0.00  0.00    +0.000 C 
ATOM      3  C   UNL     1       0.380   1.094   0.670  0.00  0.00    +0.000 C 
ATOM      4  C   UNL     1       1.180   0.633  -0.568  0.00  0.00    +0.000 C 
ATOM      5  C   UNL     1       1.144  -0.919  -0.439  0.00  0.00    +0.000 C 
ATOM      6  C   UNL     1       0.245  -1.130   0.807  0.00  0.00    +0.000 C 
ATOM      7  C   UNL     1      -1.149  -0.612   0.520  0.00  0.00    +0.000 C 
ATOM      8  C   UNL     1      -1.066   0.725   0.439  0.00  0.00    +0.000 C 
ENDBRANCH   1   5
BRANCH   1   9
ATOM      9  C   UNL     1       1.403  -1.613  -2.671  0.00  0.00    +0.000 C 
ATOM     10  O   UNL     1       2.539  -1.169  -2.733  0.00  0.00    +0.000 OA
BRANCH   9  11
ATOM     11  C   UNL     1       0.718  -2.286  -3.808  0.00  0.00    +0.000 A 
ATOM     12  C   UNL     1       1.425  -2.440  -5.009  0.00  0.00    +0.000 A 
ATOM     13  C   UNL     1       0.826  -3.064  -6.105  0.00  0.00    +0.000 A 
ATOM     14  C   UNL     1      -0.482  -3.538  -6.007  0.00  0.00    +0.000 A 
ATOM     15  C   UNL     1      -1.193  -3.388  -4.817  0.00  0.00    +0.000 A 
ATOM     16  C   UNL     1      -0.597  -2.764  -3.719  0.00  0.00    +0.000 A 
ENDBRANCH   9  11
ENDBRANCH   1   9
TORSDOF 3
