REMARK  Name = *****
REMARK  3 active torsions:
REMARK  status: ('A' for Active; 'I' for Inactive)
REMARK    1  A    between atoms: C_3  and  O_9
REMARK    2  A    between atoms: O_9  and  C_10
REMARK    3  A    between atoms: C_10  and  C_12
REMARK                            x       y       z     vdW  Elec       q    Type
REMARK                         _______ _______ _______ _____ _____    ______ ____
ROOT
ATOM      1  C   UNL     1      -1.294  -1.368   0.480  0.00  0.00    +0.000 A 
ATOM      2  C   UNL     1      -0.182  -2.174   0.724  0.00  0.00    +0.000 A 
ATOM      3  C   UNL     1       1.084  -1.718   0.353  0.00  0.00    +0.000 A 
ATOM      4  C   UNL     1       1.254  -0.455  -0.224  0.00  0.00    +0.000 A 
ATOM      5  C   UNL     1       0.140   0.348  -0.466  0.00  0.00    +0.000 A 
ATOM      6  C   UNL     1      -1.128  -0.115  -0.115  0.00  0.00    +0.000 A 
ATOM      7 CL   UNL     1      -2.506   0.874  -0.409  0.00  0.00    +0.000 Cl
ATOM      8 CL   UNL     1       2.819   0.143  -0.635  0.00  0.00    +0.000 Cl
ENDROOT
BRANCH   3   9
ATOM      9  O   UNL     1       2.181  -2.536   0.638  0.00  0.00    +0.000 OA
BRANCH   9  10
ATOM     10  C   UNL     1       2.601  -3.284  -0.459  0.00  0.00    +0.000 C 
ATOM     11  O   UNL     1       2.049  -3.303  -1.556  0.00  0.00    +0.000 OA
BRANCH  10  12
ATOM     12  C   UNL     1       3.785  -4.075  -0.157  0.00  0.00    +0.000 A 
ATOM     13  C   UNL     1       4.429  -4.889  -1.077  0.00  0.00    +0.000 A 
ATOM     14  S   UNL     1       5.759  -5.618  -0.280  0.00  0.00    +0.000 S 
ATOM     15  N   UNL     1       5.426  -4.858   1.172  0.00  0.00    +0.000 NA
ATOM     16  N   UNL     1       4.365  -4.072   1.111  0.00  0.00    +0.000 NA
ENDBRANCH  10  12
ENDBRANCH   9  10
ENDBRANCH   3   9
TORSDOF 3
