REMARK  Name = *****
REMARK  4 active torsions:
REMARK  status: ('A' for Active; 'I' for Inactive)
REMARK    1  A    between atoms: C_4  and  C_7
REMARK    2  A    between atoms: C_7  and  N_9
REMARK    3  A    between atoms: N_9  and  C_10
REMARK    4  A    between atoms: C_10  and  C_11
REMARK                            x       y       z     vdW  Elec       q    Type
REMARK                         _______ _______ _______ _____ _____    ______ ____
ROOT
ATOM      1  N   UNL     1       0.323  -3.535  -0.412  0.00  0.00    +0.000 N 
ATOM      2  H   UNL     1      -0.506  -3.265   0.046  0.00  0.00    +0.000 HD
ENDROOT
BRANCH   1   3
ATOM      3  C   UNL     1       1.192  -2.515  -0.749  0.00  0.00    +0.000 C 
ATOM      4  S   UNL     1       2.705  -2.712  -1.443  0.00  0.00    +0.000 S 
BRANCH   3   8
ATOM      5  C   UNL     1      -0.852   1.216   0.163  0.00  0.00    +0.000 C 
ATOM      6  C   UNL     1       0.050   1.203  -1.068  0.00  0.00    +0.000 C 
ATOM      7  C   UNL     1       0.313  -0.227  -1.553  0.00  0.00    +0.000 C 
ATOM      8  C   UNL     1       0.602  -1.180  -0.424  0.00  0.00    +0.000 C 
ATOM      9  C   UNL     1       0.367  -0.886   0.868  0.00  0.00    +0.000 C 
ATOM     10  C   UNL     1      -0.237   0.414   1.312  0.00  0.00    +0.000 C 
ENDBRANCH   3   8
ENDBRANCH   1   3
BRANCH   1  11
ATOM     11  C   UNL     1       0.487  -4.960  -0.654  0.00  0.00    +0.000 C 
BRANCH  11  12
ATOM     12  C   UNL     1      -0.538  -5.442  -1.648  0.00  0.00    +0.000 A 
ATOM     13  C   UNL     1      -0.319  -5.276  -3.024  0.00  0.00    +0.000 A 
ATOM     14  C   UNL     1      -1.274  -5.699  -3.949  0.00  0.00    +0.000 A 
ATOM     15  C   UNL     1      -2.459  -6.285  -3.509  0.00  0.00    +0.000 A 
ATOM     16  C   UNL     1      -2.693  -6.446  -2.145  0.00  0.00    +0.000 A 
ATOM     17  C   UNL     1      -1.738  -6.023  -1.217  0.00  0.00    +0.000 A 
ENDBRANCH  11  12
ENDBRANCH   1  11
TORSDOF 4
