MODEL 1
REMARK VINA RESULT:      -4.8      0.000      0.000
REMARK  Name = *****
REMARK  4 active torsions:
REMARK  status: ('A' for Active; 'I' for Inactive)
REMARK    1  A    between atoms: C_1  and  C_2
REMARK    2  A    between atoms: C_7  and  O_8
REMARK    3  A    between atoms: O_8  and  C_9
REMARK    4  A    between atoms: C_9  and  C_11
REMARK                            x       y       z     vdW  Elec       q    Type
REMARK                         _______ _______ _______ _____ _____    ______ ____
ROOT
ATOM      1  C   UNL     1     102.687 125.633  83.507  0.00  0.00    +0.000 C 
ATOM      2  O   UNL     1     102.255 125.239  84.580  0.00  0.00    +0.000 OA
ENDROOT
BRANCH   1   3
ATOM      3  C   UNL     1     103.483 124.768  82.589  0.00  0.00    +0.000 A 
ATOM      4  C   UNL     1     103.596 125.165  81.246  0.00  0.00    +0.000 A 
ATOM      5  C   UNL     1     104.329 124.393  80.342  0.00  0.00    +0.000 A 
ATOM      6  C   UNL     1     104.948 123.229  80.781  0.00  0.00    +0.000 A 
ATOM      7  C   UNL     1     104.849 122.820  82.106  0.00  0.00    +0.000 A 
ATOM      8  C   UNL     1     104.116 123.589  83.015  0.00  0.00    +0.000 A 
ATOM      9  F   UNL     1     105.650 122.487  79.915  0.00  0.00    +0.000 F 
ENDBRANCH   1   3
BRANCH   1  10
ATOM     10  O   UNL     1     102.549 126.891  82.955  0.00  0.00    +0.000 OA
BRANCH  10  17
ATOM     11  C   UNL     1     102.090 129.425  84.245  0.00  0.00    +0.000 C 
ATOM     12  C   UNL     1     100.993 128.632  83.599  0.00  0.00    +0.000 A 
ATOM     13  C   UNL     1      99.675 129.107  83.605  0.00  0.00    +0.000 A 
ATOM     14  C   UNL     1      98.648 128.365  83.014  0.00  0.00    +0.000 A 
ATOM     15  C   UNL     1      98.923 127.137  82.413  0.00  0.00    +0.000 A 
ATOM     16  C   UNL     1     100.226 126.643  82.406  0.00  0.00    +0.000 A 
ATOM     17  C   UNL     1     101.241 127.384  83.015  0.00  0.00    +0.000 A 
ENDBRANCH  10  17
ENDBRANCH   1  10
TORSDOF 3
ENDMDL
