MODEL 1
REMARK VINA RESULT:      -4.7      0.000      0.000
REMARK  Name = *****
REMARK  6 active torsions:
REMARK  status: ('A' for Active; 'I' for Inactive)
REMARK    1  A    between atoms: C_1  and  C_2
REMARK    2  A    between atoms: C_4  and  C_17
REMARK    3  A    between atoms: C_6  and  C_16
REMARK    4  A    between atoms: C_7  and  O_8
REMARK    5  A    between atoms: O_8  and  C_9
REMARK    6  A    between atoms: C_9  and  C_10
REMARK                            x       y       z     vdW  Elec       q    Type
REMARK                         _______ _______ _______ _____ _____    ______ ____
ROOT
ATOM      1  C   UNL     1      90.608  65.394  85.638  0.00  0.00    +0.000 C 
ATOM      2  C   UNL     1      89.675  66.398  86.254  0.00  0.00    +0.000 A 
ATOM      3  C   UNL     1      90.001  67.762  86.206  0.00  0.00    +0.000 A 
ATOM      4  C   UNL     1      89.151  68.732  86.762  0.00  0.00    +0.000 A 
ATOM      5  C   UNL     1      87.954  68.324  87.366  0.00  0.00    +0.000 A 
ATOM      6  C   UNL     1      87.606  66.964  87.426  0.00  0.00    +0.000 A 
ATOM      7  C   UNL     1      88.498  66.011  86.911  0.00  0.00    +0.000 A 
ATOM      8  C   UNL     1      86.311  66.559  88.073  0.00  0.00    +0.000 C 
ENDROOT
BRANCH   4   9
ATOM      9  C   UNL     1      89.551  70.176  86.682  0.00  0.00    +0.000 C 
ATOM     10  O   UNL     1      89.397  70.862  87.693  0.00  0.00    +0.000 OA
ATOM     11 CL   UNL     1      90.204  70.823  85.190  0.00  0.00    +0.000 Cl
ENDBRANCH   4   9
BRANCH   7  12
ATOM     12  O   UNL     1      88.170  64.680  86.978  0.00  0.00    +0.000 OA
BRANCH  12  13
ATOM     13  C   UNL     1      88.752  64.076  88.143  0.00  0.00    +0.000 C 
BRANCH  13  14
ATOM     14  C   UNL     1      87.691  63.347  88.936  0.00  0.00    +0.000 A 
ATOM     15  C   UNL     1      86.979  62.271  88.383  0.00  0.00    +0.000 A 
ATOM     16  C   UNL     1      85.972  61.635  89.112  0.00  0.00    +0.000 A 
ATOM     17  C   UNL     1      85.656  62.073  90.396  0.00  0.00    +0.000 A 
ATOM     18  C   UNL     1      86.345  63.149  90.951  0.00  0.00    +0.000 A 
ATOM     19  C   UNL     1      87.353  63.786  90.224  0.00  0.00    +0.000 A 
ENDBRANCH  13  14
ENDBRANCH  12  13
ENDBRANCH   7  12
TORSDOF 4
ENDMDL
