REMARK  Name = *****
REMARK  6 active torsions:
REMARK  status: ('A' for Active; 'I' for Inactive)
REMARK    1  A    between atoms: C_1  and  C_2
REMARK    2  A    between atoms: C_4  and  C_9
REMARK    3  A    between atoms: C_5  and  C_8
REMARK    4  A    between atoms: C_9  and  C_11
REMARK    5  A    between atoms: C_11  and  C_12
REMARK    6  A    between atoms: C_12  and  C_13
REMARK                            x       y       z     vdW  Elec       q    Type
REMARK                         _______ _______ _______ _____ _____    ______ ____
ROOT
ATOM      1  C   UNL     1      -1.022   2.092  -0.695  0.00  0.00    +0.000 C 
ATOM      2  O   UNL     1      -2.063   2.059  -1.348  0.00  0.00    +0.000 OA
ENDROOT
BRANCH   1   6
ATOM      3  C   UNL     1       2.481  -1.364   0.236  0.00  0.00    +0.000 C 
ATOM      4  C   UNL     1       1.117  -0.796   0.496  0.00  0.00    +0.000 A 
ATOM      5  C   UNL     1       0.687   0.356  -0.174  0.00  0.00    +0.000 A 
ATOM      6  C   UNL     1      -0.601   0.869   0.043  0.00  0.00    +0.000 A 
ATOM      7  C   UNL     1      -1.489   0.220   0.921  0.00  0.00    +0.000 A 
ATOM      8  C   UNL     1      -1.057  -0.948   1.566  0.00  0.00    +0.000 A 
ATOM      9  C   UNL     1       0.230  -1.449   1.357  0.00  0.00    +0.000 A 
ATOM     10  C   UNL     1      -2.886   0.719   1.166  0.00  0.00    +0.000 C 
ENDBRANCH   1   6
BRANCH   1  11
ATOM     11  C   UNL     1      -0.130   3.326  -0.601  0.00  0.00    +0.000 C 
ATOM     12 CL   UNL     1      -0.248   3.946   1.078  0.00  0.00    +0.000 Cl
BRANCH  11  13
ATOM     13  C   UNL     1      -0.561   4.393  -1.615  0.00  0.00    +0.000 C 
BRANCH  13  14
ATOM     14  C   UNL     1       0.462   5.492  -1.793  0.00  0.00    +0.000 A 
ATOM     15  C   UNL     1       1.562   5.307  -2.642  0.00  0.00    +0.000 A 
ATOM     16  C   UNL     1       2.517   6.314  -2.793  0.00  0.00    +0.000 A 
ATOM     17  C   UNL     1       2.382   7.514  -2.097  0.00  0.00    +0.000 A 
ATOM     18  C   UNL     1       1.292   7.708  -1.251  0.00  0.00    +0.000 A 
ATOM     19  C   UNL     1       0.336   6.703  -1.099  0.00  0.00    +0.000 A 
ENDBRANCH  13  14
ENDBRANCH  11  13
ENDBRANCH   1  11
TORSDOF 4
