MODEL 1
REMARK VINA RESULT:      -4.8      0.000      0.000
REMARK  Name = *****
REMARK  1 active torsions:
REMARK  status: ('A' for Active; 'I' for Inactive)
REMARK    1  A    between atoms: C_3  and  C_11
REMARK                            x       y       z     vdW  Elec       q    Type
REMARK                         _______ _______ _______ _____ _____    ______ ____
ROOT
ATOM      1  C   UNL     1      99.752 127.337  82.656  0.00  0.00    +0.000 C 
ATOM      2  C   UNL     1     100.839 126.372  82.317  0.00  0.00    +0.000 C 
ATOM      3  C   UNL     1     102.148 126.524  82.554  0.00  0.00    +0.000 C 
ATOM      4  S   UNL     1     102.870 127.893  83.302  0.00  0.00    +0.000 S 
ATOM      5  C   UNL     1     101.466 128.902  83.728  0.00  0.00    +0.000 A 
ATOM      6  C   UNL     1     101.734 130.090  84.428  0.00  0.00    +0.000 A 
ATOM      7  C   UNL     1     100.705 130.952  84.807  0.00  0.00    +0.000 A 
ATOM      8  C   UNL     1      99.390 130.638  84.488  0.00  0.00    +0.000 A 
ATOM      9  C   UNL     1      99.110 129.462  83.793  0.00  0.00    +0.000 A 
ATOM     10  C   UNL     1     100.141 128.581  83.407  0.00  0.00    +0.000 A 
ENDROOT
BRANCH   3  11
ATOM     11  C   UNL     1     103.082 125.464  82.147  0.00  0.00    +0.000 A 
ATOM     12  C   UNL     1     103.459 125.328  80.803  0.00  0.00    +0.000 A 
ATOM     13  C   UNL     1     104.330 124.308  80.415  0.00  0.00    +0.000 A 
ATOM     14  C   UNL     1     104.826 123.414  81.364  0.00  0.00    +0.000 A 
ATOM     15  C   UNL     1     104.453 123.539  82.701  0.00  0.00    +0.000 A 
ATOM     16  C   UNL     1     103.581 124.558  83.093  0.00  0.00    +0.000 A 
ENDBRANCH   3  11
TORSDOF 1
ENDMDL
