MODEL 1
REMARK VINA RESULT:      -4.5      0.000      0.000
REMARK  Name = *****
REMARK  5 active torsions:
REMARK  status: ('A' for Active; 'I' for Inactive)
REMARK    1  A    between atoms: C_1  and  N_2
REMARK    2  A    between atoms: N_2  and  C_3
REMARK    3  A    between atoms: N_2  and  C_4
REMARK    4  A    between atoms: C_9  and  C_10
REMARK    5  A    between atoms: C_11  and  C_12
REMARK                            x       y       z     vdW  Elec       q    Type
REMARK                         _______ _______ _______ _____ _____    ______ ____
ROOT
ATOM      1  C   UNL     1     101.306 128.063  83.627  0.00  0.00    +0.000 A 
ATOM      2  C   UNL     1     100.261 128.931  84.004  0.00  0.00    +0.000 A 
ATOM      3  C   UNL     1      98.958 128.766  83.533  0.00  0.00    +0.000 A 
ATOM      4  C   UNL     1      98.664 127.716  82.673  0.00  0.00    +0.000 A 
ATOM      5  C   UNL     1      99.673 126.834  82.292  0.00  0.00    +0.000 A 
ATOM      6  C   UNL     1     100.992 126.991  82.761  0.00  0.00    +0.000 A 
ENDROOT
BRANCH   1   8
ATOM      7  C   UNL     1     102.920 127.662  85.422  0.00  0.00    +0.000 C 
ATOM      8  N   UNL     1     102.572 128.347  84.182  0.00  0.00    +0.000 N 
ATOM      9  C   UNL     1     102.861 129.783  84.170  0.00  0.00    +0.000 C 
ENDBRANCH   1   8
BRANCH   6  10
ATOM     10  C   UNL     1     101.956 125.970  82.328  0.00  0.00    +0.000 C 
ATOM     11  C   UNL     1     102.804 126.192  81.312  0.00  0.00    +0.000 C 
BRANCH  11  12
ATOM     12  C   UNL     1     103.808 125.231  80.832  0.00  0.00    +0.000 A 
ATOM     13  C   UNL     1     104.658 125.499  79.749  0.00  0.00    +0.000 A 
ATOM     14  C   UNL     1     105.618 124.566  79.349  0.00  0.00    +0.000 A 
ATOM     15  C   UNL     1     105.749 123.360  80.033  0.00  0.00    +0.000 A 
ATOM     16  C   UNL     1     104.923 123.087  81.121  0.00  0.00    +0.000 A 
ATOM     17  C   UNL     1     103.963 124.020  81.520  0.00  0.00    +0.000 A 
ENDBRANCH  11  12
ENDBRANCH   6  10
TORSDOF 3
ENDMDL
