MODEL 1
REMARK VINA RESULT:      -5.0      0.000      0.000
REMARK  Name = *****
REMARK  2 active torsions:
REMARK  status: ('A' for Active; 'I' for Inactive)
REMARK    1  A    between atoms: C_1  and  C_2
REMARK    2  A    between atoms: C_3  and  C_7
REMARK                            x       y       z     vdW  Elec       q    Type
REMARK                         _______ _______ _______ _____ _____    ______ ____
ROOT
ATOM      1  C   UNL     1      89.231  70.469  87.332  0.00  0.00    +0.000 C 
ATOM      2  C   UNL     1      87.957  70.628  87.749  0.00  0.00    +0.000 C 
ATOM      3  C   UNL     1      86.739  70.337  86.895  0.00  0.00    +0.000 C 
ATOM      4  C   UNL     1      85.820  71.551  86.875  0.00  0.00    +0.000 C 
ATOM      5  C   UNL     1      85.310  71.852  88.279  0.00  0.00    +0.000 C 
ATOM      6  C   UNL     1      86.392  71.802  89.332  0.00  0.00    +0.000 A 
ATOM      7  C   UNL     1      86.092  72.330  90.602  0.00  0.00    +0.000 A 
ATOM      8  C   UNL     1      87.020  72.261  91.638  0.00  0.00    +0.000 A 
ATOM      9  C   UNL     1      88.247  71.648  91.423  0.00  0.00    +0.000 A 
ATOM     10  C   UNL     1      88.552  71.114  90.168  0.00  0.00    +0.000 A 
ATOM     11  C   UNL     1      87.643  71.193  89.096  0.00  0.00    +0.000 A 
ENDROOT
BRANCH   1  14
ATOM     12  C   UNL     1      89.493  67.451  86.481  0.00  0.00    +0.000 C 
ATOM     13  C   UNL     1      89.688  68.652  85.613  0.00  0.00    +0.000 A 
ATOM     14  C   UNL     1      89.568  69.968  86.043  0.00  0.00    +0.000 A 
ATOM     15  S   UNL     1      89.833  71.082  84.759  0.00  0.00    +0.000 S 
ATOM     16  C   UNL     1      90.144  69.830  83.645  0.00  0.00    +0.000 A 
ATOM     17  C   UNL     1      90.032  68.587  84.222  0.00  0.00    +0.000 A 
ENDBRANCH   1  14
TORSDOF 1
ENDMDL
