MODEL 1
REMARK VINA RESULT:      -4.7      0.000      0.000
REMARK  Name = *****
REMARK  2 active torsions:
REMARK  status: ('A' for Active; 'I' for Inactive)
REMARK    1  A    between atoms: C_3  and  C_7
REMARK    2  A    between atoms: C_8  and  C_9
REMARK                            x       y       z     vdW  Elec       q    Type
REMARK                         _______ _______ _______ _____ _____    ______ ____
ROOT
ATOM      1  C   UNL     1     102.121 126.325  81.960  0.00  0.00    +0.000 C 
ATOM      2  C   UNL     1     102.986 125.654  81.467  0.00  0.00    +0.000 C 
ENDROOT
BRANCH   1   5
ATOM      3  C   UNL     1      98.621 127.808  82.750  0.00  0.00    +0.000 C 
ATOM      4  C   UNL     1      99.653 126.729  82.370  0.00  0.00    +0.000 C 
ATOM      5  C   UNL     1     101.098 127.134  82.540  0.00  0.00    +0.000 C 
ATOM      6  C   UNL     1     101.440 128.229  83.240  0.00  0.00    +0.000 C 
ATOM      7  C   UNL     1     100.451 129.068  83.873  0.00  0.00    +0.000 C 
ATOM      8  C   UNL     1      99.142 128.891  83.651  0.00  0.00    +0.000 C 
ENDBRANCH   1   5
BRANCH   2   9
ATOM      9  C   UNL     1     104.018 124.862  80.871  0.00  0.00    +0.000 A 
ATOM     10  C   UNL     1     104.284 123.580  81.355  0.00  0.00    +0.000 A 
ATOM     11  C   UNL     1     105.295 122.809  80.777  0.00  0.00    +0.000 A 
ATOM     12  C   UNL     1     106.041 123.322  79.714  0.00  0.00    +0.000 A 
ATOM     13  C   UNL     1     105.776 124.602  79.229  0.00  0.00    +0.000 A 
ATOM     14  C   UNL     1     104.765 125.373  79.807  0.00  0.00    +0.000 A 
ENDBRANCH   2   9
TORSDOF 2
ENDMDL
