MODEL 1
REMARK VINA RESULT:      -4.6      0.000      0.000
REMARK  Name = *****
REMARK  4 active torsions:
REMARK  status: ('A' for Active; 'I' for Inactive)
REMARK    1  A    between atoms: C_1  and  C_2
REMARK    2  A    between atoms: C_5  and  C_8
REMARK    3  A    between atoms: C_8  and  P_9
REMARK    4  A    between atoms: P_9  and  C_11
REMARK                            x       y       z     vdW  Elec       q    Type
REMARK                         _______ _______ _______ _____ _____    ______ ____
ROOT
ATOM      1  P   UNL     1      88.144  70.704  85.008  0.00  0.00    +0.000 P 
ATOM      2  O   UNL     1      87.991  69.758  83.844  0.00  0.00    +0.000 OA
ATOM      3 CL   UNL     1      89.159  72.339  84.409  0.00  0.00    +0.000 Cl
ENDROOT
BRANCH   1   4
ATOM      4  C   UNL     1      86.644  71.378  85.674  0.00  0.00    +0.000 A 
ATOM      5  C   UNL     1      85.650  71.932  84.854  0.00  0.00    +0.000 A 
ATOM      6  C   UNL     1      84.486  72.471  85.410  0.00  0.00    +0.000 A 
ATOM      7  C   UNL     1      84.304  72.462  86.790  0.00  0.00    +0.000 A 
ATOM      8  C   UNL     1      85.282  71.914  87.618  0.00  0.00    +0.000 A 
ATOM      9  C   UNL     1      86.444  71.375  87.062  0.00  0.00    +0.000 A 
ENDBRANCH   1   4
BRANCH   1  10
ATOM     10  C   UNL     1      89.144  70.011  86.345  0.00  0.00    +0.000 C 
BRANCH  10  15
ATOM     11  C   UNL     1      88.650  64.316  87.472  0.00  0.00    +0.000 C 
ATOM     12  C   UNL     1      88.757  65.778  87.154  0.00  0.00    +0.000 A 
ATOM     13  C   UNL     1      87.784  66.677  87.603  0.00  0.00    +0.000 A 
ATOM     14  C   UNL     1      87.904  68.044  87.339  0.00  0.00    +0.000 A 
ATOM     15  C   UNL     1      89.007  68.536  86.630  0.00  0.00    +0.000 A 
ATOM     16  C   UNL     1      89.987  67.638  86.194  0.00  0.00    +0.000 A 
ATOM     17  C   UNL     1      89.866  66.272  86.459  0.00  0.00    +0.000 A 
ENDBRANCH  10  15
ENDBRANCH   1  10
TORSDOF 3
ENDMDL
