REMARK  Name = *****
REMARK  4 active torsions:
REMARK  status: ('A' for Active; 'I' for Inactive)
REMARK    1  A    between atoms: C_1  and  C_2
REMARK    2  A    between atoms: C_2  and  O_3
REMARK    3  A    between atoms: O_3  and  C_4
REMARK    4  A    between atoms: C_7  and  C_8
REMARK                            x       y       z     vdW  Elec       q    Type
REMARK                         _______ _______ _______ _____ _____    ______ ____
ROOT
ATOM      1  C   UNL     1       4.398   1.536   1.030  0.00  0.00    +0.000 C 
ATOM      2  N   UNL     1       5.178   1.450  -0.004  0.00  0.00    +0.000 NA
ATOM      3  C   UNL     1       6.466   1.432   0.517  0.00  0.00    +0.000 C 
ATOM      4  C   UNL     1       7.600   1.324  -0.193  0.00  0.00    +0.000 C 
ATOM      5  C   UNL     1       6.418   1.522   1.984  0.00  0.00    +0.000 A 
ATOM      6  C   UNL     1       7.372   1.552   2.985  0.00  0.00    +0.000 A 
ATOM      7  C   UNL     1       6.933   1.648   4.313  0.00  0.00    +0.000 A 
ATOM      8  C   UNL     1       5.560   1.714   4.622  0.00  0.00    +0.000 A 
ATOM      9  C   UNL     1       4.602   1.685   3.608  0.00  0.00    +0.000 A 
ATOM     10  C   UNL     1       5.069   1.590   2.312  0.00  0.00    +0.000 A 
ENDROOT
BRANCH   4  11
ATOM     11  C   UNL     1       7.708   1.221  -1.657  0.00  0.00    +0.000 A 
ATOM     12  C   UNL     1       6.923   1.990  -2.525  0.00  0.00    +0.000 A 
ATOM     13  C   UNL     1       7.090   1.897  -3.910  0.00  0.00    +0.000 A 
ATOM     14  C   UNL     1       8.051   1.041  -4.442  0.00  0.00    +0.000 A 
ATOM     15  C   UNL     1       8.849   0.281  -3.590  0.00  0.00    +0.000 A 
ATOM     16  C   UNL     1       8.683   0.375  -2.205  0.00  0.00    +0.000 A 
ENDBRANCH   4  11
BRANCH   1  17
ATOM     17  O   UNL     1       3.056   1.583   1.051  0.00  0.00    +0.000 OA
BRANCH  17  19
ATOM     18  C   UNL     1       0.928   1.563  -0.036  0.00  0.00    +0.000 C 
ATOM     19  C   UNL     1       2.430   1.513  -0.238  0.00  0.00    +0.000 C 
ENDBRANCH  17  19
ENDBRANCH   1  17
TORSDOF 3
