MODEL 1
REMARK VINA RESULT:      -4.9      0.000      0.000
REMARK  Name = *****
REMARK  5 active torsions:
REMARK  status: ('A' for Active; 'I' for Inactive)
REMARK    1  A    between atoms: C_1  and  C_2
REMARK    2  A    between atoms: C_2  and  O_4
REMARK    3  A    between atoms: O_4  and  C_5
REMARK    4  A    between atoms: C_8  and  C_11
REMARK    5  A    between atoms: C_12  and  C_13
REMARK                            x       y       z     vdW  Elec       q    Type
REMARK                         _______ _______ _______ _____ _____    ______ ____
ROOT
ATOM      1  C   UNL     1     105.852 122.900  80.703  0.00  0.00    +0.000 A 
ATOM      2  C   UNL     1     105.606 123.859  79.723  0.00  0.00    +0.000 A 
ATOM      3  C   UNL     1     104.669 124.866  79.970  0.00  0.00    +0.000 A 
ATOM      4  C   UNL     1     103.958 124.899  81.179  0.00  0.00    +0.000 A 
ATOM      5  C   UNL     1     104.219 123.919  82.149  0.00  0.00    +0.000 A 
ATOM      6  C   UNL     1     105.155 122.910  81.908  0.00  0.00    +0.000 A 
ENDROOT
BRANCH   4   7
ATOM      7  C   UNL     1     102.987 125.959  81.487  0.00  0.00    +0.000 C 
ATOM      8  C   UNL     1     102.096 125.883  82.490  0.00  0.00    +0.000 C 
BRANCH   8   9
ATOM      9  C   UNL     1     101.135 126.946  82.815  0.00  0.00    +0.000 A 
ATOM     10  C   UNL     1     101.529 128.174  83.365  0.00  0.00    +0.000 A 
ATOM     11  C   UNL     1     100.578 129.160  83.625  0.00  0.00    +0.000 A 
ATOM     12  C   UNL     1      99.236 128.960  83.340  0.00  0.00    +0.000 A 
ATOM     13  C   UNL     1      98.850 127.751  82.781  0.00  0.00    +0.000 A 
ATOM     14  C   UNL     1      99.782 126.749  82.512  0.00  0.00    +0.000 A 
ATOM     15  F   UNL     1      97.559 127.542  82.493  0.00  0.00    +0.000 F 
ATOM     16  F   UNL     1     100.972 130.325  84.154  0.00  0.00    +0.000 F 
ENDBRANCH   8   9
ENDBRANCH   4   7
BRANCH   1  17
ATOM     17  O   UNL     1     106.739 121.842  80.476  0.00  0.00    +0.000 OA
BRANCH  17  19
ATOM     18  C   UNL     1     108.738 122.487  81.528  0.00  0.00    +0.000 C 
ATOM     19  C   UNL     1     108.056 122.210  80.221  0.00  0.00    +0.000 C 
ATOM     20  O   UNL     1     108.596 122.311  79.128  0.00  0.00    +0.000 OA
ENDBRANCH  17  19
ENDBRANCH   1  17
TORSDOF 4
ENDMDL
