MODEL 1
REMARK VINA RESULT:      -4.9      0.000      0.000
REMARK  Name = *****
REMARK  3 active torsions:
REMARK  status: ('A' for Active; 'I' for Inactive)
REMARK    1  A    between atoms: C_1  and  C_2
REMARK    2  A    between atoms: C_2  and  C_11
REMARK    3  A    between atoms: N_3  and  C_4
REMARK                            x       y       z     vdW  Elec       q    Type
REMARK                         _______ _______ _______ _____ _____    ______ ____
ROOT
ATOM      1  C   UNL     1     103.070 127.165  81.045  0.00  0.00    +0.000 C 
ATOM      2  C   UNL     1     102.823 125.926  81.886  0.00  0.00    +0.000 C 
ATOM      3  N   UNL     1     101.859 125.815  82.754  0.00  0.00    +0.000 NA
ENDROOT
BRANCH   3   4
ATOM      4  C   UNL     1     100.957 126.869  82.950  0.00  0.00    +0.000 A 
ATOM      5  C   UNL     1     101.359 128.036  83.600  0.00  0.00    +0.000 A 
ATOM      6  C   UNL     1     100.455 129.079  83.760  0.00  0.00    +0.000 A 
ATOM      7  C   UNL     1      99.157 128.989  83.269  0.00  0.00    +0.000 A 
ATOM      8  C   UNL     1      98.756 127.835  82.599  0.00  0.00    +0.000 A 
ATOM      9  C   UNL     1      99.659 126.781  82.435  0.00  0.00    +0.000 A 
ATOM     10  F   UNL     1     100.841 130.193  84.396  0.00  0.00    +0.000 F 
ENDBRANCH   3   4
BRANCH   2  11
ATOM     11  C   UNL     1     103.735 124.755  81.694  0.00  0.00    +0.000 A 
ATOM     12  C   UNL     1     104.256 124.430  80.435  0.00  0.00    +0.000 A 
ATOM     13  C   UNL     1     105.099 123.323  80.290  0.00  0.00    +0.000 A 
ATOM     14  C   UNL     1     105.417 122.539  81.400  0.00  0.00    +0.000 A 
ATOM     15  C   UNL     1     104.893 122.848  82.653  0.00  0.00    +0.000 A 
ATOM     16  C   UNL     1     104.049 123.952  82.800  0.00  0.00    +0.000 A 
ATOM     17 CL   UNL     1     106.454 121.180  81.215  0.00  0.00    +0.000 Cl
ENDBRANCH   2  11
TORSDOF 2
ENDMDL
