MODEL 1
REMARK VINA RESULT:      -4.5      0.000      0.000
REMARK  Name = *****
REMARK  3 active torsions:
REMARK  status: ('A' for Active; 'I' for Inactive)
REMARK    1  A    between atoms: C_5  and  S_7
REMARK    2  A    between atoms: S_7  and  C_8
REMARK    3  A    between atoms: C_8  and  C_9
REMARK                            x       y       z     vdW  Elec       q    Type
REMARK                         _______ _______ _______ _____ _____    ______ ____
ROOT
ATOM      1  C   UNL     1     103.942 127.467  83.143  0.00  0.00    +0.000 C 
ENDROOT
BRANCH   1   2
ATOM      2  C   UNL     1     104.072 126.184  82.353  0.00  0.00    +0.000 A 
ATOM      3  C   UNL     1     103.912 126.131  80.956  0.00  0.00    +0.000 A 
ATOM      4  C   UNL     1     104.060 124.925  80.268  0.00  0.00    +0.000 A 
ATOM      5  C   UNL     1     104.375 123.770  80.970  0.00  0.00    +0.000 A 
ATOM      6  C   UNL     1     104.548 123.794  82.347  0.00  0.00    +0.000 A 
ATOM      7  C   UNL     1     104.400 124.997  83.038  0.00  0.00    +0.000 A 
ATOM      8  F   UNL     1     104.517 122.614  80.309  0.00  0.00    +0.000 F 
ATOM      9 CL   UNL     1     103.525 127.534  80.024  0.00  0.00    +0.000 Cl
ENDBRANCH   1   2
BRANCH   1  10
ATOM     10  S   UNL     1     102.793 127.263  84.544  0.00  0.00    +0.000 S 
BRANCH  10  15
ATOM     11  C   UNL     1      99.356 129.255  83.433  0.00  0.00    +0.000 A 
ATOM     12  C   UNL     1      98.689 128.264  82.720  0.00  0.00    +0.000 A 
ATOM     13  C   UNL     1      99.278 127.015  82.583  0.00  0.00    +0.000 A 
ATOM     14  C   UNL     1     100.520 126.741  83.146  0.00  0.00    +0.000 A 
ATOM     15  C   UNL     1     101.205 127.729  83.866  0.00  0.00    +0.000 A 
ATOM     16  C   UNL     1     100.606 128.989  84.004  0.00  0.00    +0.000 A 
ATOM     17  F   UNL     1      98.638 126.058  81.898  0.00  0.00    +0.000 F 
ENDBRANCH  10  15
ENDBRANCH   1  10
TORSDOF 3
ENDMDL
