REMARK  Name = *****
REMARK  3 active torsions:
REMARK  status: ('A' for Active; 'I' for Inactive)
REMARK    1  A    between atoms: C_7  and  O_8
REMARK    2  A    between atoms: O_8  and  C_9
REMARK    3  A    between atoms: C_9  and  C_11
REMARK                            x       y       z     vdW  Elec       q    Type
REMARK                         _______ _______ _______ _____ _____    ______ ____
ROOT
ATOM      1  C   UNL     1       4.834   0.377   0.060  0.00  0.00    +0.000 A 
ATOM      2  C   UNL     1       5.103   1.150   1.187  0.00  0.00    +0.000 A 
ATOM      3  C   UNL     1       6.301   0.985   1.873  0.00  0.00    +0.000 A 
ATOM      4  C   UNL     1       7.233   0.054   1.434  0.00  0.00    +0.000 A 
ATOM      5  C   UNL     1       6.970  -0.712   0.306  0.00  0.00    +0.000 A 
ATOM      6  C   UNL     1       5.773  -0.550  -0.384  0.00  0.00    +0.000 A 
ATOM      7  F   UNL     1       5.528  -1.314  -1.458  0.00  0.00    +0.000 F 
ATOM      8  F   UNL     1       7.867  -1.614  -0.115  0.00  0.00    +0.000 F 
ATOM      9  F   UNL     1       8.386  -0.105   2.098  0.00  0.00    +0.000 F 
ATOM     10  F   UNL     1       6.558   1.729   2.957  0.00  0.00    +0.000 F 
ATOM     11  F   UNL     1       4.227   2.073   1.611  0.00  0.00    +0.000 F 
ENDROOT
BRANCH   1  12
ATOM     12  C   UNL     1       3.590   0.550  -0.686  0.00  0.00    +0.000 C 
ATOM     13  O   UNL     1       3.541   0.730  -1.889  0.00  0.00    +0.000 OA
BRANCH  12  14
ATOM     14  O   UNL     1       2.552   0.423   0.172  0.00  0.00    +0.000 OA
BRANCH  14  21
ATOM     15  C   UNL     1      -1.571  -0.212  -0.633  0.00  0.00    +0.000 C 
ATOM     16  C   UNL     1      -1.144   1.078   0.083  0.00  0.00    +0.000 C 
ATOM     17  C   UNL     1       0.208   0.694   0.705  0.00  0.00    +0.000 C 
ATOM     18  C   UNL     1      -0.039  -0.764   1.102  0.00  0.00    +0.000 C 
ATOM     19  C   UNL     1      -0.420  -1.182  -0.316  0.00  0.00    +0.000 C 
ATOM     20  C   UNL     1       0.828  -0.760  -1.114  0.00  0.00    +0.000 C 
ATOM     21  C   UNL     1       1.252   0.552  -0.423  0.00  0.00    +0.000 C 
ENDBRANCH  14  21
ENDBRANCH  12  14
ENDBRANCH   1  12
TORSDOF 3
