MODEL 1
REMARK VINA RESULT:      -4.1      0.000      0.000
REMARK  Name = *****
REMARK  4 active torsions:
REMARK  status: ('A' for Active; 'I' for Inactive)
REMARK    1  A    between atoms: C_4  and  O_7
REMARK    2  A    between atoms: O_7  and  N_8
REMARK    3  A    between atoms: N_8  and  C_9
REMARK    4  A    between atoms: C_9  and  C_10
REMARK                            x       y       z     vdW  Elec       q    Type
REMARK                         _______ _______ _______ _____ _____    ______ ____
ROOT
ATOM      1  C   UNL     1      87.629  63.796  86.138  0.00  0.00    +0.000 C 
ENDROOT
BRANCH   1   2
ATOM      2  C   UNL     1      88.913  64.475  85.873  0.00  0.00    +0.000 A 
ATOM      3  C   UNL     1      89.185  65.773  86.335  0.00  0.00    +0.000 A 
ATOM      4  C   UNL     1      90.420  66.373  86.056  0.00  0.00    +0.000 A 
ATOM      5  C   UNL     1      91.392  65.691  85.327  0.00  0.00    +0.000 A 
ATOM      6  C   UNL     1      91.134  64.399  84.876  0.00  0.00    +0.000 A 
ATOM      7  C   UNL     1      89.902  63.790  85.149  0.00  0.00    +0.000 A 
ATOM      8 CL   UNL     1      89.669  62.193  84.522  0.00  0.00    +0.000 Cl
ATOM      9 CL   UNL     1      88.100  66.688  87.323  0.00  0.00    +0.000 Cl
ENDBRANCH   1   2
BRANCH   1  10
ATOM     10  N   UNL     1      87.455  63.015  87.153  0.00  0.00    +0.000 NA
BRANCH  10  11
ATOM     11  O   UNL     1      86.631  63.661  88.087  0.00  0.00    +0.000 OA
BRANCH  11  15
ATOM     12  C   UNL     1      88.459  64.232  91.790  0.00  0.00    +0.000 A 
ATOM     13  C   UNL     1      89.248  63.845  90.706  0.00  0.00    +0.000 A 
ATOM     14  C   UNL     1      88.664  63.642  89.454  0.00  0.00    +0.000 A 
ATOM     15  C   UNL     1      87.289  63.821  89.285  0.00  0.00    +0.000 A 
ATOM     16  C   UNL     1      86.505  64.223  90.369  0.00  0.00    +0.000 A 
ATOM     17  C   UNL     1      87.088  64.423  91.621  0.00  0.00    +0.000 A 
ENDBRANCH  11  15
ENDBRANCH  10  11
ENDBRANCH   1  10
TORSDOF 4
ENDMDL
