MODEL 1
REMARK VINA RESULT:      -4.7      0.000      0.000
REMARK  Name = *****
REMARK  6 active torsions:
REMARK  status: ('A' for Active; 'I' for Inactive)
REMARK    1  A    between atoms: C_1  and  O_2
REMARK    2  A    between atoms: O_2  and  C_3
REMARK    3  A    between atoms: C_3  and  C_4
REMARK    4  A    between atoms: C_3  and  C_10
REMARK    5  A    between atoms: C_10  and  C_11
REMARK    6  A    between atoms: C_10  and  C_13
REMARK                            x       y       z     vdW  Elec       q    Type
REMARK                         _______ _______ _______ _____ _____    ______ ____
ROOT
ATOM      1  C   UNL     1      88.417  69.853  86.734  0.00  0.00    +0.000 C 
ENDROOT
BRANCH   1   2
ATOM      2  C   UNL     1      88.608  68.345  86.853  0.00  0.00    +0.000 A 
ATOM      3  C   UNL     1      89.740  67.707  86.325  0.00  0.00    +0.000 A 
ATOM      4  C   UNL     1      89.907  66.327  86.458  0.00  0.00    +0.000 A 
ATOM      5  C   UNL     1      88.945  65.569  87.120  0.00  0.00    +0.000 A 
ATOM      6  C   UNL     1      87.816  66.189  87.653  0.00  0.00    +0.000 A 
ATOM      7  C   UNL     1      87.648  67.569  87.523  0.00  0.00    +0.000 A 
ENDBRANCH   1   2
BRANCH   1   9
ATOM      8  C   UNL     1      89.844  71.125  85.307  0.00  0.00    +0.000 C 
ATOM      9  O   UNL     1      89.688  70.516  86.583  0.00  0.00    +0.000 OA
ENDBRANCH   1   9
BRANCH   1  10
ATOM     10  C   UNL     1      87.629  70.423  87.967  0.00  0.00    +0.000 C 
BRANCH  10  11
ATOM     11  C   UNL     1      86.384  71.200  87.532  0.00  0.00    +0.000 A 
ATOM     12  C   UNL     1      86.154  71.441  86.167  0.00  0.00    +0.000 A 
ATOM     13  C   UNL     1      85.026  72.150  85.747  0.00  0.00    +0.000 A 
ATOM     14  C   UNL     1      84.111  72.623  86.684  0.00  0.00    +0.000 A 
ATOM     15  C   UNL     1      84.319  72.385  88.040  0.00  0.00    +0.000 A 
ATOM     16  C   UNL     1      85.445  71.675  88.461  0.00  0.00    +0.000 A 
ENDBRANCH  10  11
BRANCH  10  17
ATOM     17  C   UNL     1      88.473  71.258  88.918  0.00  0.00    +0.000 C 
ATOM     18  C   UNL     1      88.529  71.080  90.244  0.00  0.00    +0.000 C 
ENDBRANCH  10  17
ENDBRANCH   1  10
TORSDOF 5
ENDMDL
