MODEL 1
REMARK VINA RESULT:      -4.4      0.000      0.000
REMARK  Name = *****
REMARK  4 active torsions:
REMARK  status: ('A' for Active; 'I' for Inactive)
REMARK    1  A    between atoms: C_4  and  C_7
REMARK    2  A    between atoms: C_7  and  C_8
REMARK    3  A    between atoms: C_7  and  C_10
REMARK    4  A    between atoms: C_10  and  C_12
REMARK                            x       y       z     vdW  Elec       q    Type
REMARK                         _______ _______ _______ _____ _____    ______ ____
ROOT
ATOM      1  C   UNL     1     102.923 125.584  82.115  0.00  0.00    +0.000 C 
ENDROOT
BRANCH   1   5
ATOM      2  C   UNL     1     105.123 129.141  80.980  0.00  0.00    +0.000 A 
ATOM      3  C   UNL     1     104.236 128.547  80.084  0.00  0.00    +0.000 A 
ATOM      4  C   UNL     1     103.526 127.404  80.455  0.00  0.00    +0.000 A 
ATOM      5  C   UNL     1     103.698 126.835  81.727  0.00  0.00    +0.000 A 
ATOM      6  C   UNL     1     104.589 127.451  82.622  0.00  0.00    +0.000 A 
ATOM      7  C   UNL     1     105.298 128.594  82.249  0.00  0.00    +0.000 A 
ENDBRANCH   1   5
BRANCH   1   8
ATOM      8  C   UNL     1     103.827 124.383  82.451  0.00  0.00    +0.000 C 
ATOM      9  I   UNL     1     104.953 123.722  80.729  0.00  0.00    +0.000 I 
ENDBRANCH   1   8
BRANCH   1  10
ATOM     10  C   UNL     1     102.024 125.868  83.321  0.00  0.00    +0.000 C 
ATOM     11  O   UNL     1     102.184 125.310  84.408  0.00  0.00    +0.000 OA
BRANCH  10  12
ATOM     12  C   UNL     1     100.963 126.905  83.207  0.00  0.00    +0.000 A 
ATOM     13  C   UNL     1      99.769 126.672  82.515  0.00  0.00    +0.000 A 
ATOM     14  C   UNL     1      98.794 127.672  82.455  0.00  0.00    +0.000 A 
ATOM     15  C   UNL     1      99.007 128.897  83.086  0.00  0.00    +0.000 A 
ATOM     16  C   UNL     1     100.190 129.127  83.786  0.00  0.00    +0.000 A 
ATOM     17  C   UNL     1     101.165 128.131  83.852  0.00  0.00    +0.000 A 
ENDBRANCH  10  12
ENDBRANCH   1  10
TORSDOF 4
ENDMDL
