MODEL 1
REMARK VINA RESULT:      -5.1      0.000      0.000
REMARK  Name = *****
REMARK  4 active torsions:
REMARK  status: ('A' for Active; 'I' for Inactive)
REMARK    1  A    between atoms: C_1  and  C_2
REMARK    2  A    between atoms: C_2  and  C_18
REMARK    3  A    between atoms: C_4  and  C_9
REMARK    4  A    between atoms: C_10  and  C_11
REMARK                            x       y       z     vdW  Elec       q    Type
REMARK                         _______ _______ _______ _____ _____    ______ ____
ROOT
ATOM      1  C   UNL     1      99.409 130.085  83.419  0.00  0.00    +0.000 C 
ATOM      2  C   UNL     1      99.502 128.940  84.450  0.00  0.00    +0.000 C 
ATOM      3  C   UNL     1     100.652 127.971  84.083  0.00  0.00    +0.000 C 
ATOM      4  C   UNL     1     100.345 127.053  82.917  0.00  0.00    +0.000 C 
ATOM      5  C   UNL     1      99.081 126.802  82.532  0.00  0.00    +0.000 C 
ATOM      6  C   UNL     1      97.921 127.361  83.264  0.00  0.00    +0.000 C 
ATOM      7  O   UNL     1      96.784 127.096  82.879  0.00  0.00    +0.000 OA
ATOM      8  C   UNL     1      98.174 128.171  84.515  0.00  0.00    +0.000 C 
ATOM      9  C   UNL     1      99.792 129.565  85.827  0.00  0.00    +0.000 C 
ENDROOT
BRANCH   4  10
ATOM     10  C   UNL     1     101.443 126.428  82.185  0.00  0.00    +0.000 C 
ATOM     11  C   UNL     1     102.554 127.041  81.745  0.00  0.00    +0.000 C 
BRANCH  11  12
ATOM     12  C   UNL     1     103.626 126.342  81.023  0.00  0.00    +0.000 A 
ATOM     13  C   UNL     1     104.727 127.025  80.488  0.00  0.00    +0.000 A 
ATOM     14  C   UNL     1     105.745 126.328  79.833  0.00  0.00    +0.000 A 
ATOM     15  C   UNL     1     105.672 124.942  79.717  0.00  0.00    +0.000 A 
ATOM     16  C   UNL     1     104.591 124.247  80.256  0.00  0.00    +0.000 A 
ATOM     17  C   UNL     1     103.574 124.946  80.913  0.00  0.00    +0.000 A 
ATOM     18 CL   UNL     1     106.924 124.083  78.911  0.00  0.00    +0.000 Cl
ENDBRANCH  11  12
ENDBRANCH   4  10
TORSDOF 2
ENDMDL
