REMARK  Name = *****
REMARK  6 active torsions:
REMARK  status: ('A' for Active; 'I' for Inactive)
REMARK    1  A    between atoms: C_1  and  O_2
REMARK    2  A    between atoms: O_2  and  C_3
REMARK    3  A    between atoms: C_5  and  O_18
REMARK    4  A    between atoms: C_7  and  C_9
REMARK    5  A    between atoms: C_10  and  C_11
REMARK    6  A    between atoms: O_18  and  C_19
REMARK                            x       y       z     vdW  Elec       q    Type
REMARK                         _______ _______ _______ _____ _____    ______ ____
ROOT
ATOM      1  C   UNL     1       3.163   0.683   0.936  0.00  0.00    +0.000 A 
ATOM      2  C   UNL     1       2.598   0.772   2.210  0.00  0.00    +0.000 A 
ATOM      3  C   UNL     1       3.327   1.337   3.260  0.00  0.00    +0.000 A 
ATOM      4  C   UNL     1       4.624   1.807   3.030  0.00  0.00    +0.000 A 
ATOM      5  C   UNL     1       5.212   1.708   1.764  0.00  0.00    +0.000 A 
ATOM      6  C   UNL     1       4.462   1.155   0.721  0.00  0.00    +0.000 A 
ENDROOT
BRANCH   1   8
ATOM      7  C   UNL     1       1.232  -0.324  -0.029  0.00  0.00    +0.000 C 
ATOM      8  O   UNL     1       2.560   0.163  -0.178  0.00  0.00    +0.000 OA
ENDBRANCH   1   8
BRANCH   5   9
ATOM      9  C   UNL     1       6.561   2.220   1.478  0.00  0.00    +0.000 C 
ATOM     10  C   UNL     1       7.586   2.160   2.344  0.00  0.00    +0.000 C 
BRANCH  10  11
ATOM     11  C   UNL     1       8.937   2.657   2.048  0.00  0.00    +0.000 A 
ATOM     12  C   UNL     1       9.157   3.840   1.327  0.00  0.00    +0.000 A 
ATOM     13  C   UNL     1      10.457   4.296   1.092  0.00  0.00    +0.000 A 
ATOM     14  C   UNL     1      11.536   3.575   1.587  0.00  0.00    +0.000 A 
ATOM     15  C   UNL     1      11.341   2.410   2.317  0.00  0.00    +0.000 A 
ATOM     16  C   UNL     1      10.042   1.954   2.552  0.00  0.00    +0.000 A 
ATOM     17  F   UNL     1      12.782   4.013   1.363  0.00  0.00    +0.000 F 
ENDBRANCH  10  11
ENDBRANCH   5   9
BRANCH   3  18
ATOM     18  O   UNL     1       2.890   1.493   4.549  0.00  0.00    +0.000 OA
ATOM     19  C   UNL     1       1.581   1.029   4.852  0.00  0.00    +0.000 C 
ENDBRANCH   3  18
TORSDOF 4
