REMARK  Name = *****
REMARK  1 active torsions:
REMARK  status: ('A' for Active; 'I' for Inactive)
REMARK    1  A    between atoms: C_8  and  C_10
REMARK                            x       y       z     vdW  Elec       q    Type
REMARK                         _______ _______ _______ _____ _____    ______ ____
ROOT
ATOM      1  C   UNL     1      -2.298  -0.674   0.188  0.00  0.00    +0.000 C 
ATOM      2  C   UNL     1      -2.248   0.765  -0.328  0.00  0.00    +0.000 C 
ATOM      3  C   UNL     1      -1.055   1.533   0.255  0.00  0.00    +0.000 C 
ATOM      4  C   UNL     1       0.194   0.707   0.254  0.00  0.00    +0.000 C 
ATOM      5  C   UNL     1       0.217  -0.617   0.058  0.00  0.00    +0.000 C 
ATOM      6  C   UNL     1      -1.014  -1.444  -0.147  0.00  0.00    +0.000 C 
ATOM      7  C   UNL     1       1.575  -1.258   0.072  0.00  0.00    +0.000 C 
ATOM      8  C   UNL     1       2.644  -0.144   0.071  0.00  0.00    +0.000 C 
ATOM      9  S   UNL     1       1.756   1.412   0.497  0.00  0.00    +0.000 S 
ENDROOT
BRANCH   8  10
ATOM     10  C   UNL     1       3.406  -0.003  -1.234  0.00  0.00    +0.000 A 
ATOM     11  C   UNL     1       2.755   0.077  -2.476  0.00  0.00    +0.000 A 
ATOM     12  C   UNL     1       3.484   0.205  -3.660  0.00  0.00    +0.000 A 
ATOM     13  C   UNL     1       4.875   0.260  -3.621  0.00  0.00    +0.000 A 
ATOM     14  C   UNL     1       5.538   0.192  -2.398  0.00  0.00    +0.000 A 
ATOM     15  C   UNL     1       4.809   0.064  -1.213  0.00  0.00    +0.000 A 
ENDBRANCH   8  10
TORSDOF 1
