MODEL 1
REMARK VINA RESULT:      -5.2      0.000      0.000
REMARK  Name = *****
REMARK  1 active torsions:
REMARK  status: ('A' for Active; 'I' for Inactive)
REMARK    1  A    between atoms: C_10  and  C_11
REMARK                            x       y       z     vdW  Elec       q    Type
REMARK                         _______ _______ _______ _____ _____    ______ ____
ROOT
ATOM      1  C   UNL     1     104.460 127.418  80.017  0.00  0.00    +0.000 C 
ATOM      2  C   UNL     1     104.843 125.981  80.044  0.00  0.00    +0.000 A 
ATOM      3  C   UNL     1     103.949 125.277  80.838  0.00  0.00    +0.000 A 
ATOM      4  C   UNL     1     104.088 123.911  81.026  0.00  0.00    +0.000 A 
ATOM      5  C   UNL     1     105.152 123.274  80.395  0.00  0.00    +0.000 A 
ATOM      6  C   UNL     1     106.059 123.977  79.594  0.00  0.00    +0.000 A 
ATOM      7  C   UNL     1     105.907 125.352  79.412  0.00  0.00    +0.000 A 
ATOM      8  F   UNL     1     105.314 121.954  80.558  0.00  0.00    +0.000 F 
ATOM      9  C   UNL     1     102.984 126.247  81.327  0.00  0.00    +0.000 C 
ATOM     10  C   UNL     1     101.961 125.981  82.154  0.00  0.00    +0.000 C 
ATOM     11  O   UNL     1     103.273 127.519  80.838  0.00  0.00    +0.000 OA
ENDROOT
BRANCH  10  12
ATOM     12  C   UNL     1     100.985 126.957  82.664  0.00  0.00    +0.000 A 
ATOM     13  C   UNL     1     101.366 128.084  83.403  0.00  0.00    +0.000 A 
ATOM     14  C   UNL     1     100.412 129.011  83.831  0.00  0.00    +0.000 A 
ATOM     15  C   UNL     1      99.068 128.827  83.513  0.00  0.00    +0.000 A 
ATOM     16  C   UNL     1      98.678 127.720  82.764  0.00  0.00    +0.000 A 
ATOM     17  C   UNL     1      99.632 126.793  82.336  0.00  0.00    +0.000 A 
ENDBRANCH  10  12
TORSDOF 1
ENDMDL
