MODEL 1
REMARK VINA RESULT:      -4.4      0.000      0.000
REMARK  Name = *****
REMARK  4 active torsions:
REMARK  status: ('A' for Active; 'I' for Inactive)
REMARK    1  A    between atoms: C_4  and  C_7
REMARK    2  A    between atoms: C_7  and  O_8
REMARK    3  A    between atoms: O_8  and  C_9
REMARK    4  A    between atoms: C_9  and  C_10
REMARK                            x       y       z     vdW  Elec       q    Type
REMARK                         _______ _______ _______ _____ _____    ______ ____
ROOT
ATOM      1  C   UNL     1     104.757 124.448  80.323  0.00  0.00    +0.000 C 
ENDROOT
BRANCH   1   2
ATOM      2  C   UNL     1     104.628 123.227  81.196  0.00  0.00    +0.000 A 
ATOM      3  C   UNL     1     104.531 123.387  82.584  0.00  0.00    +0.000 A 
ATOM      4  C   UNL     1     104.438 122.296  83.440  0.00  0.00    +0.000 A 
ATOM      5  C   UNL     1     104.454 121.018  82.901  0.00  0.00    +0.000 A 
ATOM      6  C   UNL     1     104.564 120.821  81.528  0.00  0.00    +0.000 A 
ATOM      7  C   UNL     1     104.657 121.923  80.676  0.00  0.00    +0.000 A 
ATOM      8  F   UNL     1     104.366 119.958  83.714  0.00  0.00    +0.000 F 
ATOM      9  F   UNL     1     104.531 124.621  83.110  0.00  0.00    +0.000 F 
ENDBRANCH   1   2
BRANCH   1  10
ATOM     10  O   UNL     1     103.485 125.063  80.131  0.00  0.00    +0.000 OA
BRANCH  10  11
ATOM     11  C   UNL     1     103.558 126.478  80.295  0.00  0.00    +0.000 C 
BRANCH  11  15
ATOM     12  C   UNL     1     101.459 127.647  83.883  0.00  0.00    +0.000 A 
ATOM     13  C   UNL     1     101.103 126.473  83.221  0.00  0.00    +0.000 A 
ATOM     14  C   UNL     1     101.772 126.097  82.055  0.00  0.00    +0.000 A 
ATOM     15  C   UNL     1     102.798 126.897  81.529  0.00  0.00    +0.000 A 
ATOM     16  C   UNL     1     103.155 128.069  82.213  0.00  0.00    +0.000 A 
ATOM     17  C   UNL     1     102.485 128.444  83.380  0.00  0.00    +0.000 A 
ENDBRANCH  11  15
ENDBRANCH  10  11
ENDBRANCH   1  10
TORSDOF 4
ENDMDL
