MODEL 1
REMARK VINA RESULT:      -4.7      0.000      0.000
REMARK  Name = *****
REMARK  5 active torsions:
REMARK  status: ('A' for Active; 'I' for Inactive)
REMARK    1  A    between atoms: C_1  and  C_2
REMARK    2  A    between atoms: C_2  and  C_3
REMARK    3  A    between atoms: C_2  and  O_9
REMARK    4  A    between atoms: O_9  and  C_10
REMARK    5  A    between atoms: C_10  and  C_12
REMARK                            x       y       z     vdW  Elec       q    Type
REMARK                         _______ _______ _______ _____ _____    ______ ____
ROOT
ATOM      1  O   UNL     1     100.672 127.512  82.401  0.00  0.00    +0.000 OA
ENDROOT
BRANCH   1   3
ATOM      2  C   UNL     1     101.662 125.972  83.985  0.00  0.00    +0.000 C 
ATOM      3  C   UNL     1     101.315 126.230  82.520  0.00  0.00    +0.000 C 
BRANCH   3   4
ATOM      4  C   UNL     1     102.572 126.233  81.666  0.00  0.00    +0.000 A 
ATOM      5  C   UNL     1     103.218 125.041  81.303  0.00  0.00    +0.000 A 
ATOM      6  C   UNL     1     104.363 125.066  80.505  0.00  0.00    +0.000 A 
ATOM      7  C   UNL     1     104.872 126.282  80.051  0.00  0.00    +0.000 A 
ATOM      8  C   UNL     1     104.237 127.473  80.395  0.00  0.00    +0.000 A 
ATOM      9  C   UNL     1     103.093 127.449  81.196  0.00  0.00    +0.000 A 
ENDBRANCH   3   4
ENDBRANCH   1   3
BRANCH   1  10
ATOM     10  C   UNL     1      99.342 127.530  82.654  0.00  0.00    +0.000 C 
ATOM     11  O   UNL     1      98.498 126.830  82.119  0.00  0.00    +0.000 OA
BRANCH  10  12
ATOM     12  C   UNL     1      99.024 128.550  83.690  0.00  0.00    +0.000 A 
ATOM     13  C   UNL     1      99.489 129.858  83.497  0.00  0.00    +0.000 A 
ATOM     14  C   UNL     1      99.212 130.851  84.440  0.00  0.00    +0.000 A 
ATOM     15  C   UNL     1      98.465 130.542  85.576  0.00  0.00    +0.000 A 
ATOM     16  C   UNL     1      97.996 129.244  85.774  0.00  0.00    +0.000 A 
ATOM     17  C   UNL     1      98.275 128.248  84.836  0.00  0.00    +0.000 A 
ENDBRANCH  10  12
ENDBRANCH   1  10
TORSDOF 4
ENDMDL
