MODEL 1
REMARK VINA RESULT:      -4.6      0.000      0.000
REMARK  Name = *****
REMARK  2 active torsions:
REMARK  status: ('A' for Active; 'I' for Inactive)
REMARK    1  A    between atoms: C_4  and  O_7
REMARK    2  A    between atoms: O_7  and  N_8
REMARK                            x       y       z     vdW  Elec       q    Type
REMARK                         _______ _______ _______ _____ _____    ______ ____
ROOT
ATOM      1  N   UNL     1     103.122 126.865  81.996  0.00  0.00    +0.000 N 
ATOM      2  C   UNL     1     103.679 125.636  81.766  0.00  0.00    +0.000 A 
ATOM      3  C   UNL     1     103.807 124.466  82.522  0.00  0.00    +0.000 A 
ATOM      4  C   UNL     1     104.448 123.390  81.898  0.00  0.00    +0.000 A 
ATOM      5  C   UNL     1     104.932 123.489  80.590  0.00  0.00    +0.000 A 
ATOM      6  C   UNL     1     104.793 124.676  79.858  0.00  0.00    +0.000 A 
ATOM      7  C   UNL     1     104.155 125.765  80.467  0.00  0.00    +0.000 A 
ATOM      8  N   UNL     1     103.898 127.028  79.997  0.00  0.00    +0.000 NA
ATOM      9  N   UNL     1     103.291 127.709  80.963  0.00  0.00    +0.000 NA
ENDROOT
BRANCH   1  10
ATOM     10  O   UNL     1     102.591 127.334  83.199  0.00  0.00    +0.000 OA
BRANCH  10  14
ATOM     11  C   UNL     1      98.517 128.142  82.906  0.00  0.00    +0.000 A 
ATOM     12  C   UNL     1      98.995 126.922  82.429  0.00  0.00    +0.000 A 
ATOM     13  C   UNL     1     100.357 126.622  82.514  0.00  0.00    +0.000 A 
ATOM     14  C   UNL     1     101.234 127.541  83.096  0.00  0.00    +0.000 A 
ATOM     15  C   UNL     1     100.757 128.772  83.548  0.00  0.00    +0.000 A 
ATOM     16  C   UNL     1      99.398 129.069  83.461  0.00  0.00    +0.000 A 
ENDBRANCH  10  14
ENDBRANCH   1  10
TORSDOF 2
ENDMDL
