MODEL 1
REMARK VINA RESULT:      -4.9      0.000      0.000
REMARK  Name = *****
REMARK  4 active torsions:
REMARK  status: ('A' for Active; 'I' for Inactive)
REMARK    1  A    between atoms: C_1  and  C_2
REMARK    2  A    between atoms: C_5  and  C_8
REMARK    3  A    between atoms: C_8  and  C_9
REMARK    4  A    between atoms: C_9  and  C_11
REMARK                            x       y       z     vdW  Elec       q    Type
REMARK                         _______ _______ _______ _____ _____    ______ ____
ROOT
ATOM      1  C   UNL     1      88.828  70.106  86.613  0.00  0.00    +0.000 C 
ATOM      2  O   UNL     1      89.679  70.779  87.196  0.00  0.00    +0.000 OA
ENDROOT
BRANCH   1   3
ATOM      3  C   UNL     1      88.865  68.614  86.745  0.00  0.00    +0.000 A 
ATOM      4  C   UNL     1      87.847  67.879  87.367  0.00  0.00    +0.000 A 
ATOM      5  C   UNL     1      87.944  66.488  87.465  0.00  0.00    +0.000 A 
ATOM      6  C   UNL     1      89.053  65.834  86.941  0.00  0.00    +0.000 A 
ATOM      7  C   UNL     1      90.070  66.544  86.317  0.00  0.00    +0.000 A 
ATOM      8  C   UNL     1      89.977  67.934  86.220  0.00  0.00    +0.000 A 
ATOM      9  F   UNL     1      89.141  64.501  87.038  0.00  0.00    +0.000 F 
ENDBRANCH   1   3
BRANCH   1  10
ATOM     10  C   UNL     1      87.759  70.772  85.768  0.00  0.00    +0.000 C 
BRANCH  10  15
ATOM     11  C   UNL     1      83.224  72.941  88.724  0.00  0.00    +0.000 C 
ATOM     12  C   UNL     1      84.377  72.355  87.963  0.00  0.00    +0.000 A 
ATOM     13  C   UNL     1      85.457  71.788  88.647  0.00  0.00    +0.000 A 
ATOM     14  C   UNL     1      86.550  71.273  87.946  0.00  0.00    +0.000 A 
ATOM     15  C   UNL     1      86.579  71.307  86.546  0.00  0.00    +0.000 A 
ATOM     16  C   UNL     1      85.512  71.911  85.866  0.00  0.00    +0.000 A 
ATOM     17  C   UNL     1      84.421  72.430  86.568  0.00  0.00    +0.000 A 
ENDBRANCH  10  15
ENDBRANCH   1  10
TORSDOF 3
ENDMDL
