REMARK  Name = *****
REMARK  4 active torsions:
REMARK  status: ('A' for Active; 'I' for Inactive)
REMARK    1  A    between atoms: C_1  and  C_2
REMARK    2  A    between atoms: C_3  and  S_7
REMARK    3  A    between atoms: S_7  and  S_8
REMARK    4  A    between atoms: S_8  and  C_9
REMARK                            x       y       z     vdW  Elec       q    Type
REMARK                         _______ _______ _______ _____ _____    ______ ____
ROOT
ATOM      1  S   UNL     1       0.599  -2.754  -0.180  0.00  0.00    +0.000 S 
ENDROOT
BRANCH   1   4
ATOM      2  C   UNL     1       2.117   0.027   1.327  0.00  0.00    +0.000 C 
ATOM      3  C   UNL     1       0.908  -0.034   0.481  0.00  0.00    +0.000 A 
ATOM      4  C   UNL     1       0.230  -1.050  -0.158  0.00  0.00    +0.000 A 
ATOM      5  C   UNL     1      -0.874  -0.456  -0.813  0.00  0.00    +0.000 A 
ATOM      6  C   UNL     1      -0.793   0.890  -0.544  0.00  0.00    +0.000 A 
ATOM      7  O   UNL     1       0.285   1.157   0.239  0.00  0.00    +0.000 OA
ENDBRANCH   1   4
BRANCH   1   8
ATOM      8  S   UNL     1       2.382  -2.833  -1.201  0.00  0.00    +0.000 S 
BRANCH   8   9
ATOM      9  C   UNL     1       1.892  -2.736  -2.886  0.00  0.00    +0.000 A 
ATOM     10  C   UNL     1       1.028  -3.605  -3.513  0.00  0.00    +0.000 A 
ATOM     11  S   UNL     1       0.790  -3.192  -5.158  0.00  0.00    +0.000 S 
ATOM     12  C   UNL     1       1.857  -1.859  -5.034  0.00  0.00    +0.000 A 
ATOM     13  C   UNL     1       2.381  -1.730  -3.766  0.00  0.00    +0.000 A 
ENDBRANCH   8   9
ENDBRANCH   1   8
TORSDOF 3
