MODEL 1
REMARK VINA RESULT:      -5.0      0.000      0.000
REMARK  Name = *****
REMARK  4 active torsions:
REMARK  status: ('A' for Active; 'I' for Inactive)
REMARK    1  A    between atoms: C_1  and  C_2
REMARK    2  A    between atoms: C_7  and  O_8
REMARK    3  A    between atoms: O_8  and  C_9
REMARK    4  A    between atoms: C_9  and  C_11
REMARK                            x       y       z     vdW  Elec       q    Type
REMARK                         _______ _______ _______ _____ _____    ______ ____
ROOT
ATOM      1  C   UNL     1     101.397 126.904  82.836  0.00  0.00    +0.000 A 
ATOM      2  C   UNL     1     100.045 126.883  82.509  0.00  0.00    +0.000 A 
ATOM      3  C   UNL     1      99.237 127.967  82.834  0.00  0.00    +0.000 A 
ATOM      4  C   UNL     1      99.778 129.071  83.480  0.00  0.00    +0.000 A 
ATOM      5  C   UNL     1     101.129 129.093  83.803  0.00  0.00    +0.000 A 
ATOM      6  C   UNL     1     101.941 128.012  83.478  0.00  0.00    +0.000 A 
ATOM      7  F   UNL     1     103.238 128.038  83.816  0.00  0.00    +0.000 F 
ATOM      8  F   UNL     1     101.648 130.154  84.433  0.00  0.00    +0.000 F 
ATOM      9  F   UNL     1      98.996 130.113  83.795  0.00  0.00    +0.000 F 
ATOM     10  F   UNL     1      97.935 127.946  82.518  0.00  0.00    +0.000 F 
ATOM     11  F   UNL     1      99.513 125.833  81.869  0.00  0.00    +0.000 F 
ENDROOT
BRANCH   1  12
ATOM     12  C   UNL     1     102.264 125.785  82.477  0.00  0.00    +0.000 C 
ATOM     13  O   UNL     1     102.667 124.970  83.287  0.00  0.00    +0.000 OA
BRANCH  12  14
ATOM     14  O   UNL     1     102.460 125.840  81.114  0.00  0.00    +0.000 OA
BRANCH  14  21
ATOM     15  C   UNL     1     104.148 128.045  80.476  0.00  0.00    +0.000 C 
ATOM     16  C   UNL     1     104.605 126.621  80.346  0.00  0.00    +0.000 A 
ATOM     17  C   UNL     1     105.896 126.329  79.888  0.00  0.00    +0.000 A 
ATOM     18  C   UNL     1     106.323 125.004  79.767  0.00  0.00    +0.000 A 
ATOM     19  C   UNL     1     105.466 123.955  80.101  0.00  0.00    +0.000 A 
ATOM     20  C   UNL     1     104.181 124.227  80.562  0.00  0.00    +0.000 A 
ATOM     21  C   UNL     1     103.769 125.554  80.701  0.00  0.00    +0.000 A 
ENDBRANCH  14  21
ENDBRANCH  12  14
ENDBRANCH   1  12
TORSDOF 3
ENDMDL
