REMARK  Name = *****
REMARK  5 active torsions:
REMARK  status: ('A' for Active; 'I' for Inactive)
REMARK    1  A    between atoms: C_1  and  O_2
REMARK    2  A    between atoms: O_2  and  C_3
REMARK    3  A    between atoms: C_8  and  C_9
REMARK    4  A    between atoms: C_10  and  C_11
REMARK    5  A    between atoms: C_11  and  C_12
REMARK                            x       y       z     vdW  Elec       q    Type
REMARK                         _______ _______ _______ _____ _____    ______ ____
ROOT
ATOM      1  C   UNL     1       4.567  -1.033   1.558  0.00  0.00    +0.000 C 
ATOM      2  C   UNL     1       3.736  -0.292   2.310  0.00  0.00    +0.000 C 
ENDROOT
BRANCH   1   8
ATOM      3  C   UNL     1       4.717  -2.695  -0.317  0.00  0.00    +0.000 A 
ATOM      4  C   UNL     1       4.482  -3.037  -1.655  0.00  0.00    +0.000 A 
ATOM      5  C   UNL     1       3.856  -2.135  -2.519  0.00  0.00    +0.000 A 
ATOM      6  C   UNL     1       3.464  -0.883  -2.058  0.00  0.00    +0.000 A 
ATOM      7  C   UNL     1       3.692  -0.532  -0.728  0.00  0.00    +0.000 A 
ATOM      8  C   UNL     1       4.303  -1.432   0.162  0.00  0.00    +0.000 A 
BRANCH   3  10
ATOM      9  C   UNL     1       5.753  -4.801   0.141  0.00  0.00    +0.000 C 
ATOM     10  O   UNL     1       5.331  -3.521   0.593  0.00  0.00    +0.000 OA
ENDBRANCH   3  10
ENDBRANCH   1   8
BRANCH   2  11
ATOM     11  C   UNL     1       4.020   0.090   3.735  0.00  0.00    +0.000 C 
BRANCH  11  12
ATOM     12  C   UNL     1       4.107   1.588   3.915  0.00  0.00    +0.000 A 
ATOM     13  C   UNL     1       3.001   2.318   4.378  0.00  0.00    +0.000 A 
ATOM     14  C   UNL     1       3.082   3.703   4.524  0.00  0.00    +0.000 A 
ATOM     15  C   UNL     1       4.264   4.359   4.203  0.00  0.00    +0.000 A 
ATOM     16  C   UNL     1       5.368   3.657   3.736  0.00  0.00    +0.000 A 
ATOM     17  C   UNL     1       5.290   2.272   3.588  0.00  0.00    +0.000 A 
ATOM     18  F   UNL     1       4.339   5.690   4.343  0.00  0.00    +0.000 F 
ENDBRANCH  11  12
ENDBRANCH   2  11
TORSDOF 4
