MODEL 1
REMARK VINA RESULT:      -5.1      0.000      0.000
REMARK  Name = *****
REMARK  2 active torsions:
REMARK  status: ('A' for Active; 'I' for Inactive)
REMARK    1  A    between atoms: C_1  and  C_2
REMARK    2  A    between atoms: C_5  and  C_12
REMARK                            x       y       z     vdW  Elec       q    Type
REMARK                         _______ _______ _______ _____ _____    ______ ____
ROOT
ATOM      1  C   UNL     1     103.371 130.302  84.575  0.00  0.00    +0.000 C 
ATOM      2  C   UNL     1     101.913 130.016  84.327  0.00  0.00    +0.000 A 
ATOM      3  C   UNL     1     101.482 128.799  83.750  0.00  0.00    +0.000 A 
ATOM      4  C   UNL     1     102.497 127.753  83.325  0.00  0.00    +0.000 C 
ATOM      5  C   UNL     1     101.888 126.366  83.055  0.00  0.00    +0.000 C 
ATOM      6  C   UNL     1     100.643 126.509  82.173  0.00  0.00    +0.000 C 
ATOM      7  C   UNL     1      99.578 127.315  82.910  0.00  0.00    +0.000 C 
ATOM      8  C   UNL     1     100.105 128.592  83.517  0.00  0.00    +0.000 A 
ATOM      9  C   UNL     1      99.179 129.571  83.907  0.00  0.00    +0.000 A 
ATOM     10  C   UNL     1      99.606 130.757  84.496  0.00  0.00    +0.000 A 
ATOM     11  C   UNL     1     100.965 130.978  84.704  0.00  0.00    +0.000 A 
ENDROOT
BRANCH   5  12
ATOM     12  C   UNL     1     102.912 125.412  82.462  0.00  0.00    +0.000 A 
ATOM     13  C   UNL     1     103.170 125.436  81.083  0.00  0.00    +0.000 A 
ATOM     14  C   UNL     1     104.102 124.565  80.516  0.00  0.00    +0.000 A 
ATOM     15  C   UNL     1     104.788 123.657  81.319  0.00  0.00    +0.000 A 
ATOM     16  C   UNL     1     104.540 123.618  82.689  0.00  0.00    +0.000 A 
ATOM     17  C   UNL     1     103.609 124.488  83.257  0.00  0.00    +0.000 A 
ENDBRANCH   5  12
TORSDOF 1
ENDMDL
