MODEL 1
REMARK VINA RESULT:      -4.6      0.000      0.000
REMARK  Name = *****
REMARK  4 active torsions:
REMARK  status: ('A' for Active; 'I' for Inactive)
REMARK    1  A    between atoms: C_4  and  C_8
REMARK    2  A    between atoms: C_8  and  O_9
REMARK    3  A    between atoms: O_9  and  C_10
REMARK    4  A    between atoms: C_10  and  C_12
REMARK                            x       y       z     vdW  Elec       q    Type
REMARK                         _______ _______ _______ _____ _____    ______ ____
ROOT
ATOM      1  O   UNL     1     103.772 124.993  80.288  0.00  0.00    +0.000 OA
ENDROOT
BRANCH   1   2
ATOM      2  C   UNL     1     104.809 124.127  80.178  0.00  0.00    +0.000 C 
ATOM      3  O   UNL     1     105.730 124.204  79.382  0.00  0.00    +0.000 OA
BRANCH   2   4
ATOM      4  C   UNL     1     104.679 123.030  81.176  0.00  0.00    +0.000 A 
ATOM      5  C   UNL     1     104.581 123.272  82.554  0.00  0.00    +0.000 A 
ATOM      6  C   UNL     1     104.459 122.205  83.447  0.00  0.00    +0.000 A 
ATOM      7  C   UNL     1     104.434 120.894  82.971  0.00  0.00    +0.000 A 
ATOM      8  C   UNL     1     104.529 120.645  81.603  0.00  0.00    +0.000 A 
ATOM      9  C   UNL     1     104.652 121.709  80.707  0.00  0.00    +0.000 A 
ENDBRANCH   2   4
ENDBRANCH   1   2
BRANCH   1  10
ATOM     10  C   UNL     1     104.084 126.339  80.680  0.00  0.00    +0.000 C 
BRANCH  10  14
ATOM     11  C   UNL     1     102.632 126.181  83.511  0.00  0.00    +0.000 C 
ATOM     12  C   UNL     1     102.400 127.695  83.549  0.00  0.00    +0.000 C 
ATOM     13  C   UNL     1     103.154 128.139  82.277  0.00  0.00    +0.000 C 
ATOM     14  C   UNL     1     102.832 126.993  81.263  0.00  0.00    +0.000 C 
ATOM     15  C   UNL     1     101.992 126.017  82.128  0.00  0.00    +0.000 C 
ATOM     16  C   UNL     1     100.670 126.699  82.407  0.00  0.00    +0.000 C 
ATOM     17  C   UNL     1     100.918 127.711  83.254  0.00  0.00    +0.000 C 
ENDBRANCH  10  14
ENDBRANCH   1  10
TORSDOF 4
ENDMDL
