MODEL 1
REMARK VINA RESULT:      -4.6      0.000      0.000
REMARK  Name = *****
REMARK  4 active torsions:
REMARK  status: ('A' for Active; 'I' for Inactive)
REMARK    1  A    between atoms: C_1  and  C_2
REMARK    2  A    between atoms: C_2  and  C_3
REMARK    3  A    between atoms: C_2  and  C_9
REMARK    4  A    between atoms: C_9  and  C_10
REMARK                            x       y       z     vdW  Elec       q    Type
REMARK                         _______ _______ _______ _____ _____    ______ ____
ROOT
ATOM      1  C   UNL     1      87.358  68.368  87.581  0.00  0.00    +0.000 C 
ATOM      2  C   UNL     1      88.493  69.402  87.567  0.00  0.00    +0.000 C 
ENDROOT
BRANCH   2   3
ATOM      3  C   UNL     1      89.147  69.539  86.194  0.00  0.00    +0.000 A 
ATOM      4  C   UNL     1      89.094  68.518  85.233  0.00  0.00    +0.000 A 
ATOM      5  C   UNL     1      89.682  68.688  83.978  0.00  0.00    +0.000 A 
ATOM      6  C   UNL     1      90.328  69.881  83.663  0.00  0.00    +0.000 A 
ATOM      7  C   UNL     1      90.385  70.907  84.603  0.00  0.00    +0.000 A 
ATOM      8  C   UNL     1      89.797  70.739  85.858  0.00  0.00    +0.000 A 
ENDBRANCH   2   3
BRANCH   2   9
ATOM      9  C   UNL     1      88.131  70.789  88.170  0.00  0.00    +0.000 C 
ATOM     10 CL   UNL     1      88.421  70.804  89.951  0.00  0.00    +0.000 Cl
BRANCH   9  11
ATOM     11  C   UNL     1      86.741  71.320  87.856  0.00  0.00    +0.000 A 
ATOM     12  C   UNL     1      86.292  71.540  86.543  0.00  0.00    +0.000 A 
ATOM     13  C   UNL     1      85.014  72.048  86.298  0.00  0.00    +0.000 A 
ATOM     14  C   UNL     1      84.165  72.348  87.360  0.00  0.00    +0.000 A 
ATOM     15  C   UNL     1      84.592  72.139  88.668  0.00  0.00    +0.000 A 
ATOM     16  C   UNL     1      85.868  71.629  88.914  0.00  0.00    +0.000 A 
ENDBRANCH   9  11
ENDBRANCH   2   9
TORSDOF 3
ENDMDL
