REMARK  Name = *****
REMARK  4 active torsions:
REMARK  status: ('A' for Active; 'I' for Inactive)
REMARK    1  A    between atoms: C_1  and  C_2
REMARK    2  A    between atoms: C_7  and  C_8
REMARK    3  A    between atoms: C_8  and  O_9
REMARK    4  A    between atoms: O_9  and  C_10
REMARK                            x       y       z     vdW  Elec       q    Type
REMARK                         _______ _______ _______ _____ _____    ______ ____
ROOT
ATOM      1  C   UNL     1       0.979  -2.567  -0.007  0.00  0.00    +0.000 C 
ENDROOT
BRANCH   1   8
ATOM      2  C   UNL     1       1.728  -0.307  -1.841  0.00  0.00    +0.000 C 
ATOM      3  C   UNL     1       0.624  -0.168  -0.827  0.00  0.00    +0.000 A 
ATOM      4  C   UNL     1      -0.060   1.054  -0.728  0.00  0.00    +0.000 A 
ATOM      5  C   UNL     1      -1.074   1.233   0.213  0.00  0.00    +0.000 A 
ATOM      6  C   UNL     1      -1.412   0.195   1.074  0.00  0.00    +0.000 A 
ATOM      7  C   UNL     1      -0.740  -1.024   0.992  0.00  0.00    +0.000 A 
ATOM      8  C   UNL     1       0.278  -1.226   0.043  0.00  0.00    +0.000 A 
ENDBRANCH   1   8
BRANCH   1   9
ATOM      9  O   UNL     1       2.301  -2.412   0.504  0.00  0.00    +0.000 OA
BRANCH   9  10
ATOM     10  C   UNL     1       3.120  -3.505   0.455  0.00  0.00    +0.000 A 
ATOM     11  C   UNL     1       2.759  -4.787   0.039  0.00  0.00    +0.000 A 
ATOM     12  C   UNL     1       3.704  -5.818   0.041  0.00  0.00    +0.000 A 
ATOM     13  C   UNL     1       5.011  -5.573   0.461  0.00  0.00    +0.000 A 
ATOM     14  C   UNL     1       5.375  -4.296   0.881  0.00  0.00    +0.000 A 
ATOM     15  C   UNL     1       4.431  -3.269   0.878  0.00  0.00    +0.000 A 
ENDBRANCH   9  10
ENDBRANCH   1   9
TORSDOF 3
