MODEL 1
REMARK VINA RESULT:      -4.8      0.000      0.000
REMARK  Name = *****
REMARK  4 active torsions:
REMARK  status: ('A' for Active; 'I' for Inactive)
REMARK    1  A    between atoms: C_1  and  C_2
REMARK    2  A    between atoms: C_4  and  N_8
REMARK    3  A    between atoms: C_9  and  C_10
REMARK    4  A    between atoms: C_9  and  C_11
REMARK                            x       y       z     vdW  Elec       q    Type
REMARK                         _______ _______ _______ _____ _____    ______ ____
ROOT
ATOM      1  N   UNL     1     102.028 125.773  82.450  0.00  0.00    +0.000 NA
ATOM      2  C   UNL     1     102.958 125.928  81.552  0.00  0.00    +0.000 C 
ATOM      3  C   UNL     1     103.152 127.198  80.742  0.00  0.00    +0.000 C 
ENDROOT
BRANCH   1   7
ATOM      4  C   UNL     1     101.152 130.174  84.533  0.00  0.00    +0.000 C 
ATOM      5  C   UNL     1     100.685 128.987  83.744  0.00  0.00    +0.000 A 
ATOM      6  C   UNL     1     101.571 127.942  83.446  0.00  0.00    +0.000 A 
ATOM      7  C   UNL     1     101.141 126.819  82.734  0.00  0.00    +0.000 A 
ATOM      8  C   UNL     1      99.800 126.719  82.360  0.00  0.00    +0.000 A 
ATOM      9  C   UNL     1      98.905 127.744  82.664  0.00  0.00    +0.000 A 
ATOM     10  C   UNL     1      99.345 128.874  83.355  0.00  0.00    +0.000 A 
ENDBRANCH   1   7
BRANCH   2  11
ATOM     11  C   UNL     1     103.902 124.792  81.309  0.00  0.00    +0.000 A 
ATOM     12  C   UNL     1     104.571 124.715  80.081  0.00  0.00    +0.000 A 
ATOM     13  C   UNL     1     105.454 123.665  79.824  0.00  0.00    +0.000 A 
ATOM     14  C   UNL     1     105.667 122.682  80.789  0.00  0.00    +0.000 A 
ATOM     15  C   UNL     1     104.995 122.744  82.009  0.00  0.00    +0.000 A 
ATOM     16  C   UNL     1     104.109 123.795  82.270  0.00  0.00    +0.000 A 
ENDBRANCH   2  11
TORSDOF 2
ENDMDL
