MODEL 1
REMARK VINA RESULT:      -4.6      0.000      0.000
REMARK  Name = *****
REMARK  3 active torsions:
REMARK  status: ('A' for Active; 'I' for Inactive)
REMARK    1  A    between atoms: C_4  and  C_7
REMARK    2  A    between atoms: C_8  and  O_9
REMARK    3  A    between atoms: O_9  and  C_10
REMARK                            x       y       z     vdW  Elec       q    Type
REMARK                         _______ _______ _______ _____ _____    ______ ____
ROOT
ATOM      1  C   UNL     1      89.980  66.746  86.340  0.00  0.00    +0.000 C 
ATOM      2  C   UNL     1      88.962  65.916  86.593  0.00  0.00    +0.000 C 
ENDROOT
BRANCH   1   6
ATOM      3  C   UNL     1      89.624  70.925  85.500  0.00  0.00    +0.000 A 
ATOM      4  C   UNL     1      89.477  70.475  86.810  0.00  0.00    +0.000 A 
ATOM      5  C   UNL     1      89.585  69.111  87.099  0.00  0.00    +0.000 A 
ATOM      6  C   UNL     1      89.831  68.183  86.079  0.00  0.00    +0.000 A 
ATOM      7  C   UNL     1      89.995  68.651  84.769  0.00  0.00    +0.000 A 
ATOM      8  C   UNL     1      89.886  70.014  84.479  0.00  0.00    +0.000 A 
ENDBRANCH   1   6
BRANCH   2   9
ATOM      9  O   UNL     1      89.168  64.574  86.827  0.00  0.00    +0.000 OA
BRANCH   9  10
ATOM     10  C   UNL     1      88.311  63.955  87.703  0.00  0.00    +0.000 A 
ATOM     11  C   UNL     1      87.391  62.993  87.278  0.00  0.00    +0.000 A 
ATOM     12  C   UNL     1      86.569  62.361  88.212  0.00  0.00    +0.000 A 
ATOM     13  C   UNL     1      86.683  62.684  89.566  0.00  0.00    +0.000 A 
ATOM     14  C   UNL     1      87.617  63.628  89.992  0.00  0.00    +0.000 A 
ATOM     15  C   UNL     1      88.439  64.261  89.058  0.00  0.00    +0.000 A 
ATOM     16 CL   UNL     1      85.671  61.903  90.718  0.00  0.00    +0.000 Cl
ENDBRANCH   9  10
ENDBRANCH   2   9
TORSDOF 3
ENDMDL
