MODEL 1
REMARK VINA RESULT:      -4.1      0.000      0.000
REMARK  Name = *****
REMARK  3 active torsions:
REMARK  status: ('A' for Active; 'I' for Inactive)
REMARK    1  A    between atoms: C_4  and  C_7
REMARK    2  A    between atoms: C_7  and  C_8
REMARK    3  A    between atoms: C_9  and  C_10
REMARK                            x       y       z     vdW  Elec       q    Type
REMARK                         _______ _______ _______ _____ _____    ______ ____
ROOT
ATOM      1  C   UNL     1     104.057 125.998  81.536  0.00  0.00    +0.000 C 
ENDROOT
BRANCH   1   5
ATOM      2  C   UNL     1     105.170 121.788  82.060  0.00  0.00    +0.000 C 
ATOM      3  C   UNL     1     104.412 122.471  83.194  0.00  0.00    +0.000 C 
ATOM      4  C   UNL     1     104.457 123.992  83.068  0.00  0.00    +0.000 C 
ATOM      5  C   UNL     1     103.944 124.469  81.697  0.00  0.00    +0.000 C 
ATOM      6  C   UNL     1     104.715 123.768  80.565  0.00  0.00    +0.000 C 
ATOM      7  C   UNL     1     104.666 122.248  80.698  0.00  0.00    +0.000 C 
ENDBRANCH   1   5
BRANCH   1   8
ATOM      8  C   UNL     1     102.795 126.724  81.905  0.00  0.00    +0.000 C 
ATOM      9  C   UNL     1     101.630 126.110  82.166  0.00  0.00    +0.000 C 
BRANCH   9  10
ATOM     10  C   UNL     1     100.465 126.850  82.509  0.00  0.00    +0.000 A 
ATOM     11  C   UNL     1     100.362 127.967  83.332  0.00  0.00    +0.000 A 
ATOM     12  C   UNL     1      99.002 128.356  83.377  0.00  0.00    +0.000 A 
ATOM     13  C   UNL     1      98.334 127.464  82.580  0.00  0.00    +0.000 A 
ATOM     14  O   UNL     1      99.196 126.560  82.056  0.00  0.00    +0.000 OA
ENDBRANCH   9  10
ENDBRANCH   1   8
TORSDOF 3
ENDMDL
