MODEL 1
REMARK VINA RESULT:      -4.9      0.000      0.000
REMARK  Name = *****
REMARK  2 active torsions:
REMARK  status: ('A' for Active; 'I' for Inactive)
REMARK    1  A    between atoms: C_4  and  C_7
REMARK    2  A    between atoms: C_8  and  C_12
REMARK                            x       y       z     vdW  Elec       q    Type
REMARK                         _______ _______ _______ _____ _____    ______ ____
ROOT
ATOM      1  C   UNL     1      88.475  68.749  85.962  0.00  0.00    +0.000 C 
ATOM      2  C   UNL     1      89.787  68.114  86.442  0.00  0.00    +0.000 C 
ATOM      3  C   UNL     1      89.773  69.093  85.322  0.00  0.00    +0.000 C 
ATOM      4  F   UNL     1      90.022  68.706  84.024  0.00  0.00    +0.000 F 
ATOM      5  F   UNL     1      90.354  70.332  85.487  0.00  0.00    +0.000 F 
ENDROOT
BRANCH   1   9
ATOM      6  C   UNL     1      86.378  71.512  88.565  0.00  0.00    +0.000 A 
ATOM      7  C   UNL     1      86.146  71.534  87.193  0.00  0.00    +0.000 A 
ATOM      8  C   UNL     1      86.825  70.646  86.355  0.00  0.00    +0.000 A 
ATOM      9  C   UNL     1      87.755  69.723  86.863  0.00  0.00    +0.000 A 
ATOM     10  C   UNL     1      87.963  69.716  88.254  0.00  0.00    +0.000 A 
ATOM     11  C   UNL     1      87.286  70.602  89.097  0.00  0.00    +0.000 A 
ENDBRANCH   1   9
BRANCH   2  12
ATOM     12  C   UNL     1      90.022  66.642  86.204  0.00  0.00    +0.000 A 
ATOM     13  C   UNL     1      89.125  65.669  86.675  0.00  0.00    +0.000 A 
ATOM     14  C   UNL     1      89.333  64.308  86.439  0.00  0.00    +0.000 A 
ATOM     15  C   UNL     1      90.445  63.891  85.714  0.00  0.00    +0.000 A 
ATOM     16  C   UNL     1      91.345  64.833  85.225  0.00  0.00    +0.000 A 
ATOM     17  C   UNL     1      91.131  66.193  85.466  0.00  0.00    +0.000 A 
ENDBRANCH   2  12
TORSDOF 2
ENDMDL
