MODEL 1
REMARK VINA RESULT:      -4.6      0.000      0.000
REMARK  Name = *****
REMARK  5 active torsions:
REMARK  status: ('A' for Active; 'I' for Inactive)
REMARK    1  A    between atoms: C_1  and  C_2
REMARK    2  A    between atoms: C_5  and  S_8
REMARK    3  A    between atoms: S_8  and  N_10
REMARK    4  A    between atoms: N_10  and  C_11
REMARK    5  A    between atoms: N_10  and  C_12
REMARK                            x       y       z     vdW  Elec       q    Type
REMARK                         _______ _______ _______ _____ _____    ______ ____
ROOT
ATOM      1  S   UNL     1      87.269  62.999  87.701  0.00  0.00    +0.000 S 
ATOM      2  O   UNL     1      85.831  62.568  87.681  0.00  0.00    +0.000 OA
ENDROOT
BRANCH   1   7
ATOM      3  C   UNL     1      88.197  64.722  93.527  0.00  0.00    +0.000 C 
ATOM      4  C   UNL     1      87.985  64.299  92.102  0.00  0.00    +0.000 A 
ATOM      5  C   UNL     1      89.070  64.063  91.252  0.00  0.00    +0.000 A 
ATOM      6  C   UNL     1      88.859  63.679  89.924  0.00  0.00    +0.000 A 
ATOM      7  C   UNL     1      87.559  63.537  89.423  0.00  0.00    +0.000 A 
ATOM      8  C   UNL     1      86.475  63.770  90.276  0.00  0.00    +0.000 A 
ATOM      9  C   UNL     1      86.686  64.153  91.603  0.00  0.00    +0.000 A 
ENDBRANCH   1   7
BRANCH   1  10
ATOM     10  N   UNL     1      87.419  64.567  87.057  0.00  0.00    +0.000 N 
ATOM     11  C   UNL     1      86.216  65.065  86.383  0.00  0.00    +0.000 C 
BRANCH  10  12
ATOM     12  C   UNL     1      88.679  64.965  86.534  0.00  0.00    +0.000 A 
ATOM     13  C   UNL     1      89.548  64.074  85.878  0.00  0.00    +0.000 A 
ATOM     14  C   UNL     1      90.776  64.499  85.358  0.00  0.00    +0.000 A 
ATOM     15  C   UNL     1      91.174  65.825  85.465  0.00  0.00    +0.000 A 
ATOM     16  C   UNL     1      90.334  66.735  86.094  0.00  0.00    +0.000 A 
ATOM     17  C   UNL     1      89.105  66.308  86.615  0.00  0.00    +0.000 A 
ATOM     18 CL   UNL     1      91.808  63.363  84.575  0.00  0.00    +0.000 Cl
ENDBRANCH  10  12
ENDBRANCH   1  10
TORSDOF 3
ENDMDL
