REMARK  Name = *****
REMARK  4 active torsions:
REMARK  status: ('A' for Active; 'I' for Inactive)
REMARK    1  A    between atoms: C_1  and  C_2
REMARK    2  A    between atoms: C_5  and  S_8
REMARK    3  A    between atoms: S_8  and  S_10
REMARK    4  A    between atoms: S_10  and  C_11
REMARK                            x       y       z     vdW  Elec       q    Type
REMARK                         _______ _______ _______ _____ _____    ______ ____
ROOT
ATOM      1  S   UNL     1      -3.672  -0.428  -0.524  0.00  0.00    +0.000 S 
ATOM      2  O   UNL     1      -3.869  -1.577  -1.472  0.00  0.00    +0.000 OA
ENDROOT
BRANCH   1   7
ATOM      3  C   UNL     1       2.374   0.179   0.222  0.00  0.00    +0.000 C 
ATOM      4  C   UNL     1       0.895   0.039   0.011  0.00  0.00    +0.000 A 
ATOM      5  C   UNL     1       0.010   0.978   0.554  0.00  0.00    +0.000 A 
ATOM      6  C   UNL     1      -1.370   0.831   0.388  0.00  0.00    +0.000 A 
ATOM      7  C   UNL     1      -1.883  -0.266  -0.314  0.00  0.00    +0.000 A 
ATOM      8  C   UNL     1      -1.001  -1.210  -0.849  0.00  0.00    +0.000 A 
ATOM      9  C   UNL     1       0.378  -1.062  -0.681  0.00  0.00    +0.000 A 
ENDBRANCH   1   7
BRANCH   1  10
ATOM     10  S   UNL     1      -4.149  -1.351   1.220  0.00  0.00    +0.000 S 
BRANCH  10  11
ATOM     11  C   UNL     1      -5.931  -1.310   1.182  0.00  0.00    +0.000 A 
ATOM     12  C   UNL     1      -6.655  -2.046   0.239  0.00  0.00    +0.000 A 
ATOM     13  C   UNL     1      -8.051  -2.011   0.235  0.00  0.00    +0.000 A 
ATOM     14  C   UNL     1      -8.732  -1.248   1.182  0.00  0.00    +0.000 A 
ATOM     15  C   UNL     1      -8.019  -0.521   2.134  0.00  0.00    +0.000 A 
ATOM     16  C   UNL     1      -6.622  -0.555   2.136  0.00  0.00    +0.000 A 
ENDBRANCH  10  11
ENDBRANCH   1  10
TORSDOF 3
