REMARK  Name = *****
REMARK  3 active torsions:
REMARK  status: ('A' for Active; 'I' for Inactive)
REMARK    1  A    between atoms: N_5  and  O_6
REMARK    2  A    between atoms: O_6  and  C_7
REMARK    3  A    between atoms: C_7  and  C_8
REMARK                            x       y       z     vdW  Elec       q    Type
REMARK                         _______ _______ _______ _____ _____    ______ ____
ROOT
ATOM      1  C   UNL     1      -4.697   2.658   0.732  0.00  0.00    +0.000 A 
ATOM      2  C   UNL     1      -5.314   3.167  -0.413  0.00  0.00    +0.000 A 
ATOM      3  C   UNL     1      -5.813   4.467  -0.442  0.00  0.00    +0.000 A 
ATOM      4  C   UNL     1      -5.697   5.279   0.676  0.00  0.00    +0.000 A 
ATOM      5  C   UNL     1      -5.081   4.794   1.821  0.00  0.00    +0.000 A 
ATOM      6  C   UNL     1      -4.582   3.494   1.845  0.00  0.00    +0.000 A 
ATOM      7  F   UNL     1      -3.987   3.041   2.958  0.00  0.00    +0.000 F 
ATOM      8  F   UNL     1      -4.965   5.576   2.903  0.00  0.00    +0.000 F 
ATOM      9  F   UNL     1      -6.178   6.530   0.651  0.00  0.00    +0.000 F 
ATOM     10  F   UNL     1      -6.406   4.932  -1.550  0.00  0.00    +0.000 F 
ATOM     11  F   UNL     1      -5.432   2.396  -1.503  0.00  0.00    +0.000 F 
ENDROOT
BRANCH   1  12
ATOM     12  C   UNL     1      -4.121   1.276   0.744  0.00  0.00    +0.000 C 
BRANCH  12  13
ATOM     13  O   UNL     1      -2.772   1.359   0.285  0.00  0.00    +0.000 OA
BRANCH  13  18
ATOM     14  C   UNL     1       1.884  -0.005   0.001  0.00  0.00    +0.000 C 
ATOM     15  C   UNL     1       1.122   1.309   0.178  0.00  0.00    +0.000 C 
ATOM     16  C   UNL     1      -0.205   1.302  -0.575  0.00  0.00    +0.000 C 
ATOM     17  C   UNL     1      -1.002   0.075  -0.176  0.00  0.00    +0.000 C 
ATOM     18  N   UNL     1      -2.234   0.068   0.235  0.00  0.00    +0.000 NA
ATOM     19  C   UNL     1      -0.287  -1.253  -0.316  0.00  0.00    +0.000 C 
ATOM     20  C   UNL     1       1.038  -1.202   0.434  0.00  0.00    +0.000 C 
ENDBRANCH  13  18
ENDBRANCH  12  13
ENDBRANCH   1  12
TORSDOF 3
