MODEL 1
REMARK VINA RESULT:      -4.3      0.000      0.000
REMARK  Name = *****
REMARK  2 active torsions:
REMARK  status: ('A' for Active; 'I' for Inactive)
REMARK    1  A    between atoms: C_3  and  C_7
REMARK    2  A    between atoms: C_8  and  C_9
REMARK                            x       y       z     vdW  Elec       q    Type
REMARK                         _______ _______ _______ _____ _____    ______ ____
ROOT
ATOM      1  C   UNL     1     101.642 126.341  82.240  0.00  0.00    +0.000 C 
ATOM      2  C   UNL     1     102.563 125.672  81.858  0.00  0.00    +0.000 C 
ENDROOT
BRANCH   1   5
ATOM      3  C   UNL     1      98.361 127.709  83.353  0.00  0.00    +0.000 C 
ATOM      4  C   UNL     1      99.124 126.814  82.376  0.00  0.00    +0.000 C 
ATOM      5  C   UNL     1     100.554 127.132  82.686  0.00  0.00    +0.000 C 
ATOM      6  C   UNL     1     100.654 128.246  83.420  0.00  0.00    +0.000 C 
ATOM      7  C   UNL     1      99.318 128.845  83.718  0.00  0.00    +0.000 C 
ATOM      8 BR   UNL     1     102.167 129.083  84.058  0.00  0.00    +0.000 Br
ENDBRANCH   1   5
BRANCH   2   9
ATOM      9  C   UNL     1     103.653 124.873  81.392  0.00  0.00    +0.000 A 
ATOM     10  C   UNL     1     104.220 125.122  80.140  0.00  0.00    +0.000 A 
ATOM     11  C   UNL     1     105.284 124.339  79.686  0.00  0.00    +0.000 A 
ATOM     12  C   UNL     1     105.781 123.308  80.483  0.00  0.00    +0.000 A 
ATOM     13  C   UNL     1     105.217 123.059  81.734  0.00  0.00    +0.000 A 
ATOM     14  C   UNL     1     104.153 123.841  82.189  0.00  0.00    +0.000 A 
ENDBRANCH   2   9
TORSDOF 2
ENDMDL
