MODEL 1
REMARK VINA RESULT:      -4.6      0.000      0.000
REMARK  Name = *****
REMARK  2 active torsions:
REMARK  status: ('A' for Active; 'I' for Inactive)
REMARK    1  A    between atoms: C_1  and  N_2
REMARK    2  A    between atoms: C_3  and  C_11
REMARK                            x       y       z     vdW  Elec       q    Type
REMARK                         _______ _______ _______ _____ _____    ______ ____
ROOT
ATOM      1  C   UNL     1      99.941 126.783  82.459  0.00  0.00    +0.000 C 
ATOM      2  N   UNL     1     100.954 127.686  82.994  0.00  0.00    +0.000 N 
ATOM      3  C   UNL     1     102.252 127.437  82.926  0.00  0.00    +0.000 C 
ATOM      4  S   UNL     1     103.163 128.667  83.693  0.00  0.00    +0.000 S 
ATOM      5  C   UNL     1     101.746 129.568  84.075  0.00  0.00    +0.000 A 
ATOM      6  C   UNL     1     101.641 130.798  84.740  0.00  0.00    +0.000 A 
ATOM      7  C   UNL     1     100.366 131.339  84.924  0.00  0.00    +0.000 A 
ATOM      8  C   UNL     1      99.233 130.676  84.460  0.00  0.00    +0.000 A 
ATOM      9  C   UNL     1      99.344 129.447  83.799  0.00  0.00    +0.000 A 
ATOM     10  C   UNL     1     100.622 128.886  83.611  0.00  0.00    +0.000 A 
ENDROOT
BRANCH   3  11
ATOM     11  C   UNL     1     102.911 126.304  82.287  0.00  0.00    +0.000 A 
ATOM     12  C   UNL     1     103.272 125.181  83.044  0.00  0.00    +0.000 A 
ATOM     13  C   UNL     1     103.919 124.105  82.433  0.00  0.00    +0.000 A 
ATOM     14  C   UNL     1     104.209 124.133  81.073  0.00  0.00    +0.000 A 
ATOM     15  C   UNL     1     103.845 125.243  80.311  0.00  0.00    +0.000 A 
ATOM     16  C   UNL     1     103.200 126.325  80.914  0.00  0.00    +0.000 A 
ATOM     17 CL   UNL     1     104.369 122.743  83.380  0.00  0.00    +0.000 Cl
ENDBRANCH   3  11
TORSDOF 1
ENDMDL
