REMARK  Name = *****
REMARK  4 active torsions:
REMARK  status: ('A' for Active; 'I' for Inactive)
REMARK    1  A    between atoms: C_4  and  C_7
REMARK    2  A    between atoms: C_7  and  S_8
REMARK    3  A    between atoms: S_8  and  C_9
REMARK    4  A    between atoms: C_14  and  C_15
REMARK                            x       y       z     vdW  Elec       q    Type
REMARK                         _______ _______ _______ _____ _____    ______ ____
ROOT
ATOM      1  C   UNL     1      -5.402  -0.682  -0.649  0.00  0.00    +0.000 A 
ATOM      2  C   UNL     1      -6.127  -1.147   0.460  0.00  0.00    +0.000 A 
ATOM      3  C   UNL     1      -7.472  -0.819   0.624  0.00  0.00    +0.000 A 
ATOM      4  C   UNL     1      -8.111  -0.026  -0.322  0.00  0.00    +0.000 A 
ATOM      5  C   UNL     1      -7.404   0.434  -1.433  0.00  0.00    +0.000 A 
ATOM      6  C   UNL     1      -6.043   0.113  -1.616  0.00  0.00    +0.000 A 
ENDROOT
BRANCH   6   7
ATOM      7  C   UNL     1      -5.322   0.630  -2.837  0.00  0.00    +0.000 C 
ATOM      8  F   UNL     1      -4.879  -0.357  -3.663  0.00  0.00    +0.000 F 
ATOM      9  F   UNL     1      -6.108   1.427  -3.622  0.00  0.00    +0.000 F 
ATOM     10  F   UNL     1      -4.238   1.398  -2.532  0.00  0.00    +0.000 F 
ENDBRANCH   6   7
BRANCH   1  11
ATOM     11  S   UNL     1      -3.686  -1.169  -0.768  0.00  0.00    +0.000 S 
BRANCH  11  12
ATOM     12  C   UNL     1      -2.951   0.132   0.279  0.00  0.00    +0.000 C 
BRANCH  12  16
ATOM     13  C   UNL     1       1.355  -0.104   0.258  0.00  0.00    +0.000 A 
ATOM     14  C   UNL     1       0.691   0.634  -0.720  0.00  0.00    +0.000 A 
ATOM     15  C   UNL     1      -0.702   0.712  -0.713  0.00  0.00    +0.000 A 
ATOM     16  C   UNL     1      -1.446   0.055   0.279  0.00  0.00    +0.000 A 
ATOM     17  C   UNL     1      -0.768  -0.693   1.252  0.00  0.00    +0.000 A 
ATOM     18  C   UNL     1       0.626  -0.769   1.243  0.00  0.00    +0.000 A 
ENDBRANCH  12  16
ENDBRANCH  11  12
ENDBRANCH   1  11
TORSDOF 4
