REMARK  Name = *****
REMARK  4 active torsions:
REMARK  status: ('A' for Active; 'I' for Inactive)
REMARK    1  A    between atoms: C_4  and  C_6
REMARK    2  A    between atoms: C_6  and  O_7
REMARK    3  A    between atoms: O_7  and  C_8
REMARK    4  A    between atoms: C_8  and  C_10
REMARK                            x       y       z     vdW  Elec       q    Type
REMARK                         _______ _______ _______ _____ _____    ______ ____
ROOT
ATOM      1  C   UNL     1      -2.550   0.679   3.170  0.00  0.00    +0.000 C 
ATOM      2  O   UNL     1      -1.790  -0.238   3.438  0.00  0.00    +0.000 OA
ENDROOT
BRANCH   1   3
ATOM      3  C   UNL     1      -3.921   0.802   3.737  0.00  0.00    +0.000 A 
ATOM      4  C   UNL     1      -4.341  -0.159   4.667  0.00  0.00    +0.000 A 
ATOM      5  C   UNL     1      -5.620  -0.090   5.223  0.00  0.00    +0.000 A 
ATOM      6  C   UNL     1      -6.486   0.938   4.854  0.00  0.00    +0.000 A 
ATOM      7  C   UNL     1      -6.077   1.898   3.929  0.00  0.00    +0.000 A 
ATOM      8  C   UNL     1      -4.798   1.833   3.370  0.00  0.00    +0.000 A 
ENDBRANCH   1   3
BRANCH   1   9
ATOM      9  O   UNL     1      -2.289   1.710   2.329  0.00  0.00    +0.000 OA
BRANCH   9  10
ATOM     10  C   UNL     1      -1.000   1.691   1.693  0.00  0.00    +0.000 C 
BRANCH  10  14
ATOM     11  C   UNL     1      -1.187   2.497  -1.338  0.00  0.00    +0.000 C 
ATOM     12  C   UNL     1       0.275   2.069  -1.219  0.00  0.00    +0.000 C 
ATOM     13  C   UNL     1       0.293   0.835  -0.318  0.00  0.00    +0.000 C 
ATOM     14  C   UNL     1      -1.046   0.843   0.415  0.00  0.00    +0.000 C 
ATOM     15  C   UNL     1      -1.995   1.409  -0.643  0.00  0.00    +0.000 C 
ENDBRANCH  10  14
ENDBRANCH   9  10
ENDBRANCH   1   9
TORSDOF 4
