MODEL 1
REMARK VINA RESULT:      -5.1      0.000      0.000
REMARK  Name = *****
REMARK  4 active torsions:
REMARK  status: ('A' for Active; 'I' for Inactive)
REMARK    1  A    between atoms: C_1  and  C_2
REMARK    2  A    between atoms: C_4  and  C_8
REMARK    3  A    between atoms: C_9  and  C_10
REMARK    4  A    between atoms: C_15  and  C_16
REMARK                            x       y       z     vdW  Elec       q    Type
REMARK                         _______ _______ _______ _____ _____    ______ ____
ROOT
ATOM      1  C   UNL     1     102.883 126.125  81.113  0.00  0.00    +0.000 C 
ATOM      2  C   UNL     1     102.184 126.043  82.257  0.00  0.00    +0.000 C 
ENDROOT
BRANCH   1   6
ATOM      3  C   UNL     1     105.151 121.645  81.506  0.00  0.00    +0.000 C 
ATOM      4  C   UNL     1     105.057 123.013  80.896  0.00  0.00    +0.000 A 
ATOM      5  C   UNL     1     104.054 123.904  81.304  0.00  0.00    +0.000 A 
ATOM      6  C   UNL     1     103.937 125.176  80.724  0.00  0.00    +0.000 A 
ATOM      7  C   UNL     1     104.819 125.531  79.697  0.00  0.00    +0.000 A 
ATOM      8  C   UNL     1     105.811 124.644  79.273  0.00  0.00    +0.000 A 
ATOM      9  C   UNL     1     105.928 123.390  79.869  0.00  0.00    +0.000 A 
ENDBRANCH   1   6
BRANCH   2  10
ATOM     10  C   UNL     1     101.150 127.023  82.630  0.00  0.00    +0.000 A 
ATOM     11  C   UNL     1      99.801 126.740  82.359  0.00  0.00    +0.000 A 
ATOM     12  C   UNL     1      98.795 127.634  82.726  0.00  0.00    +0.000 A 
ATOM     13  C   UNL     1      99.124 128.817  83.380  0.00  0.00    +0.000 A 
ATOM     14  C   UNL     1     100.458 129.106  83.666  0.00  0.00    +0.000 A 
ATOM     15  C   UNL     1     101.484 128.218  83.296  0.00  0.00    +0.000 A 
ATOM     16  C   UNL     1     102.908 128.573  83.628  0.00  0.00    +0.000 C 
ENDBRANCH   2  10
TORSDOF 2
ENDMDL
