MODEL 1
REMARK VINA RESULT:      -4.3      0.000      0.000
REMARK  Name = *****
REMARK  3 active torsions:
REMARK  status: ('A' for Active; 'I' for Inactive)
REMARK    1  A    between atoms: C_4  and  C_7
REMARK    2  A    between atoms: C_7  and  N_8
REMARK    3  A    between atoms: N_8  and  C_9
REMARK                            x       y       z     vdW  Elec       q    Type
REMARK                         _______ _______ _______ _____ _____    ______ ____
ROOT
ATOM      1  N   UNL     1     102.843 125.359  82.098  0.00  0.00    +0.000 NA
ENDROOT
BRANCH   1   2
ATOM      2  C   UNL     1     103.846 124.460  81.780  0.00  0.00    +0.000 A 
ATOM      3  C   UNL     1     104.349 123.629  82.777  0.00  0.00    +0.000 A 
ATOM      4  C   UNL     1     105.363 122.725  82.456  0.00  0.00    +0.000 A 
ATOM      5  C   UNL     1     105.852 122.669  81.149  0.00  0.00    +0.000 A 
ATOM      6  C   UNL     1     105.338 123.508  80.158  0.00  0.00    +0.000 A 
ATOM      7  C   UNL     1     104.324 124.413  80.475  0.00  0.00    +0.000 A 
ATOM      8 CL   UNL     1     107.103 121.553  80.755  0.00  0.00    +0.000 Cl
ENDBRANCH   1   2
BRANCH   1   9
ATOM      9  C   UNL     1     102.034 126.082  82.352  0.00  0.00    +0.000 C 
BRANCH   9  13
ATOM     10  C   UNL     1      98.975 128.830  83.314  0.00  0.00    +0.000 A 
ATOM     11  C   UNL     1      98.660 127.635  82.667  0.00  0.00    +0.000 A 
ATOM     12  C   UNL     1      99.671 126.726  82.347  0.00  0.00    +0.000 A 
ATOM     13  C   UNL     1     100.998 127.013  82.677  0.00  0.00    +0.000 A 
ATOM     14  C   UNL     1     101.312 128.210  83.325  0.00  0.00    +0.000 A 
ATOM     15  C   UNL     1     100.299 129.117  83.643  0.00  0.00    +0.000 A 
ENDBRANCH   9  13
ENDBRANCH   1   9
TORSDOF 3
ENDMDL
