REMARK  Name = *****
REMARK  5 active torsions:
REMARK  status: ('A' for Active; 'I' for Inactive)
REMARK    1  A    between atoms: C_1  and  C_2
REMARK    2  A    between atoms: C_5  and  C_8
REMARK    3  A    between atoms: C_8  and  C_17
REMARK    4  A    between atoms: C_9  and  C_10
REMARK    5  A    between atoms: C_17  and  O_18
REMARK                            x       y       z     vdW  Elec       q    Type
REMARK                         _______ _______ _______ _____ _____    ______ ____
ROOT
ATOM      1  C   UNL     1      -3.349   0.033  -0.060  0.00  0.00    +0.000 C 
ATOM      2  C   UNL     1      -4.080  -1.080   0.153  0.00  0.00    +0.000 C 
ENDROOT
BRANCH   1   7
ATOM      3  C   UNL     1       2.424  -0.464   0.099  0.00  0.00    +0.000 C 
ATOM      4  C   UNL     1       0.932  -0.313   0.045  0.00  0.00    +0.000 A 
ATOM      5  C   UNL     1       0.190  -0.967  -0.944  0.00  0.00    +0.000 A 
ATOM      6  C   UNL     1      -1.203  -0.855  -0.975  0.00  0.00    +0.000 A 
ATOM      7  C   UNL     1      -1.877  -0.092  -0.013  0.00  0.00    +0.000 A 
ATOM      8  C   UNL     1      -1.135   0.547   0.987  0.00  0.00    +0.000 A 
ATOM      9  C   UNL     1       0.258   0.433   1.018  0.00  0.00    +0.000 A 
ENDBRANCH   1   7
BRANCH   2  10
ATOM     10  C   UNL     1      -5.544  -1.160   0.136  0.00  0.00    +0.000 A 
ATOM     11  C   UNL     1      -6.280  -0.802  -1.001  0.00  0.00    +0.000 A 
ATOM     12  C   UNL     1      -7.673  -0.911  -1.004  0.00  0.00    +0.000 A 
ATOM     13  C   UNL     1      -8.332  -1.387   0.127  0.00  0.00    +0.000 A 
ATOM     14  C   UNL     1      -7.611  -1.760   1.259  0.00  0.00    +0.000 A 
ATOM     15  C   UNL     1      -6.217  -1.650   1.262  0.00  0.00    +0.000 A 
ATOM     16 CL   UNL     1     -10.047  -1.522   0.124  0.00  0.00    +0.000 Cl
ENDBRANCH   2  10
BRANCH   1  17
ATOM     17  C   UNL     1      -3.893   1.421  -0.281  0.00  0.00    +0.000 C 
BRANCH  17  18
ATOM     18  O   UNL     1      -3.740   1.782  -1.650  0.00  0.00    +0.000 OA
ATOM     19  H   UNL     1      -2.800   1.764  -1.886  0.00  0.00    +0.000 HD
ENDBRANCH  17  18
ENDBRANCH   1  17
TORSDOF 4
