REMARK  Name = *****
REMARK  4 active torsions:
REMARK  status: ('A' for Active; 'I' for Inactive)
REMARK    1  A    between atoms: C_2  and  S_14
REMARK    2  A    between atoms: C_5  and  C_6
REMARK    3  A    between atoms: C_7  and  C_8
REMARK    4  A    between atoms: C_11  and  S_13
REMARK                            x       y       z     vdW  Elec       q    Type
REMARK                         _______ _______ _______ _____ _____    ______ ____
ROOT
ATOM      1  C   UNL     1      -0.757   2.451  -0.166  0.00  0.00    +0.000 C 
ATOM      2  C   UNL     1      -2.005   2.909   0.044  0.00  0.00    +0.000 C 
ENDROOT
BRANCH   1   7
ATOM      3  C   UNL     1      -1.156  -0.073   0.110  0.00  0.00    +0.000 A 
ATOM      4  C   UNL     1      -0.429  -1.246   0.114  0.00  0.00    +0.000 A 
ATOM      5  S   UNL     1       1.235  -0.963  -0.133  0.00  0.00    +0.000 S 
ATOM      6  C   UNL     1       0.991   0.726  -0.251  0.00  0.00    +0.000 A 
ATOM      7  C   UNL     1      -0.335   1.080  -0.101  0.00  0.00    +0.000 A 
BRANCH   4   8
ATOM      8  S   UNL     1      -1.067  -2.864   0.339  0.00  0.00    +0.000 S 
ATOM      9  H   UNL     1      -2.414  -2.801   0.515  0.00  0.00    +0.000 HD
ENDBRANCH   4   8
ENDBRANCH   1   7
BRANCH   2  10
ATOM     10  C   UNL     1      -2.425   4.280  -0.023  0.00  0.00    +0.000 A 
ATOM     11  C   UNL     1      -3.718   4.655   0.285  0.00  0.00    +0.000 A 
ATOM     12  S   UNL     1      -3.966   6.341   0.127  0.00  0.00    +0.000 S 
ATOM     13  C   UNL     1      -2.351   6.591  -0.358  0.00  0.00    +0.000 A 
ATOM     14  C   UNL     1      -1.636   5.413  -0.397  0.00  0.00    +0.000 A 
BRANCH  13  15
ATOM     15  S   UNL     1      -1.731   8.182  -0.748  0.00  0.00    +0.000 S 
ATOM     16  H   UNL     1      -2.720   9.103  -0.597  0.00  0.00    +0.000 HD
ENDBRANCH  13  15
ENDBRANCH   2  10
TORSDOF 4
