MODEL 1
REMARK VINA RESULT:      -4.1      0.000      0.000
REMARK  Name = *****
REMARK  3 active torsions:
REMARK  status: ('A' for Active; 'I' for Inactive)
REMARK    1  A    between atoms: C_5  and  C_7
REMARK    2  A    between atoms: C_7  and  C_8
REMARK    3  A    between atoms: C_8  and  C_10
REMARK                            x       y       z     vdW  Elec       q    Type
REMARK                         _______ _______ _______ _____ _____    ______ ____
ROOT
ATOM      1  C   UNL     1      88.315  70.680  85.189  0.00  0.00    +0.000 C 
ATOM      2  O   UNL     1      89.328  71.374  85.127  0.00  0.00    +0.000 OA
ENDROOT
BRANCH   1   3
ATOM      3  C   UNL     1      87.225  71.104  86.093  0.00  0.00    +0.000 A 
ATOM      4  C   UNL     1      86.097  71.684  85.495  0.00  0.00    +0.000 A 
ATOM      5  C   UNL     1      85.036  72.128  86.283  0.00  0.00    +0.000 A 
ATOM      6  C   UNL     1      85.091  71.985  87.668  0.00  0.00    +0.000 A 
ATOM      7  C   UNL     1      86.203  71.385  88.265  0.00  0.00    +0.000 A 
ATOM      8  C   UNL     1      87.271  70.937  87.481  0.00  0.00    +0.000 A 
ATOM      9 CL   UNL     1      88.573  70.138  88.286  0.00  0.00    +0.000 Cl
ENDBRANCH   1   3
BRANCH   1  10
ATOM     10  C   UNL     1      88.157  69.372  84.435  0.00  0.00    +0.000 C 
BRANCH  10  15
ATOM     11  C   UNL     1      90.180  66.708  86.257  0.00  0.00    +0.000 A 
ATOM     12  C   UNL     1      89.191  65.982  86.917  0.00  0.00    +0.000 A 
ATOM     13  C   UNL     1      87.853  66.349  86.779  0.00  0.00    +0.000 A 
ATOM     14  C   UNL     1      87.501  67.440  85.979  0.00  0.00    +0.000 A 
ATOM     15  C   UNL     1      88.486  68.173  85.296  0.00  0.00    +0.000 A 
ATOM     16  C   UNL     1      89.831  67.797  85.455  0.00  0.00    +0.000 A 
ATOM     17 CL   UNL     1      85.825  67.843  85.869  0.00  0.00    +0.000 Cl
ENDBRANCH  10  15
ENDBRANCH   1  10
TORSDOF 3
ENDMDL
