REMARK  Name = *****
REMARK  3 active torsions:
REMARK  status: ('A' for Active; 'I' for Inactive)
REMARK    1  A    between atoms: C_4  and  C_7
REMARK    2  A    between atoms: C_7  and  S_8
REMARK    3  A    between atoms: S_8  and  C_9
REMARK                            x       y       z     vdW  Elec       q    Type
REMARK                         _______ _______ _______ _____ _____    ______ ____
ROOT
ATOM      1  C   UNL     1      -2.885   0.031  -0.286  0.00  0.00    +0.000 C 
ENDROOT
BRANCH   1   5
ATOM      2  C   UNL     1       1.385  -0.390   0.172  0.00  0.00    +0.000 A 
ATOM      3  C   UNL     1       0.678  -1.287  -0.625  0.00  0.00    +0.000 A 
ATOM      4  C   UNL     1      -0.702  -1.148  -0.780  0.00  0.00    +0.000 A 
ATOM      5  C   UNL     1      -1.390  -0.108  -0.137  0.00  0.00    +0.000 A 
ATOM      6  C   UNL     1      -0.666   0.789   0.662  0.00  0.00    +0.000 A 
ATOM      7  C   UNL     1       0.714   0.647   0.816  0.00  0.00    +0.000 A 
ENDBRANCH   1   5
BRANCH   1   8
ATOM      8  S   UNL     1      -3.817  -1.222   0.649  0.00  0.00    +0.000 S 
BRANCH   8   9
ATOM      9  C   UNL     1      -3.431  -0.764   2.300  0.00  0.00    +0.000 C 
ATOM     10  C   UNL     1      -2.481  -1.454   3.027  0.00  0.00    +0.000 C 
ATOM     11  S   UNL     1      -2.197  -0.860   4.614  0.00  0.00    +0.000 S 
ATOM     12  N   UNL     1      -3.461   0.253   4.627  0.00  0.00    +0.000 NA
ATOM     13  S   UNL     1      -4.044   0.634   3.097  0.00  0.00    +0.000 S 
ATOM     14 BR   UNL     1      -5.960  -0.202   3.492  0.00  0.00    +0.000 Br
ENDBRANCH   8   9
ENDBRANCH   1   8
TORSDOF 3
