REMARK  Name = *****
REMARK  4 active torsions:
REMARK  status: ('A' for Active; 'I' for Inactive)
REMARK    1  A    between atoms: C_1  and  C_2
REMARK    2  A    between atoms: C_2  and  C_10
REMARK    3  A    between atoms: N_3  and  O_4
REMARK    4  A    between atoms: O_4  and  C_5
REMARK                            x       y       z     vdW  Elec       q    Type
REMARK                         _______ _______ _______ _____ _____    ______ ____
ROOT
ATOM      1  C   UNL     1       1.003  -0.050   0.017  0.00  0.00    +0.000 C 
ATOM      2  C   UNL     1       2.518   0.018   0.086  0.00  0.00    +0.000 C 
ATOM      3  N   UNL     1       3.251  -0.828   0.752  0.00  0.00    +0.000 NA
ENDROOT
BRANCH   2   4
ATOM      4  C   UNL     1       3.205   1.137  -0.646  0.00  0.00    +0.000 A 
ATOM      5  C   UNL     1       2.487   2.166  -1.271  0.00  0.00    +0.000 A 
ATOM      6  C   UNL     1       3.161   3.191  -1.942  0.00  0.00    +0.000 A 
ATOM      7  C   UNL     1       4.554   3.201  -1.990  0.00  0.00    +0.000 A 
ATOM      8  C   UNL     1       5.277   2.187  -1.367  0.00  0.00    +0.000 A 
ATOM      9  C   UNL     1       4.607   1.160  -0.698  0.00  0.00    +0.000 A 
ENDBRANCH   2   4
BRANCH   3  10
ATOM     10  O   UNL     1       2.483  -1.802   1.399  0.00  0.00    +0.000 OA
BRANCH  10  11
ATOM     11  C   UNL     1       3.278  -2.707   2.026  0.00  0.00    +0.000 A 
ATOM     12  C   UNL     1       4.658  -2.702   2.055  0.00  0.00    +0.000 A 
ATOM     13  S   UNL     1       5.291  -4.018   2.950  0.00  0.00    +0.000 S 
ATOM     14  C   UNL     1       3.722  -4.601   3.304  0.00  0.00    +0.000 A 
ATOM     15  C   UNL     1       2.739  -3.809   2.751  0.00  0.00    +0.000 A 
ENDBRANCH  10  11
ENDBRANCH   3  10
TORSDOF 3
