MODEL 1
REMARK VINA RESULT:      -4.7      0.000      0.000
REMARK  Name = *****
REMARK  3 active torsions:
REMARK  status: ('A' for Active; 'I' for Inactive)
REMARK    1  A    between atoms: C_1  and  C_2
REMARK    2  A    between atoms: C_5  and  C_8
REMARK    3  A    between atoms: C_9  and  C_10
REMARK                            x       y       z     vdW  Elec       q    Type
REMARK                         _______ _______ _______ _____ _____    ______ ____
ROOT
ATOM      1  C   UNL     1      97.523 117.572  79.964  0.00  0.00    +0.000 C 
ATOM      2  C   UNL     1      97.997 118.477  80.595  0.00  0.00    +0.000 C 
ENDROOT
BRANCH   1   7
ATOM      3  C   UNL     1      95.259 113.261  76.929  0.00  0.00    +0.000 C 
ATOM      4  C   UNL     1      95.874 114.372  77.730  0.00  0.00    +0.000 A 
ATOM      5  C   UNL     1      95.636 114.473  79.106  0.00  0.00    +0.000 A 
ATOM      6  C   UNL     1      96.182 115.527  79.843  0.00  0.00    +0.000 A 
ATOM      7  C   UNL     1      96.963 116.493  79.209  0.00  0.00    +0.000 A 
ATOM      8  C   UNL     1      97.192 116.409  77.835  0.00  0.00    +0.000 A 
ATOM      9  C   UNL     1      96.645 115.354  77.097  0.00  0.00    +0.000 A 
ENDBRANCH   1   7
BRANCH   2  10
ATOM     10  C   UNL     1      98.572 119.593  81.370  0.00  0.00    +0.000 C 
ATOM     11  C   UNL     1      98.985 119.134  82.779  0.00  0.00    +0.000 C 
ATOM     12  C   UNL     1      97.796 119.072  83.738  0.00  0.00    +0.000 C 
ATOM     13  C   UNL     1      97.085 120.424  83.839  0.00  0.00    +0.000 C 
ATOM     14  C   UNL     1      96.924 121.108  82.514  0.00  0.00    +0.000 C 
ATOM     15  C   UNL     1      97.576 120.723  81.405  0.00  0.00    +0.000 C 
ENDBRANCH   2  10
TORSDOF 2
ENDMDL
