MODEL 1
REMARK VINA RESULT:      -4.8      0.000      0.000
REMARK  Name = *****
REMARK  2 active torsions:
REMARK  status: ('A' for Active; 'I' for Inactive)
REMARK    1  A    between atoms: C_4  and  C_7
REMARK    2  A    between atoms: C_7  and  C_8
REMARK                            x       y       z     vdW  Elec       q    Type
REMARK                         _______ _______ _______ _____ _____    ______ ____
ROOT
ATOM      1  C   UNL     1     103.530 128.129  81.947  0.00  0.00    +0.000 C 
ATOM      2  C   UNL     1     104.173 126.955  81.235  0.00  0.00    +0.000 A 
ATOM      3  C   UNL     1     103.509 125.841  80.725  0.00  0.00    +0.000 A 
ATOM      4  C   UNL     1     104.236 124.858  80.048  0.00  0.00    +0.000 A 
ATOM      5  C   UNL     1     105.618 124.989  79.874  0.00  0.00    +0.000 A 
ATOM      6  C   UNL     1     106.286 126.101  80.382  0.00  0.00    +0.000 A 
ATOM      7  C   UNL     1     105.556 127.071  81.058  0.00  0.00    +0.000 A 
ATOM      8  S   UNL     1     106.232 128.537  81.775  0.00  0.00    +0.000 S 
ATOM      9  C   UNL     1     104.658 129.076  82.365  0.00  0.00    +0.000 C 
ATOM     10  O   UNL     1     104.520 130.107  83.008  0.00  0.00    +0.000 OA
ENDROOT
BRANCH   1  11
ATOM     11  C   UNL     1     102.709 127.758  83.195  0.00  0.00    +0.000 C 
BRANCH  11  15
ATOM     12  C   UNL     1      98.390 127.941  82.879  0.00  0.00    +0.000 A 
ATOM     13  C   UNL     1      99.114 128.981  83.452  0.00  0.00    +0.000 A 
ATOM     14  C   UNL     1     100.503 128.887  83.560  0.00  0.00    +0.000 A 
ATOM     15  C   UNL     1     101.193 127.752  83.100  0.00  0.00    +0.000 A 
ATOM     16  C   UNL     1     100.449 126.724  82.507  0.00  0.00    +0.000 A 
ATOM     17  C   UNL     1      99.057 126.812  82.408  0.00  0.00    +0.000 A 
ENDBRANCH  11  15
ENDBRANCH   1  11
TORSDOF 2
ENDMDL
