REMARK  Name = *****
REMARK  3 active torsions:
REMARK  status: ('A' for Active; 'I' for Inactive)
REMARK    1  A    between atoms: C_1  and  C_2
REMARK    2  A    between atoms: C_7  and  C_8
REMARK    3  A    between atoms: C_8  and  C_9
REMARK                            x       y       z     vdW  Elec       q    Type
REMARK                         _______ _______ _______ _____ _____    ______ ____
ROOT
ATOM      1  C   UNL     1       0.913  -0.110  -0.019  0.00  0.00    +0.000 C 
ATOM      2  C   UNL     1       2.435  -0.082   0.055  0.00  0.00    +0.000 C 
ATOM      3  C   UNL     1       2.994  -1.338   0.721  0.00  0.00    +0.000 C 
ATOM      4  C   UNL     1       4.385  -0.966   1.229  0.00  0.00    +0.000 C 
ATOM      5  C   UNL     1       4.471   0.558   1.220  0.00  0.00    +0.000 C 
ATOM      6  C   UNL     1       3.078   1.009   0.878  0.00  0.00    +0.000 C 
ATOM      7  C   UNL     1       2.487   2.131   1.325  0.00  0.00    +0.000 C 
ENDROOT
BRANCH   7   8
ATOM      8  C   UNL     1       3.130   3.206   2.162  0.00  0.00    +0.000 C 
BRANCH   8   9
ATOM      9  C   UNL     1       2.860   3.050   3.640  0.00  0.00    +0.000 A 
ATOM     10  C   UNL     1       3.911   2.772   4.527  0.00  0.00    +0.000 A 
ATOM     11  C   UNL     1       3.668   2.627   5.894  0.00  0.00    +0.000 A 
ATOM     12  C   UNL     1       2.373   2.759   6.390  0.00  0.00    +0.000 A 
ATOM     13  C   UNL     1       1.320   3.037   5.521  0.00  0.00    +0.000 A 
ATOM     14  C   UNL     1       1.562   3.185   4.154  0.00  0.00    +0.000 A 
ENDBRANCH   8   9
ENDBRANCH   7   8
TORSDOF 2
