REMARK  Name = *****
REMARK  3 active torsions:
REMARK  status: ('A' for Active; 'I' for Inactive)
REMARK    1  A    between atoms: C_1  and  C_2
REMARK    2  A    between atoms: C_4  and  C_8
REMARK    3  A    between atoms: C_8  and  N_9
REMARK                            x       y       z     vdW  Elec       q    Type
REMARK                         _______ _______ _______ _____ _____    ______ ____
ROOT
ATOM      1  N   UNL     1      -1.081   3.754  -0.026  0.00  0.00    +0.000 N 
ATOM      2  C   UNL     1      -0.554   4.256  -1.236  0.00  0.00    +0.000 A 
ATOM      3  C   UNL     1      -0.704   3.714  -2.505  0.00  0.00    +0.000 A 
ATOM      4  C   UNL     1      -0.103   4.363  -3.590  0.00  0.00    +0.000 A 
ATOM      5  C   UNL     1       0.635   5.539  -3.400  0.00  0.00    +0.000 A 
ATOM      6  C   UNL     1       0.782   6.081  -2.122  0.00  0.00    +0.000 A 
ATOM      7  C   UNL     1       0.183   5.428  -1.056  0.00  0.00    +0.000 A 
ATOM      8  S   UNL     1       0.215   5.901   0.647  0.00  0.00    +0.000 S 
ATOM      9  C   UNL     1      -0.769   4.499   1.102  0.00  0.00    +0.000 A 
ATOM     10  O   UNL     1      -1.094   4.269   2.256  0.00  0.00    +0.000 OA
ENDROOT
BRANCH   1  11
ATOM     11  C   UNL     1      -1.862   2.538   0.071  0.00  0.00    +0.000 C 
BRANCH  11  15
ATOM     12  C   UNL     1       1.743  -0.382   2.071  0.00  0.00    +0.000 C 
ATOM     13  C   UNL     1       0.733  -0.123   0.993  0.00  0.00    +0.000 A 
ATOM     14  C   UNL     1      -0.052   1.038   1.020  0.00  0.00    +0.000 A 
ATOM     15  C   UNL     1      -1.021   1.281   0.033  0.00  0.00    +0.000 A 
ATOM     16  C   UNL     1      -1.217   0.321  -0.970  0.00  0.00    +0.000 A 
ATOM     17  C   UNL     1      -0.450  -0.844  -0.996  0.00  0.00    +0.000 A 
ATOM     18  C   UNL     1       0.518  -1.066  -0.017  0.00  0.00    +0.000 A 
ENDBRANCH  11  15
ENDBRANCH   1  11
TORSDOF 2
