REMARK  Name = *****
REMARK  5 active torsions:
REMARK  status: ('A' for Active; 'I' for Inactive)
REMARK    1  A    between atoms: C_1  and  C_2
REMARK    2  A    between atoms: C_2  and  C_3
REMARK    3  A    between atoms: C_2  and  C_9
REMARK    4  A    between atoms: C_2  and  S_12
REMARK    5  A    between atoms: S_12  and  C_13
REMARK                            x       y       z     vdW  Elec       q    Type
REMARK                         _______ _______ _______ _____ _____    ______ ____
ROOT
ATOM      1  C   UNL     1       3.315  -0.386  -1.216  0.00  0.00    +0.000 C 
ATOM      2  C   UNL     1       2.625   0.135   0.063  0.00  0.00    +0.000 C 
ENDROOT
BRANCH   2   3
ATOM      3  C   UNL     1       1.085  -0.023   0.039  0.00  0.00    +0.000 A 
ATOM      4  C   UNL     1       0.416  -0.789  -0.933  0.00  0.00    +0.000 A 
ATOM      5  C   UNL     1      -0.977  -0.909  -0.927  0.00  0.00    +0.000 A 
ATOM      6  C   UNL     1      -1.732  -0.277   0.056  0.00  0.00    +0.000 A 
ATOM      7  C   UNL     1      -1.095   0.471   1.039  0.00  0.00    +0.000 A 
ATOM      8  C   UNL     1       0.296   0.592   1.035  0.00  0.00    +0.000 A 
ENDBRANCH   2   3
BRANCH   2   9
ATOM      9  C   UNL     1       2.996   1.632   0.321  0.00  0.00    +0.000 C 
ATOM     10  O   UNL     1       3.216   2.099   1.438  0.00  0.00    +0.000 OA
ATOM     11 CL   UNL     1       2.921   2.635  -1.120  0.00  0.00    +0.000 Cl
ENDBRANCH   2   9
BRANCH   2  12
ATOM     12  S   UNL     1       3.244  -0.933   1.514  0.00  0.00    +0.000 S 
BRANCH  12  13
ATOM     13  C   UNL     1       5.016  -0.817   1.361  0.00  0.00    +0.000 A 
ATOM     14  C   UNL     1       5.723   0.231   1.956  0.00  0.00    +0.000 A 
ATOM     15  C   UNL     1       7.113   0.301   1.839  0.00  0.00    +0.000 A 
ATOM     16  C   UNL     1       7.806  -0.687   1.143  0.00  0.00    +0.000 A 
ATOM     17  C   UNL     1       7.112  -1.752   0.573  0.00  0.00    +0.000 A 
ATOM     18  C   UNL     1       5.722  -1.822   0.689  0.00  0.00    +0.000 A 
ENDBRANCH  12  13
ENDBRANCH   2  12
TORSDOF 4
