MODEL 1
REMARK VINA RESULT:      -4.7      0.000      0.000
REMARK  Name = *****
REMARK  6 active torsions:
REMARK  status: ('A' for Active; 'I' for Inactive)
REMARK    1  A    between atoms: C_1  and  C_2
REMARK    2  A    between atoms: C_2  and  C_4
REMARK    3  A    between atoms: C_4  and  C_5
REMARK    4  A    between atoms: C_5  and  C_6
REMARK    5  A    between atoms: C_5  and  C_13
REMARK    6  A    between atoms: C_6  and  C_7
REMARK                            x       y       z     vdW  Elec       q    Type
REMARK                         _______ _______ _______ _____ _____    ______ ____
ROOT
ATOM      1  C   UNL     1     102.627 127.297  83.151  0.00  0.00    +0.000 C 
ENDROOT
BRANCH   1   2
ATOM      2  C   UNL     1     101.133 127.604  83.064  0.00  0.00    +0.000 A 
ATOM      3  C   UNL     1     100.270 126.655  82.488  0.00  0.00    +0.000 A 
ATOM      4  C   UNL     1      98.899 126.896  82.398  0.00  0.00    +0.000 A 
ATOM      5  C   UNL     1      98.366 128.086  82.886  0.00  0.00    +0.000 A 
ATOM      6  C   UNL     1      99.203 129.033  83.467  0.00  0.00    +0.000 A 
ATOM      7  C   UNL     1     100.578 128.795  83.556  0.00  0.00    +0.000 A 
ENDBRANCH   1   2
BRANCH   1   8
ATOM      8  C   UNL     1     103.386 128.330  84.005  0.00  0.00    +0.000 C 
BRANCH   8  10
ATOM      9  C   UNL     1     104.650 128.900  81.845  0.00  0.00    +0.000 C 
ATOM     10  C   UNL     1     104.144 129.361  83.188  0.00  0.00    +0.000 C 
ATOM     11  O   UNL     1     104.367 130.502  83.588  0.00  0.00    +0.000 OA
ENDBRANCH   8  10
ENDBRANCH   1   8
BRANCH   1  12
ATOM     12  C   UNL     1     102.889 125.816  83.539  0.00  0.00    +0.000 C 
BRANCH  12  13
ATOM     13  C   UNL     1     103.576 124.955  82.503  0.00  0.00    +0.000 A 
ATOM     14  C   UNL     1     103.638 125.362  81.163  0.00  0.00    +0.000 A 
ATOM     15  C   UNL     1     104.266 124.564  80.207  0.00  0.00    +0.000 A 
ATOM     16  C   UNL     1     104.847 123.354  80.581  0.00  0.00    +0.000 A 
ATOM     17  C   UNL     1     104.804 122.944  81.912  0.00  0.00    +0.000 A 
ATOM     18  C   UNL     1     104.175 123.742  82.869  0.00  0.00    +0.000 A 
ENDBRANCH  12  13
ENDBRANCH   1  12
TORSDOF 5
ENDMDL
