REMARK  Name = *****
REMARK  3 active torsions:
REMARK  status: ('A' for Active; 'I' for Inactive)
REMARK    1  A    between atoms: C_4  and  C_7
REMARK    2  A    between atoms: C_7  and  C_9
REMARK    3  A    between atoms: C_9  and  C_10
REMARK                            x       y       z     vdW  Elec       q    Type
REMARK                         _______ _______ _______ _____ _____    ______ ____
ROOT
ATOM      1  C   UNL     1      -3.725  -0.382   0.157  0.00  0.00    +0.000 C 
ENDROOT
BRANCH   1   2
ATOM      2  C   UNL     1      -5.133  -0.045  -0.288  0.00  0.00    +0.000 A 
ATOM      3  C   UNL     1      -5.859  -0.848  -1.186  0.00  0.00    +0.000 A 
ATOM      4  C   UNL     1      -7.168  -0.515  -1.551  0.00  0.00    +0.000 A 
ATOM      5  C   UNL     1      -7.771   0.615  -1.010  0.00  0.00    +0.000 A 
ATOM      6  C   UNL     1      -7.085   1.411  -0.100  0.00  0.00    +0.000 A 
ATOM      7  C   UNL     1      -5.779   1.078   0.265  0.00  0.00    +0.000 A 
ATOM      8 CL   UNL     1      -9.381   1.023  -1.459  0.00  0.00    +0.000 Cl
ATOM      9 CL   UNL     1      -5.190  -2.280  -1.884  0.00  0.00    +0.000 Cl
ENDBRANCH   1   2
BRANCH   1  10
ATOM     10  C   UNL     1      -2.797   0.818   0.241  0.00  0.00    +0.000 C 
ATOM     11  O   UNL     1      -2.572   1.362   1.323  0.00  0.00    +0.000 OA
BRANCH  10  15
ATOM     12  C   UNL     1      -0.923   2.483  -3.254  0.00  0.00    +0.000 A 
ATOM     13  C   UNL     1      -1.797   1.407  -3.397  0.00  0.00    +0.000 A 
ATOM     14  C   UNL     1      -2.416   0.847  -2.275  0.00  0.00    +0.000 A 
ATOM     15  C   UNL     1      -2.163   1.365  -1.000  0.00  0.00    +0.000 A 
ATOM     16  C   UNL     1      -1.282   2.448  -0.866  0.00  0.00    +0.000 A 
ATOM     17  C   UNL     1      -0.664   3.004  -1.988  0.00  0.00    +0.000 A 
ENDBRANCH  10  15
ENDBRANCH   1  10
TORSDOF 3
