MODEL 1
REMARK VINA RESULT:      -4.6      0.000      0.000
REMARK  Name = *****
REMARK  4 active torsions:
REMARK  status: ('A' for Active; 'I' for Inactive)
REMARK    1  A    between atoms: C_1  and  C_2
REMARK    2  A    between atoms: C_5  and  S_8
REMARK    3  A    between atoms: S_8  and  C_10
REMARK    4  A    between atoms: C_10  and  C_11
REMARK                            x       y       z     vdW  Elec       q    Type
REMARK                         _______ _______ _______ _____ _____    ______ ____
ROOT
ATOM      1  S   UNL     1      88.024  70.684  85.152  0.00  0.00    +0.000 S 
ATOM      2  O   UNL     1      88.778  71.866  84.611  0.00  0.00    +0.000 OA
ENDROOT
BRANCH   1   7
ATOM      3  C   UNL     1      83.107  73.032  87.933  0.00  0.00    +0.000 C 
ATOM      4  C   UNL     1      84.301  72.429  87.254  0.00  0.00    +0.000 A 
ATOM      5  C   UNL     1      85.340  71.873  88.011  0.00  0.00    +0.000 A 
ATOM      6  C   UNL     1      86.469  71.345  87.383  0.00  0.00    +0.000 A 
ATOM      7  C   UNL     1      86.577  71.370  85.990  0.00  0.00    +0.000 A 
ATOM      8  C   UNL     1      85.553  71.946  85.231  0.00  0.00    +0.000 A 
ATOM      9  C   UNL     1      84.423  72.475  85.860  0.00  0.00    +0.000 A 
ENDBRANCH   1   7
BRANCH   1  10
ATOM     10  C   UNL     1      88.893  70.122  86.660  0.00  0.00    +0.000 C 
BRANCH  10  11
ATOM     11  C   UNL     1      88.947  68.617  86.751  0.00  0.00    +0.000 A 
ATOM     12  C   UNL     1      90.035  67.909  86.212  0.00  0.00    +0.000 A 
ATOM     13  C   UNL     1      90.084  66.517  86.293  0.00  0.00    +0.000 A 
ATOM     14  C   UNL     1      89.048  65.830  86.914  0.00  0.00    +0.000 A 
ATOM     15  C   UNL     1      87.962  66.509  87.453  0.00  0.00    +0.000 A 
ATOM     16  C   UNL     1      87.909  67.902  87.371  0.00  0.00    +0.000 A 
ATOM     17  F   UNL     1      89.095  64.494  86.993  0.00  0.00    +0.000 F 
ENDBRANCH  10  11
ENDBRANCH   1  10
TORSDOF 3
ENDMDL
