MODEL 1
REMARK VINA RESULT:      -4.5      0.000      0.000
REMARK  Name = *****
REMARK  3 active torsions:
REMARK  status: ('A' for Active; 'I' for Inactive)
REMARK    1  A    between atoms: C_5  and  O_8
REMARK    2  A    between atoms: O_8  and  C_9
REMARK    3  A    between atoms: C_9  and  C_11
REMARK                            x       y       z     vdW  Elec       q    Type
REMARK                         _______ _______ _______ _____ _____    ______ ____
ROOT
ATOM      1  C   UNL     1      88.004  67.841  87.134  0.00  0.00    +0.000 C 
ATOM      2  O   UNL     1      87.407  67.767  88.196  0.00  0.00    +0.000 OA
ENDROOT
BRANCH   1   3
ATOM      3  C   UNL     1      88.911  66.777  86.626  0.00  0.00    +0.000 A 
ATOM      4  C   UNL     1      90.135  67.063  86.002  0.00  0.00    +0.000 A 
ATOM      5  C   UNL     1      90.949  66.025  85.540  0.00  0.00    +0.000 A 
ATOM      6  C   UNL     1      90.543  64.701  85.698  0.00  0.00    +0.000 A 
ATOM      7  C   UNL     1      89.328  64.404  86.313  0.00  0.00    +0.000 A 
ATOM      8  C   UNL     1      88.512  65.439  86.776  0.00  0.00    +0.000 A 
ATOM      9 CL   UNL     1      91.547  63.425  85.128  0.00  0.00    +0.000 Cl
ENDBRANCH   1   3
BRANCH   1  10
ATOM     10  O   UNL     1      87.949  68.872  86.256  0.00  0.00    +0.000 OA
BRANCH  10  15
ATOM     11  C   UNL     1      89.484  72.836  83.897  0.00  0.00    +0.000 C 
ATOM     12  C   UNL     1      89.054  71.741  84.540  0.00  0.00    +0.000 C 
ATOM     13  C   UNL     1      87.597  71.356  84.602  0.00  0.00    +0.000 C 
ATOM     14  C   UNL     1      87.149  71.170  86.053  0.00  0.00    +0.000 C 
ATOM     15  C   UNL     1      88.056  70.197  86.819  0.00  0.00    +0.000 C 
ATOM     16  C   UNL     1      89.528  70.624  86.724  0.00  0.00    +0.000 C 
ATOM     17  C   UNL     1      89.985  70.812  85.276  0.00  0.00    +0.000 C 
ENDBRANCH  10  15
ENDBRANCH   1  10
TORSDOF 3
ENDMDL
