MODEL 1
REMARK VINA RESULT:      -4.5      0.000      0.000
REMARK  Name = *****
REMARK  6 active torsions:
REMARK  status: ('A' for Active; 'I' for Inactive)
REMARK    1  A    between atoms: C_1  and  C_2
REMARK    2  A    between atoms: C_2  and  N_3
REMARK    3  A    between atoms: N_3  and  C_4
REMARK    4  A    between atoms: N_3  and  N_18
REMARK    5  A    between atoms: C_9  and  C_10
REMARK    6  A    between atoms: C_11  and  C_12
REMARK                            x       y       z     vdW  Elec       q    Type
REMARK                         _______ _______ _______ _____ _____    ______ ____
ROOT
ATOM      1  C   UNL     1     101.466 128.146  83.433  0.00  0.00    +0.000 A 
ATOM      2  C   UNL     1     100.447 129.105  83.615  0.00  0.00    +0.000 A 
ATOM      3  C   UNL     1      99.134 128.851  83.218  0.00  0.00    +0.000 A 
ATOM      4  C   UNL     1      98.815 127.641  82.614  0.00  0.00    +0.000 A 
ATOM      5  C   UNL     1      99.809 126.685  82.400  0.00  0.00    +0.000 A 
ATOM      6  C   UNL     1     101.135 126.919  82.804  0.00  0.00    +0.000 A 
ENDROOT
BRANCH   6   7
ATOM      7  C   UNL     1     102.177 125.933  82.463  0.00  0.00    +0.000 C 
ATOM      8  C   UNL     1     102.833 125.928  81.291  0.00  0.00    +0.000 C 
BRANCH   8   9
ATOM      9  C   UNL     1     103.863 124.942  80.925  0.00  0.00    +0.000 A 
ATOM     10  C   UNL     1     104.683 125.091  79.799  0.00  0.00    +0.000 A 
ATOM     11  C   UNL     1     105.672 124.147  79.507  0.00  0.00    +0.000 A 
ATOM     12  C   UNL     1     105.858 123.049  80.344  0.00  0.00    +0.000 A 
ATOM     13  C   UNL     1     105.060 122.898  81.476  0.00  0.00    +0.000 A 
ATOM     14  C   UNL     1     104.072 123.842  81.767  0.00  0.00    +0.000 A 
ENDBRANCH   8   9
ENDBRANCH   6   7
BRANCH   1  15
ATOM     15  N   UNL     1     102.792 128.437  83.874  0.00  0.00    +0.000 N 
BRANCH  15  17
ATOM     16  C   UNL     1     103.796 127.062  85.683  0.00  0.00    +0.000 C 
ATOM     17  C   UNL     1     102.947 128.281  85.337  0.00  0.00    +0.000 C 
ENDBRANCH  15  17
BRANCH  15  18
ATOM     18  N   UNL     1     103.615 129.161  83.075  0.00  0.00    +0.000 NA
ATOM     19  O   UNL     1     104.022 130.202  83.604  0.00  0.00    +0.000 OA
ENDBRANCH  15  18
ENDBRANCH   1  15
TORSDOF 5
ENDMDL
