MODEL 1
REMARK VINA RESULT:      -4.5      0.000      0.000
REMARK  Name = *****
REMARK  6 active torsions:
REMARK  status: ('A' for Active; 'I' for Inactive)
REMARK    1  A    between atoms: C_1  and  C_2
REMARK    2  A    between atoms: C_4  and  C_8
REMARK    3  A    between atoms: C_8  and  O_10
REMARK    4  A    between atoms: O_10  and  C_11
REMARK    5  A    between atoms: C_11  and  C_12
REMARK    6  A    between atoms: C_11  and  C_13
REMARK                            x       y       z     vdW  Elec       q    Type
REMARK                         _______ _______ _______ _____ _____    ______ ____
ROOT
ATOM      1  C   UNL     1      89.269  69.578  86.352  0.00  0.00    +0.000 C 
ATOM      2  O   UNL     1      90.044  68.705  86.707  0.00  0.00    +0.000 OA
ENDROOT
BRANCH   1   6
ATOM      3  C   UNL     1      84.964  72.051  87.303  0.00  0.00    +0.000 C 
ATOM      4  C   UNL     1      86.280  71.489  87.756  0.00  0.00    +0.000 A 
ATOM      5  C   UNL     1      87.127  70.839  86.847  0.00  0.00    +0.000 A 
ATOM      6  C   UNL     1      88.340  70.280  87.278  0.00  0.00    +0.000 A 
ATOM      7  C   UNL     1      88.695  70.364  88.630  0.00  0.00    +0.000 A 
ATOM      8  C   UNL     1      87.851  70.999  89.540  0.00  0.00    +0.000 A 
ATOM      9  C   UNL     1      86.646  71.554  89.105  0.00  0.00    +0.000 A 
ENDBRANCH   1   6
BRANCH   1  10
ATOM     10  O   UNL     1      89.129  70.055  85.090  0.00  0.00    +0.000 OA
BRANCH  10  11
ATOM     11  C   UNL     1      90.096  71.036  84.663  0.00  0.00    +0.000 C 
ATOM     12  C   UNL     1      90.894  70.456  83.499  0.00  0.00    +0.000 C 
BRANCH  11  13
ATOM     13  C   UNL     1      89.366  72.327  84.262  0.00  0.00    +0.000 C 
ATOM     14  C   UNL     1      88.082  72.074  83.470  0.00  0.00    +0.000 C 
ATOM     15  C   UNL     1      87.738  73.438  82.885  0.00  0.00    +0.000 C 
ATOM     16  C   UNL     1      89.068  74.177  82.737  0.00  0.00    +0.000 C 
ATOM     17  C   UNL     1      90.135  73.253  83.318  0.00  0.00    +0.000 C 
ENDBRANCH  11  13
ENDBRANCH  10  11
ENDBRANCH   1  10
TORSDOF 4
ENDMDL
