MODEL 1
REMARK VINA RESULT:      -4.2      0.000      0.000
REMARK  Name = *****
REMARK  5 active torsions:
REMARK  status: ('A' for Active; 'I' for Inactive)
REMARK    1  A    between atoms: C_1  and  C_2
REMARK    2  A    between atoms: C_3  and  C_16
REMARK    3  A    between atoms: C_6  and  C_8
REMARK    4  A    between atoms: C_8  and  C_9
REMARK    5  A    between atoms: C_9  and  C_10
REMARK                            x       y       z     vdW  Elec       q    Type
REMARK                         _______ _______ _______ _____ _____    ______ ____
ROOT
ATOM      1  C   UNL     1      88.480  71.641  89.891  0.00  0.00    +0.000 C 
ATOM      2  C   UNL     1      88.061  70.403  89.149  0.00  0.00    +0.000 C 
ATOM      3  C   UNL     1      87.089  69.541  89.519  0.00  0.00    +0.000 C 
ATOM      4  C   UNL     1      86.801  68.277  88.730  0.00  0.00    +0.000 C 
ATOM      5  O   UNL     1      87.772  67.983  87.723  0.00  0.00    +0.000 OA
ATOM      6  C   UNL     1      88.181  69.123  86.957  0.00  0.00    +0.000 C 
ATOM      7  C   UNL     1      88.862  70.128  87.895  0.00  0.00    +0.000 C 
ATOM      8  C   UNL     1      86.190  69.708  90.715  0.00  0.00    +0.000 C 
ENDROOT
BRANCH   6   9
ATOM      9  C   UNL     1      87.017  69.682  86.118  0.00  0.00    +0.000 C 
BRANCH   9  10
ATOM     10  C   UNL     1      87.051  71.206  85.990  0.00  0.00    +0.000 C 
BRANCH  10  11
ATOM     11  C   UNL     1      85.694  71.817  86.241  0.00  0.00    +0.000 A 
ATOM     12  C   UNL     1      84.906  72.264  85.172  0.00  0.00    +0.000 A 
ATOM     13  C   UNL     1      83.658  72.842  85.407  0.00  0.00    +0.000 A 
ATOM     14  C   UNL     1      83.187  72.983  86.711  0.00  0.00    +0.000 A 
ATOM     15  C   UNL     1      83.966  72.548  87.782  0.00  0.00    +0.000 A 
ATOM     16  C   UNL     1      85.215  71.969  87.549  0.00  0.00    +0.000 A 
ENDBRANCH  10  11
ENDBRANCH   9  10
ENDBRANCH   6   9
TORSDOF 3
ENDMDL
