REMARK  Name = *****
REMARK  3 active torsions:
REMARK  status: ('A' for Active; 'I' for Inactive)
REMARK    1  A    between atoms: C_4  and  C_7
REMARK    2  A    between atoms: C_7  and  S_8
REMARK    3  A    between atoms: S_8  and  C_10
REMARK                            x       y       z     vdW  Elec       q    Type
REMARK                         _______ _______ _______ _____ _____    ______ ____
ROOT
ATOM      1  S   UNL     1      -3.722  -1.436  -0.183  0.00  0.00    +0.000 S 
ATOM      2  O   UNL     1      -3.645  -2.262   1.070  0.00  0.00    +0.000 OA
ENDROOT
BRANCH   1   3
ATOM      3  C   UNL     1      -5.426  -0.830  -0.255  0.00  0.00    +0.000 A 
ATOM      4  C   UNL     1      -5.898  -0.239  -1.434  0.00  0.00    +0.000 A 
ATOM      5  C   UNL     1      -7.211   0.232  -1.503  0.00  0.00    +0.000 A 
ATOM      6  C   UNL     1      -8.046   0.104  -0.398  0.00  0.00    +0.000 A 
ATOM      7  C   UNL     1      -7.594  -0.488   0.775  0.00  0.00    +0.000 A 
ATOM      8  C   UNL     1      -6.282  -0.960   0.847  0.00  0.00    +0.000 A 
ATOM      9  F   UNL     1      -9.304   0.557  -0.467  0.00  0.00    +0.000 F 
ENDBRANCH   1   3
BRANCH   1  10
ATOM     10  C   UNL     1      -2.933   0.175   0.165  0.00  0.00    +0.000 C 
BRANCH  10  14
ATOM     11  C   UNL     1       1.369  -0.091   0.017  0.00  0.00    +0.000 A 
ATOM     12  C   UNL     1       0.670   0.485  -1.042  0.00  0.00    +0.000 A 
ATOM     13  C   UNL     1      -0.722   0.573  -0.997  0.00  0.00    +0.000 A 
ATOM     14  C   UNL     1      -1.430   0.088   0.113  0.00  0.00    +0.000 A 
ATOM     15  C   UNL     1      -0.715  -0.494   1.171  0.00  0.00    +0.000 A 
ATOM     16  C   UNL     1       0.677  -0.582   1.122  0.00  0.00    +0.000 A 
ENDBRANCH  10  14
ENDBRANCH   1  10
TORSDOF 3
