MODEL 1
REMARK VINA RESULT:      -4.9      0.000      0.000
REMARK  Name = *****
REMARK  5 active torsions:
REMARK  status: ('A' for Active; 'I' for Inactive)
REMARK    1  A    between atoms: C_1  and  C_2
REMARK    2  A    between atoms: C_4  and  C_8
REMARK    3  A    between atoms: C_8  and  C_9
REMARK    4  A    between atoms: C_9  and  C_10
REMARK    5  A    between atoms: C_12  and  C_16
REMARK                            x       y       z     vdW  Elec       q    Type
REMARK                         _______ _______ _______ _____ _____    ______ ____
ROOT
ATOM      1  C   UNL     1      88.884  70.181  86.869  0.00  0.00    +0.000 C 
ENDROOT
BRANCH   1   2
ATOM      2  C   UNL     1      88.848  68.672  86.877  0.00  0.00    +0.000 A 
ATOM      3  C   UNL     1      89.867  67.932  86.258  0.00  0.00    +0.000 A 
ATOM      4  C   UNL     1      89.843  66.532  86.282  0.00  0.00    +0.000 A 
ATOM      5  C   UNL     1      88.798  65.866  86.929  0.00  0.00    +0.000 A 
ATOM      6  C   UNL     1      87.784  66.595  87.551  0.00  0.00    +0.000 A 
ATOM      7  C   UNL     1      87.810  67.990  87.527  0.00  0.00    +0.000 A 
BRANCH   4   8
ATOM      8  C   UNL     1      90.887  65.786  85.645  0.00  0.00    +0.000 C 
ATOM      9  N   UNL     1      91.733  65.182  85.128  0.00  0.00    +0.000 NA
ENDBRANCH   4   8
ENDBRANCH   1   2
BRANCH   1  10
ATOM     10  C   UNL     1      88.017  70.761  85.749  0.00  0.00    +0.000 C 
BRANCH  10  14
ATOM     11  C   UNL     1      85.087  72.039  89.652  0.00  0.00    +0.000 C 
ATOM     12  C   UNL     1      85.302  71.925  88.172  0.00  0.00    +0.000 A 
ATOM     13  C   UNL     1      86.499  71.400  87.666  0.00  0.00    +0.000 A 
ATOM     14  C   UNL     1      86.719  71.316  86.283  0.00  0.00    +0.000 A 
ATOM     15  C   UNL     1      85.734  71.786  85.406  0.00  0.00    +0.000 A 
ATOM     16  C   UNL     1      84.547  72.324  85.902  0.00  0.00    +0.000 A 
ATOM     17  C   UNL     1      84.334  72.398  87.278  0.00  0.00    +0.000 A 
ENDBRANCH  10  14
ENDBRANCH   1  10
TORSDOF 4
ENDMDL
