MODEL 1
REMARK VINA RESULT:      -4.7      0.000      0.000
REMARK  Name = *****
REMARK  5 active torsions:
REMARK  status: ('A' for Active; 'I' for Inactive)
REMARK    1  A    between atoms: C_1  and  C_2
REMARK    2  A    between atoms: C_2  and  C_3
REMARK    3  A    between atoms: C_3  and  C_4
REMARK    4  A    between atoms: C_3  and  C_10
REMARK    5  A    between atoms: C_10  and  C_12
REMARK                            x       y       z     vdW  Elec       q    Type
REMARK                         _______ _______ _______ _____ _____    ______ ____
ROOT
ATOM      1  C   UNL     1      87.300  70.890  88.235  0.00  0.00    +0.000 C 
ENDROOT
BRANCH   1   2
ATOM      2  C   UNL     1      86.250  71.475  87.299  0.00  0.00    +0.000 A 
ATOM      3  C   UNL     1      86.421  71.456  85.906  0.00  0.00    +0.000 A 
ATOM      4  C   UNL     1      85.443  71.985  85.063  0.00  0.00    +0.000 A 
ATOM      5  C   UNL     1      84.279  72.531  85.598  0.00  0.00    +0.000 A 
ATOM      6  C   UNL     1      84.088  72.542  86.978  0.00  0.00    +0.000 A 
ATOM      7  C   UNL     1      85.065  72.013  87.824  0.00  0.00    +0.000 A 
ENDBRANCH   1   2
BRANCH   1   9
ATOM      8  C   UNL     1      88.569  71.593  90.334  0.00  0.00    +0.000 C 
ATOM      9  C   UNL     1      87.233  71.608  89.601  0.00  0.00    +0.000 C 
ENDBRANCH   1   9
BRANCH   1  10
ATOM     10  C   UNL     1      87.143  69.370  88.389  0.00  0.00    +0.000 C 
ATOM     11  O   UNL     1      86.282  68.875  89.120  0.00  0.00    +0.000 OA
BRANCH  10  12
ATOM     12  C   UNL     1      88.049  68.447  87.632  0.00  0.00    +0.000 A 
ATOM     13  C   UNL     1      89.165  68.890  86.912  0.00  0.00    +0.000 A 
ATOM     14  C   UNL     1      89.975  67.975  86.233  0.00  0.00    +0.000 A 
ATOM     15  C   UNL     1      89.677  66.615  86.264  0.00  0.00    +0.000 A 
ATOM     16  C   UNL     1      88.567  66.162  86.971  0.00  0.00    +0.000 A 
ATOM     17  C   UNL     1      87.755  67.074  87.651  0.00  0.00    +0.000 A 
ENDBRANCH  10  12
ENDBRANCH   1  10
TORSDOF 4
ENDMDL
