MODEL 1
REMARK VINA RESULT:      -4.5      0.000      0.000
REMARK  Name = *****
REMARK  4 active torsions:
REMARK  status: ('A' for Active; 'I' for Inactive)
REMARK    1  A    between atoms: C_1  and  C_2
REMARK    2  A    between atoms: C_2  and  C_3
REMARK    3  A    between atoms: C_2  and  N_9
REMARK    4  A    between atoms: C_10  and  C_12
REMARK                            x       y       z     vdW  Elec       q    Type
REMARK                         _______ _______ _______ _____ _____    ______ ____
ROOT
ATOM      1  N   UNL     1      87.997  65.537  86.698  0.00  0.00    +0.000 NA
ATOM      2  C   UNL     1      88.624  64.481  87.495  0.00  0.00    +0.000 C 
ATOM      3  O   UNL     1      88.422  64.302  86.081  0.00  0.00    +0.000 OA
ENDROOT
BRANCH   2   4
ATOM      4  C   UNL     1      87.748  63.671  88.416  0.00  0.00    +0.000 A 
ATOM      5  C   UNL     1      87.546  64.070  89.749  0.00  0.00    +0.000 A 
ATOM      6  C   UNL     1      86.723  63.342  90.614  0.00  0.00    +0.000 A 
ATOM      7  C   UNL     1      86.086  62.192  90.157  0.00  0.00    +0.000 A 
ATOM      8  C   UNL     1      86.263  61.771  88.844  0.00  0.00    +0.000 A 
ATOM      9  C   UNL     1      87.082  62.508  87.984  0.00  0.00    +0.000 A 
ATOM     10 CL   UNL     1      85.077  61.292  91.219  0.00  0.00    +0.000 Cl
ENDBRANCH   2   4
BRANCH   1  12
ATOM     11  C   UNL     1      88.789  66.677  84.689  0.00  0.00    +0.000 C 
ATOM     12  C   UNL     1      88.946  66.555  86.209  0.00  0.00    +0.000 C 
BRANCH  12  13
ATOM     13  C   UNL     1      88.723  67.904  86.880  0.00  0.00    +0.000 A 
ATOM     14  C   UNL     1      89.614  68.975  86.694  0.00  0.00    +0.000 A 
ATOM     15  C   UNL     1      89.391  70.204  87.316  0.00  0.00    +0.000 A 
ATOM     16  C   UNL     1      88.278  70.380  88.136  0.00  0.00    +0.000 A 
ATOM     17  C   UNL     1      87.389  69.327  88.336  0.00  0.00    +0.000 A 
ATOM     18  C   UNL     1      87.608  68.097  87.713  0.00  0.00    +0.000 A 
ENDBRANCH  12  13
ENDBRANCH   1  12
TORSDOF 3
ENDMDL
