MODEL 1
REMARK VINA RESULT:      -4.6      0.000      0.000
REMARK  Name = *****
REMARK  5 active torsions:
REMARK  status: ('A' for Active; 'I' for Inactive)
REMARK    1  A    between atoms: C_4  and  C_7
REMARK    2  A    between atoms: C_7  and  O_8
REMARK    3  A    between atoms: O_8  and  C_9
REMARK    4  A    between atoms: C_9  and  C_11
REMARK    5  A    between atoms: C_13  and  C_17
REMARK                            x       y       z     vdW  Elec       q    Type
REMARK                         _______ _______ _______ _____ _____    ______ ____
ROOT
ATOM      1  C   UNL     1      89.772  69.128  86.520  0.00  0.00    +0.000 C 
ATOM      2  O   UNL     1      90.188  68.005  86.756  0.00  0.00    +0.000 OA
ENDROOT
BRANCH   1   3
ATOM      3  C   UNL     1      89.866  69.770  85.180  0.00  0.00    +0.000 A 
ATOM      4  C   UNL     1      90.038  71.155  85.023  0.00  0.00    +0.000 A 
ATOM      5  C   UNL     1      90.123  71.717  83.740  0.00  0.00    +0.000 A 
ATOM      6  C   UNL     1      90.037  70.876  82.618  0.00  0.00    +0.000 A 
ATOM      7  C   UNL     1      89.871  69.500  82.771  0.00  0.00    +0.000 A 
ATOM      8  C   UNL     1      89.788  68.948  84.048  0.00  0.00    +0.000 A 
BRANCH   5   9
ATOM      9  C   UNL     1      90.306  73.191  83.527  0.00  0.00    +0.000 C 
ATOM     10  O   UNL     1      89.326  73.911  83.709  0.00  0.00    +0.000 OA
ATOM     11 CL   UNL     1      91.868  73.819  83.042  0.00  0.00    +0.000 Cl
ENDBRANCH   5   9
ENDBRANCH   1   3
BRANCH   1  12
ATOM     12  O   UNL     1      89.156  69.959  87.392  0.00  0.00    +0.000 OA
BRANCH  12  13
ATOM     13  C   UNL     1      87.909  69.496  87.922  0.00  0.00    +0.000 C 
BRANCH  13  17
ATOM     14  C   UNL     1      84.813  72.362  87.046  0.00  0.00    +0.000 A 
ATOM     15  C   UNL     1      85.079  72.005  88.366  0.00  0.00    +0.000 A 
ATOM     16  C   UNL     1      86.085  71.081  88.652  0.00  0.00    +0.000 A 
ATOM     17  C   UNL     1      86.840  70.511  87.617  0.00  0.00    +0.000 A 
ATOM     18  C   UNL     1      86.555  70.866  86.291  0.00  0.00    +0.000 A 
ATOM     19  C   UNL     1      85.550  71.792  86.009  0.00  0.00    +0.000 A 
ENDBRANCH  13  17
ENDBRANCH  12  13
ENDBRANCH   1  12
TORSDOF 5
ENDMDL
