REMARK  Name = *****
REMARK  6 active torsions:
REMARK  status: ('A' for Active; 'I' for Inactive)
REMARK    1  A    between atoms: C_1  and  C_2
REMARK    2  A    between atoms: C_4  and  C_16
REMARK    3  A    between atoms: C_5  and  C_8
REMARK    4  A    between atoms: C_8  and  C_9
REMARK    5  A    between atoms: C_9  and  C_10
REMARK    6  A    between atoms: C_16  and  C_18
REMARK                            x       y       z     vdW  Elec       q    Type
REMARK                         _______ _______ _______ _____ _____    ______ ____
ROOT
ATOM      1  C   UNL     1       2.614  -0.463   0.638  0.00  0.00    +0.000 C 
ATOM      2  C   UNL     1       1.145  -0.274   0.401  0.00  0.00    +0.000 A 
ATOM      3  C   UNL     1       0.456   0.780   1.010  0.00  0.00    +0.000 A 
ATOM      4  C   UNL     1      -0.926   0.945   0.813  0.00  0.00    +0.000 A 
ATOM      5  C   UNL     1      -1.652   0.043   0.002  0.00  0.00    +0.000 A 
ATOM      6  C   UNL     1      -0.942  -1.010  -0.600  0.00  0.00    +0.000 A 
ATOM      7  C   UNL     1       0.432  -1.172  -0.394  0.00  0.00    +0.000 A 
ENDROOT
BRANCH   4   8
ATOM      8  C   UNL     1      -1.588   2.110   1.470  0.00  0.00    +0.000 C 
ATOM      9  O   UNL     1      -2.401   2.795   0.855  0.00  0.00    +0.000 OA
ATOM     10  C   UNL     1      -1.205   2.432   2.891  0.00  0.00    +0.000 C 
ENDBRANCH   4   8
BRANCH   5  11
ATOM     11  C   UNL     1      -3.145   0.226  -0.217  0.00  0.00    +0.000 C 
BRANCH  11  12
ATOM     12  C   UNL     1      -3.915  -0.950  -0.841  0.00  0.00    +0.000 C 
BRANCH  12  13
ATOM     13  C   UNL     1      -5.422  -0.805  -0.922  0.00  0.00    +0.000 A 
ATOM     14  C   UNL     1      -6.095   0.409  -0.727  0.00  0.00    +0.000 A 
ATOM     15  C   UNL     1      -7.487   0.478  -0.836  0.00  0.00    +0.000 A 
ATOM     16  C   UNL     1      -8.224  -0.661  -1.149  0.00  0.00    +0.000 A 
ATOM     17  C   UNL     1      -7.571  -1.872  -1.357  0.00  0.00    +0.000 A 
ATOM     18  C   UNL     1      -6.181  -1.943  -1.247  0.00  0.00    +0.000 A 
ENDBRANCH  12  13
ENDBRANCH  11  12
ENDBRANCH   5  11
TORSDOF 4
