MODEL 1
REMARK VINA RESULT:      -4.9      0.000      0.000
REMARK  Name = *****
REMARK  2 active torsions:
REMARK  status: ('A' for Active; 'I' for Inactive)
REMARK    1  A    between atoms: C_5  and  C_6
REMARK    2  A    between atoms: C_6  and  C_7
REMARK                            x       y       z     vdW  Elec       q    Type
REMARK                         _______ _______ _______ _____ _____    ______ ____
ROOT
ATOM      1  C   UNL     1      88.890  70.477  87.934  0.00  0.00    +0.000 C 
ATOM      2  C   UNL     1      87.382  70.390  87.700  0.00  0.00    +0.000 C 
ATOM      3  C   UNL     1      87.127  68.880  87.552  0.00  0.00    +0.000 C 
ATOM      4  C   UNL     1      88.444  68.324  87.057  0.00  0.00    +0.000 C 
ATOM      5  C   UNL     1      88.716  67.028  86.821  0.00  0.00    +0.000 C 
ATOM      6  C   UNL     1      89.463  69.441  86.968  0.00  0.00    +0.000 C 
ATOM      7  C   UNL     1      89.603  69.945  85.556  0.00  0.00    +0.000 C 
ATOM      8  C   UNL     1      88.791  70.779  84.888  0.00  0.00    +0.000 C 
ATOM      9  C   UNL     1      87.540  71.353  85.329  0.00  0.00    +0.000 C 
ATOM     10  C   UNL     1      86.911  71.177  86.501  0.00  0.00    +0.000 C 
ENDROOT
BRANCH   5  11
ATOM     11  C   UNL     1      87.741  65.888  86.913  0.00  0.00    +0.000 C 
BRANCH  11  12
ATOM     12  C   UNL     1      87.718  65.250  88.281  0.00  0.00    +0.000 A 
ATOM     13  C   UNL     1      88.690  64.304  88.639  0.00  0.00    +0.000 A 
ATOM     14  C   UNL     1      88.667  63.705  89.899  0.00  0.00    +0.000 A 
ATOM     15  C   UNL     1      87.670  64.040  90.813  0.00  0.00    +0.000 A 
ATOM     16  C   UNL     1      86.695  64.974  90.468  0.00  0.00    +0.000 A 
ATOM     17  C   UNL     1      86.719  65.577  89.209  0.00  0.00    +0.000 A 
ENDBRANCH  11  12
ENDBRANCH   5  11
TORSDOF 2
ENDMDL
