REMARK  Name = *****
REMARK  2 active torsions:
REMARK  status: ('A' for Active; 'I' for Inactive)
REMARK    1  A    between atoms: C_3  and  C_7
REMARK    2  A    between atoms: C_8  and  C_9
REMARK                            x       y       z     vdW  Elec       q    Type
REMARK                         _______ _______ _______ _____ _____    ______ ____
ROOT
ATOM      1  C   UNL     1       2.235   1.464  -0.219  0.00  0.00    +0.000 C 
ATOM      2  C   UNL     1       2.268   2.807  -0.206  0.00  0.00    +0.000 C 
ENDROOT
BRANCH   1   5
ATOM      3  C   UNL     1      -1.250   0.036  -0.133  0.00  0.00    +0.000 C 
ATOM      4  C   UNL     1      -0.333   1.241   0.085  0.00  0.00    +0.000 C 
ATOM      5  C   UNL     1       1.045   0.658  -0.067  0.00  0.00    +0.000 C 
ATOM      6  C   UNL     1       0.981  -0.680  -0.023  0.00  0.00    +0.000 C 
ATOM      7  C   UNL     1      -0.404  -1.197   0.165  0.00  0.00    +0.000 C 
ATOM      8 CL   UNL     1       2.271  -1.788  -0.133  0.00  0.00    +0.000 Cl
ENDBRANCH   1   5
BRANCH   2   9
ATOM      9  C   UNL     1       3.459   3.612  -0.362  0.00  0.00    +0.000 C 
ATOM     10  C   UNL     1       3.526   4.950  -0.406  0.00  0.00    +0.000 C 
ATOM     11  C   UNL     1       4.911   5.464  -0.603  0.00  0.00    +0.000 C 
ATOM     12  C   UNL     1       5.757   4.229  -0.313  0.00  0.00    +0.000 C 
ATOM     13  C   UNL     1       4.835   3.026  -0.521  0.00  0.00    +0.000 C 
ATOM     14 CL   UNL     1       2.238   6.061  -0.291  0.00  0.00    +0.000 Cl
ENDBRANCH   2   9
TORSDOF 2
