MODEL 1
REMARK VINA RESULT:      -4.5      0.000      0.000
REMARK  Name = *****
REMARK  6 active torsions:
REMARK  status: ('A' for Active; 'I' for Inactive)
REMARK    1  A    between atoms: C_1  and  C_2
REMARK    2  A    between atoms: C_2  and  O_4
REMARK    3  A    between atoms: O_4  and  C_5
REMARK    4  A    between atoms: C_5  and  C_6
REMARK    5  A    between atoms: C_5  and  C_13
REMARK    6  A    between atoms: C_6  and  C_7
REMARK                            x       y       z     vdW  Elec       q    Type
REMARK                         _______ _______ _______ _____ _____    ______ ____
ROOT
ATOM      1  C   UNL     1      88.394  64.534  87.151  0.00  0.00    +0.000 C 
ENDROOT
BRANCH   1   2
ATOM      2  C   UNL     1      88.640  66.035  87.066  0.00  0.00    +0.000 A 
ATOM      3  C   UNL     1      87.725  66.966  87.583  0.00  0.00    +0.000 A 
ATOM      4  C   UNL     1      87.959  68.338  87.468  0.00  0.00    +0.000 A 
ATOM      5  C   UNL     1      89.112  68.793  86.832  0.00  0.00    +0.000 A 
ATOM      6  C   UNL     1      90.031  67.886  86.309  0.00  0.00    +0.000 A 
ATOM      7  C   UNL     1      89.794  66.514  86.423  0.00  0.00    +0.000 A 
ATOM      8 CL   UNL     1      89.401  70.483  86.689  0.00  0.00    +0.000 Cl
ENDBRANCH   1   2
BRANCH   1   9
ATOM      9  O   UNL     1      89.169  63.859  86.140  0.00  0.00    +0.000 OA
BRANCH   9  11
ATOM     10  C   UNL     1      87.057  63.533  85.187  0.00  0.00    +0.000 C 
ATOM     11  C   UNL     1      88.470  63.050  85.302  0.00  0.00    +0.000 C 
ATOM     12  O   UNL     1      88.916  62.077  84.713  0.00  0.00    +0.000 OA
ENDBRANCH   9  11
ENDBRANCH   1   9
BRANCH   1  13
ATOM     13  C   UNL     1      88.679  63.966  88.564  0.00  0.00    +0.000 C 
BRANCH  13  14
ATOM     14  C   UNL     1      87.506  63.309  89.275  0.00  0.00    +0.000 C 
ATOM     15  C   UNL     1      87.045  63.778  90.450  0.00  0.00    +0.000 C 
ATOM     16  C   UNL     1      85.903  63.166  91.207  0.00  0.00    +0.000 C 
ATOM     17  C   UNL     1      85.496  61.792  90.678  0.00  0.00    +0.000 C 
ATOM     18  C   UNL     1      85.479  61.777  89.154  0.00  0.00    +0.000 C 
ATOM     19  C   UNL     1      86.855  62.132  88.585  0.00  0.00    +0.000 C 
ENDBRANCH  13  14
ENDBRANCH   1  13
TORSDOF 5
ENDMDL
