REMARK  Name = *****
REMARK  3 active torsions:
REMARK  status: ('A' for Active; 'I' for Inactive)
REMARK    1  A    between atoms: C_4  and  C_7
REMARK    2  A    between atoms: C_8  and  S_9
REMARK    3  A    between atoms: S_9  and  C_10
REMARK                            x       y       z     vdW  Elec       q    Type
REMARK                         _______ _______ _______ _____ _____    ______ ____
ROOT
ATOM      1  C   UNL     1       2.813  -0.629  -0.364  0.00  0.00    +0.000 C 
ATOM      2  C   UNL     1       3.831  -1.073   0.386  0.00  0.00    +0.000 C 
ENDROOT
BRANCH   1   6
ATOM      3  C   UNL     1      -1.415   0.340  -0.197  0.00  0.00    +0.000 C 
ATOM      4  C   UNL     1      -0.979  -1.064   0.210  0.00  0.00    +0.000 C 
ATOM      5  C   UNL     1       0.432  -1.378  -0.283  0.00  0.00    +0.000 C 
ATOM      6  C   UNL     1       1.444  -0.325   0.192  0.00  0.00    +0.000 C 
ATOM      7  C   UNL     1       0.998   1.086  -0.221  0.00  0.00    +0.000 C 
ATOM      8  C   UNL     1      -0.416   1.395   0.266  0.00  0.00    +0.000 C 
ENDBRANCH   1   6
BRANCH   2   9
ATOM      9  S   UNL     1       5.376  -1.430  -0.306  0.00  0.00    +0.000 S 
BRANCH   9  10
ATOM     10  C   UNL     1       5.697  -3.033   0.423  0.00  0.00    +0.000 A 
ATOM     11  C   UNL     1       6.495  -3.931  -0.278  0.00  0.00    +0.000 A 
ATOM     12  C   UNL     1       6.740  -5.186   0.273  0.00  0.00    +0.000 A 
ATOM     13  C   UNL     1       6.187  -5.505   1.507  0.00  0.00    +0.000 A 
ATOM     14  C   UNL     1       5.414  -4.549   2.143  0.00  0.00    +0.000 A 
ATOM     15  N   UNL     1       5.160  -3.325   1.632  0.00  0.00    +0.000 NA
ENDBRANCH   9  10
ENDBRANCH   2   9
TORSDOF 3
