MODEL 1
REMARK VINA RESULT:      -4.7      0.000      0.000
REMARK  Name = *****
REMARK  4 active torsions:
REMARK  status: ('A' for Active; 'I' for Inactive)
REMARK    1  A    between atoms: C_1  and  C_2
REMARK    2  A    between atoms: C_4  and  O_8
REMARK    3  A    between atoms: O_8  and  C_9
REMARK    4  A    between atoms: C_9  and  C_10
REMARK                            x       y       z     vdW  Elec       q    Type
REMARK                         _______ _______ _______ _____ _____    ______ ____
ROOT
ATOM      1  O   UNL     1     102.573 126.988  83.150  0.00  0.00    +0.000 OA
ENDROOT
BRANCH   1   5
ATOM      2  C   UNL     1      99.314 130.663  84.002  0.00  0.00    +0.000 C 
ATOM      3  C   UNL     1      99.665 129.285  83.521  0.00  0.00    +0.000 A 
ATOM      4  C   UNL     1     100.990 128.825  83.596  0.00  0.00    +0.000 A 
ATOM      5  C   UNL     1     101.328 127.554  83.125  0.00  0.00    +0.000 A 
ATOM      6  C   UNL     1     100.334 126.744  82.570  0.00  0.00    +0.000 A 
ATOM      7  C   UNL     1      99.019 127.199  82.474  0.00  0.00    +0.000 A 
ATOM      8  C   UNL     1      98.686 128.468  82.944  0.00  0.00    +0.000 A 
ENDBRANCH   1   5
BRANCH   1   9
ATOM      9  C   UNL     1     102.662 125.629  83.574  0.00  0.00    +0.000 C 
BRANCH   9  10
ATOM     10  C   UNL     1     103.488 124.825  82.590  0.00  0.00    +0.000 A 
ATOM     11  C   UNL     1     104.143 123.643  82.979  0.00  0.00    +0.000 A 
ATOM     12  C   UNL     1     104.867 122.895  82.050  0.00  0.00    +0.000 A 
ATOM     13  C   UNL     1     104.927 123.317  80.727  0.00  0.00    +0.000 A 
ATOM     14  C   UNL     1     104.274 124.471  80.316  0.00  0.00    +0.000 A 
ATOM     15  C   UNL     1     103.551 125.223  81.244  0.00  0.00    +0.000 A 
ATOM     16  F   UNL     1     105.620 122.597  79.835  0.00  0.00    +0.000 F 
ENDBRANCH   9  10
ENDBRANCH   1   9
TORSDOF 3
ENDMDL
