MODEL 1
REMARK VINA RESULT:      -4.4      0.000      0.000
REMARK  Name = *****
REMARK  3 active torsions:
REMARK  status: ('A' for Active; 'I' for Inactive)
REMARK    1  A    between atoms: C_1  and  N_2
REMARK    2  A    between atoms: N_2  and  C_3
REMARK    3  A    between atoms: C_10  and  C_12
REMARK                            x       y       z     vdW  Elec       q    Type
REMARK                         _______ _______ _______ _____ _____    ______ ____
ROOT
ATOM      1  C   UNL     1     103.622 124.489  83.160  0.00  0.00    +0.000 C 
ATOM      2  N   UNL     1     102.922 125.765  83.043  0.00  0.00    +0.000 N 
ATOM      3  C   UNL     1     101.859 125.987  83.935  0.00  0.00    +0.000 C 
ATOM      4  O   UNL     1     101.700 125.341  84.971  0.00  0.00    +0.000 OA
ENDROOT
BRANCH   2   5
ATOM      5  C   UNL     1     103.502 126.758  82.186  0.00  0.00    +0.000 A 
ATOM      6  C   UNL     1     103.285 126.746  80.799  0.00  0.00    +0.000 A 
ATOM      7  C   UNL     1     103.842 127.728  79.972  0.00  0.00    +0.000 A 
ATOM      8  C   UNL     1     104.614 128.743  80.525  0.00  0.00    +0.000 A 
ATOM      9  C   UNL     1     104.826 128.789  81.897  0.00  0.00    +0.000 A 
ATOM     10  C   UNL     1     104.265 127.807  82.723  0.00  0.00    +0.000 A 
ATOM     11 CL   UNL     1     105.301 129.949  79.509  0.00  0.00    +0.000 Cl
ENDBRANCH   2   5
BRANCH   3  12
ATOM     12  C   UNL     1     100.791 126.963  83.586  0.00  0.00    +0.000 A 
ATOM     13  C   UNL     1      99.743 126.621  82.721  0.00  0.00    +0.000 A 
ATOM     14  C   UNL     1      98.743 127.553  82.436  0.00  0.00    +0.000 A 
ATOM     15  C   UNL     1      98.778 128.817  83.025  0.00  0.00    +0.000 A 
ATOM     16  C   UNL     1      99.804 129.151  83.909  0.00  0.00    +0.000 A 
ATOM     17  C   UNL     1     100.807 128.223  84.197  0.00  0.00    +0.000 A 
ENDBRANCH   3  12
TORSDOF 2
ENDMDL
