MODEL 1
REMARK VINA RESULT:      -4.7      0.000      0.000
REMARK  Name = *****
REMARK  5 active torsions:
REMARK  status: ('A' for Active; 'I' for Inactive)
REMARK    1  A    between atoms: C_3  and  C_9
REMARK    2  A    between atoms: C_5  and  N_7
REMARK    3  A    between atoms: C_10  and  C_11
REMARK    4  A    between atoms: C_10  and  C_13
REMARK    5  A    between atoms: C_16  and  N_19
REMARK                            x       y       z     vdW  Elec       q    Type
REMARK                         _______ _______ _______ _____ _____    ______ ____
ROOT
ATOM      1  C   UNL     1     102.090 125.803  82.755  0.00  0.00    +0.000 C 
ATOM      2  C   UNL     1     103.053 125.743  81.807  0.00  0.00    +0.000 C 
ENDROOT
BRANCH   1   5
ATOM      3  C   UNL     1      98.860 127.741  82.551  0.00  0.00    +0.000 A 
ATOM      4  C   UNL     1      99.820 126.730  82.433  0.00  0.00    +0.000 A 
ATOM      5  C   UNL     1     101.116 126.898  82.942  0.00  0.00    +0.000 A 
ATOM      6  C   UNL     1     101.426 128.091  83.612  0.00  0.00    +0.000 A 
ATOM      7  C   UNL     1     100.463 129.108  83.703  0.00  0.00    +0.000 A 
ATOM      8  C   UNL     1      99.179 128.943  83.179  0.00  0.00    +0.000 A 
BRANCH   7   9
ATOM      9  N   UNL     1     100.796 130.313  84.319  0.00  0.00    +0.000 NA
ATOM     10  N   UNL     1     101.058 131.259  84.790  0.00  0.00    +0.000 NA
ENDBRANCH   7   9
ENDBRANCH   1   5
BRANCH   2  11
ATOM     11  C   UNL     1     103.908 124.535  81.686  0.00  0.00    +0.000 A 
ATOM     12  C   UNL     1     104.450 124.173  80.438  0.00  0.00    +0.000 A 
ATOM     13  C   UNL     1     105.282 123.054  80.306  0.00  0.00    +0.000 A 
ATOM     14  C   UNL     1     105.581 122.286  81.435  0.00  0.00    +0.000 A 
ATOM     15  C   UNL     1     105.055 122.623  82.688  0.00  0.00    +0.000 A 
ATOM     16  C   UNL     1     104.223 123.746  82.806  0.00  0.00    +0.000 A 
BRANCH  14  17
ATOM     17  N   UNL     1     106.417 121.176  81.311  0.00  0.00    +0.000 NA
ATOM     18  N   UNL     1     107.071 120.312  81.212  0.00  0.00    +0.000 NA
ENDBRANCH  14  17
ENDBRANCH   2  11
BRANCH   2  19
ATOM     19  C   UNL     1     103.241 126.813  80.874  0.00  0.00    +0.000 C 
ATOM     20  N   UNL     1     103.480 127.655  80.114  0.00  0.00    +0.000 NA
ENDBRANCH   2  19
TORSDOF 5
ENDMDL
