MODEL 1
REMARK VINA RESULT:      -4.0      0.000      0.000
REMARK  Name = *****
REMARK  5 active torsions:
REMARK  status: ('A' for Active; 'I' for Inactive)
REMARK    1  A    between atoms: C_1  and  O_2
REMARK    2  A    between atoms: O_2  and  C_3
REMARK    3  A    between atoms: C_6  and  C_9
REMARK    4  A    between atoms: C_9  and  C_10
REMARK    5  A    between atoms: C_10  and  C_11
REMARK                            x       y       z     vdW  Elec       q    Type
REMARK                         _______ _______ _______ _____ _____    ______ ____
ROOT
ATOM      1  C   UNL     1     103.122 125.944  81.079  0.00  0.00    +0.000 A 
ATOM      2  C   UNL     1     102.185 125.730  82.090  0.00  0.00    +0.000 A 
ATOM      3  C   UNL     1     101.885 126.750  83.000  0.00  0.00    +0.000 A 
ATOM      4  C   UNL     1     102.516 127.997  82.910  0.00  0.00    +0.000 A 
ATOM      5  C   UNL     1     103.460 128.204  81.899  0.00  0.00    +0.000 A 
ATOM      6  C   UNL     1     103.755 127.185  80.990  0.00  0.00    +0.000 A 
ENDROOT
BRANCH   1   8
ATOM      7  C   UNL     1     104.492 124.088  80.509  0.00  0.00    +0.000 C 
ATOM      8  O   UNL     1     103.504 125.037  80.128  0.00  0.00    +0.000 OA
ENDBRANCH   1   8
BRANCH   4   9
ATOM      9  C   UNL     1     102.208 129.088  83.905  0.00  0.00    +0.000 C 
BRANCH   9  10
ATOM     10  C   UNL     1     101.191 128.623  84.953  0.00  0.00    +0.000 C 
BRANCH  10  11
ATOM     11  C   UNL     1      99.864 129.416  84.916  0.00  0.00    +0.000 C 
ATOM     12  C   UNL     1      98.710 128.725  85.663  0.00  0.00    +0.000 C 
ATOM     13  C   UNL     1      98.289 127.407  85.005  0.00  0.00    +0.000 C 
ATOM     14  C   UNL     1      98.224 127.497  83.509  0.00  0.00    +0.000 C 
ATOM     15  C   UNL     1      98.726 128.528  82.814  0.00  0.00    +0.000 C 
ATOM     16  C   UNL     1      99.434 129.687  83.458  0.00  0.00    +0.000 C 
ENDBRANCH  10  11
ENDBRANCH   9  10
ENDBRANCH   4   9
TORSDOF 4
ENDMDL
