REMARK  Name = *****
REMARK  3 active torsions:
REMARK  status: ('A' for Active; 'I' for Inactive)
REMARK    1  A    between atoms: C_4  and  O_7
REMARK    2  A    between atoms: O_7  and  C_8
REMARK    3  A    between atoms: C_8  and  C_9
REMARK                            x       y       z     vdW  Elec       q    Type
REMARK                         _______ _______ _______ _____ _____    ______ ____
ROOT
ATOM      1  C   UNL     1      -3.616  -0.644  -0.366  0.00  0.00    +0.000 C 
ENDROOT
BRANCH   1   2
ATOM      2  C   UNL     1      -5.030  -0.113  -0.409  0.00  0.00    +0.000 A 
ATOM      3  C   UNL     1      -6.075  -0.819   0.202  0.00  0.00    +0.000 A 
ATOM      4  C   UNL     1      -7.378  -0.335   0.129  0.00  0.00    +0.000 A 
ATOM      5  C   UNL     1      -7.671   0.842  -0.550  0.00  0.00    +0.000 A 
ATOM      6  C   UNL     1      -6.642   1.549  -1.169  0.00  0.00    +0.000 A 
ATOM      7  C   UNL     1      -5.330   1.072  -1.102  0.00  0.00    +0.000 A 
ATOM      8  F   UNL     1      -8.368  -1.018   0.719  0.00  0.00    +0.000 F 
ENDBRANCH   1   2
BRANCH   1   9
ATOM      9  O   UNL     1      -2.735   0.408   0.027  0.00  0.00    +0.000 OA
BRANCH   9  13
ATOM     10  C   UNL     1       1.379  -0.199   0.250  0.00  0.00    +0.000 A 
ATOM     11  C   UNL     1       0.572  -1.274  -0.117  0.00  0.00    +0.000 A 
ATOM     12  C   UNL     1      -0.815  -1.118  -0.205  0.00  0.00    +0.000 A 
ATOM     13  C   UNL     1      -1.400   0.118   0.074  0.00  0.00    +0.000 A 
ATOM     14  C   UNL     1      -0.584   1.191   0.443  0.00  0.00    +0.000 A 
ATOM     15  C   UNL     1       0.800   1.036   0.531  0.00  0.00    +0.000 A 
ENDBRANCH   9  13
ENDBRANCH   1   9
TORSDOF 3
