MODEL 1
REMARK VINA RESULT:      -4.8      0.000      0.000
REMARK  Name = *****
REMARK  3 active torsions:
REMARK  status: ('A' for Active; 'I' for Inactive)
REMARK    1  A    between atoms: C_4  and  C_7
REMARK    2  A    between atoms: C_7  and  C_8
REMARK    3  A    between atoms: C_8  and  C_9
REMARK                            x       y       z     vdW  Elec       q    Type
REMARK                         _______ _______ _______ _____ _____    ______ ____
ROOT
ATOM      1  C   UNL     1      88.445  68.843  87.162  0.00  0.00    +0.000 A 
ATOM      2  C   UNL     1      87.600  67.912  87.775  0.00  0.00    +0.000 A 
ATOM      3  C   UNL     1      87.829  66.544  87.654  0.00  0.00    +0.000 A 
ATOM      4  C   UNL     1      88.915  66.086  86.921  0.00  0.00    +0.000 A 
ATOM      5  C   UNL     1      89.772  66.993  86.314  0.00  0.00    +0.000 A 
ATOM      6  C   UNL     1      89.540  68.360  86.438  0.00  0.00    +0.000 A 
ATOM      7  F   UNL     1      90.382  69.226  85.858  0.00  0.00    +0.000 F 
ATOM      8  F   UNL     1      90.827  66.554  85.612  0.00  0.00    +0.000 F 
ATOM      9  F   UNL     1      89.140  64.768  86.804  0.00  0.00    +0.000 F 
ATOM     10  F   UNL     1      87.004  65.671  88.248  0.00  0.00    +0.000 F 
ATOM     11  F   UNL     1      86.554  68.342  88.495  0.00  0.00    +0.000 F 
ENDROOT
BRANCH   1  12
ATOM     12  C   UNL     1      88.203  70.322  87.309  0.00  0.00    +0.000 C 
BRANCH  12  13
ATOM     13  C   UNL     1      87.365  70.875  86.152  0.00  0.00    +0.000 C 
BRANCH  13  17
ATOM     14  C   UNL     1      83.724  72.695  87.570  0.00  0.00    +0.000 A 
ATOM     15  C   UNL     1      84.643  72.174  88.479  0.00  0.00    +0.000 A 
ATOM     16  C   UNL     1      85.825  71.590  88.022  0.00  0.00    +0.000 A 
ATOM     17  C   UNL     1      86.098  71.526  86.649  0.00  0.00    +0.000 A 
ATOM     18  C   UNL     1      85.166  72.047  85.742  0.00  0.00    +0.000 A 
ATOM     19  C   UNL     1      83.984  72.630  86.203  0.00  0.00    +0.000 A 
ENDBRANCH  13  17
ENDBRANCH  12  13
ENDBRANCH   1  12
TORSDOF 3
ENDMDL
