REMARK  Name = *****
REMARK  6 active torsions:
REMARK  status: ('A' for Active; 'I' for Inactive)
REMARK    1  A    between atoms: C_1  and  C_2
REMARK    2  A    between atoms: C_4  and  C_18
REMARK    3  A    between atoms: C_5  and  C_9
REMARK    4  A    between atoms: C_6  and  C_8
REMARK    5  A    between atoms: C_9  and  C_10
REMARK    6  A    between atoms: C_10  and  C_12
REMARK                            x       y       z     vdW  Elec       q    Type
REMARK                         _______ _______ _______ _____ _____    ______ ____
ROOT
ATOM      1  C   UNL     1       2.087   2.188   0.010  0.00  0.00    +0.000 C 
ATOM      2  C   UNL     1       1.059   1.096  -0.026  0.00  0.00    +0.000 A 
ATOM      3  C   UNL     1       1.431  -0.233   0.185  0.00  0.00    +0.000 A 
ATOM      4  C   UNL     1       0.477  -1.265   0.193  0.00  0.00    +0.000 A 
ATOM      5  C   UNL     1      -0.888  -0.960  -0.029  0.00  0.00    +0.000 A 
ATOM      6  C   UNL     1      -1.273   0.393  -0.195  0.00  0.00    +0.000 A 
ATOM      7  C   UNL     1      -0.293   1.400  -0.198  0.00  0.00    +0.000 A 
ATOM      8  C   UNL     1      -2.711   0.798  -0.385  0.00  0.00    +0.000 C 
ATOM      9  C   UNL     1       0.954  -2.674   0.427  0.00  0.00    +0.000 C 
ENDROOT
BRANCH   5  10
ATOM     10  C   UNL     1      -1.931  -2.067  -0.057  0.00  0.00    +0.000 C 
BRANCH  10  11
ATOM     11  C   UNL     1      -2.535  -2.400   1.299  0.00  0.00    +0.000 C 
ATOM     12  O   UNL     1      -2.267  -1.783   2.329  0.00  0.00    +0.000 OA
BRANCH  11  13
ATOM     13  C   UNL     1      -3.512  -3.533   1.380  0.00  0.00    +0.000 A 
ATOM     14  C   UNL     1      -3.925  -4.256   0.253  0.00  0.00    +0.000 A 
ATOM     15  C   UNL     1      -4.839  -5.305   0.386  0.00  0.00    +0.000 A 
ATOM     16  C   UNL     1      -5.346  -5.639   1.641  0.00  0.00    +0.000 A 
ATOM     17  C   UNL     1      -4.942  -4.925   2.767  0.00  0.00    +0.000 A 
ATOM     18  C   UNL     1      -4.030  -3.877   2.637  0.00  0.00    +0.000 A 
ENDBRANCH  11  13
ENDBRANCH  10  11
ENDBRANCH   5  10
TORSDOF 3
