REMARK  Name = *****
REMARK  4 active torsions:
REMARK  status: ('A' for Active; 'I' for Inactive)
REMARK    1  A    between atoms: C_1  and  O_2
REMARK    2  A    between atoms: O_2  and  C_3
REMARK    3  A    between atoms: C_4  and  C_10
REMARK    4  A    between atoms: C_11  and  C_12
REMARK                            x       y       z     vdW  Elec       q    Type
REMARK                         _______ _______ _______ _____ _____    ______ ____
ROOT
ATOM      1  C   UNL     1       3.660   0.660   2.912  0.00  0.00    +0.000 A 
ATOM      2  C   UNL     1       2.406   0.875   2.314  0.00  0.00    +0.000 A 
ATOM      3  C   UNL     1       2.322   1.795   1.258  0.00  0.00    +0.000 A 
ATOM      4  C   UNL     1       3.452   2.505   0.846  0.00  0.00    +0.000 A 
ATOM      5  C   UNL     1       4.681   2.312   1.472  0.00  0.00    +0.000 A 
ATOM      6  C   UNL     1       4.784   1.390   2.513  0.00  0.00    +0.000 A 
ATOM      7 BR   UNL     1       3.310   3.750  -0.570  0.00  0.00    +0.000 Br
ENDROOT
BRANCH   1   9
ATOM      8  C   UNL     1       4.131  -1.524   3.442  0.00  0.00    +0.000 C 
ATOM      9  O   UNL     1       3.823  -0.225   3.949  0.00  0.00    +0.000 OA
ENDBRANCH   1   9
BRANCH   2  10
ATOM     10  C   UNL     1       1.175   0.164   2.697  0.00  0.00    +0.000 C 
ATOM     11  C   UNL     1       0.767   0.031   3.970  0.00  0.00    +0.000 C 
BRANCH  11  12
ATOM     12  C   UNL     1      -0.471  -0.654   4.362  0.00  0.00    +0.000 A 
ATOM     13  C   UNL     1      -0.894  -1.842   3.750  0.00  0.00    +0.000 A 
ATOM     14  C   UNL     1      -2.063  -2.481   4.172  0.00  0.00    +0.000 A 
ATOM     15  C   UNL     1      -2.815  -1.945   5.215  0.00  0.00    +0.000 A 
ATOM     16  C   UNL     1      -2.395  -0.774   5.842  0.00  0.00    +0.000 A 
ATOM     17  C   UNL     1      -1.226  -0.135   5.422  0.00  0.00    +0.000 A 
ENDBRANCH  11  12
ENDBRANCH   2  10
TORSDOF 3
