MODEL 1
REMARK VINA RESULT:      -4.4      0.000      0.000
REMARK  Name = *****
REMARK  4 active torsions:
REMARK  status: ('A' for Active; 'I' for Inactive)
REMARK    1  A    between atoms: C_1  and  C_2
REMARK    2  A    between atoms: C_7  and  O_8
REMARK    3  A    between atoms: O_8  and  C_9
REMARK    4  A    between atoms: C_9  and  C_11
REMARK                            x       y       z     vdW  Elec       q    Type
REMARK                         _______ _______ _______ _____ _____    ______ ____
ROOT
ATOM      1  C   UNL     1     101.981 125.965  82.696  0.00  0.00    +0.000 C 
ATOM      2  O   UNL     1     102.399 125.275  83.611  0.00  0.00    +0.000 OA
ENDROOT
BRANCH   1   3
ATOM      3  C   UNL     1     100.948 126.998  82.882  0.00  0.00    +0.000 A 
ATOM      4  C   UNL     1      99.659 126.701  82.419  0.00  0.00    +0.000 A 
ATOM      5  C   UNL     1      98.632 127.637  82.558  0.00  0.00    +0.000 A 
ATOM      6  C   UNL     1      98.890 128.864  83.167  0.00  0.00    +0.000 A 
ATOM      7  C   UNL     1     100.170 129.154  83.648  0.00  0.00    +0.000 A 
ATOM      8  C   UNL     1     101.202 128.220  83.514  0.00  0.00    +0.000 A 
ATOM      9 CL   UNL     1     102.738 128.622  84.195  0.00  0.00    +0.000 Cl
ENDBRANCH   1   3
BRANCH   1  10
ATOM     10  O   UNL     1     102.234 125.856  81.344  0.00  0.00    +0.000 OA
BRANCH  10  17
ATOM     11  C   UNL     1     104.359 123.946  80.886  0.00  0.00    +0.000 C 
ATOM     12  C   UNL     1     104.541 125.425  80.722  0.00  0.00    +0.000 A 
ATOM     13  C   UNL     1     105.784 125.947  80.340  0.00  0.00    +0.000 A 
ATOM     14  C   UNL     1     105.964 127.326  80.198  0.00  0.00    +0.000 A 
ATOM     15  C   UNL     1     104.906 128.203  80.439  0.00  0.00    +0.000 A 
ATOM     16  C   UNL     1     103.667 127.703  80.832  0.00  0.00    +0.000 A 
ATOM     17  C   UNL     1     103.502 126.327  80.991  0.00  0.00    +0.000 A 
ENDBRANCH  10  17
ENDBRANCH   1  10
TORSDOF 3
ENDMDL
