MODEL 1
REMARK VINA RESULT:      -4.4      0.000      0.000
REMARK  Name = *****
REMARK  3 active torsions:
REMARK  status: ('A' for Active; 'I' for Inactive)
REMARK    1  A    between atoms: C_1  and  C_2
REMARK    2  A    between atoms: C_5  and  C_8
REMARK    3  A    between atoms: C_9  and  C_10
REMARK                            x       y       z     vdW  Elec       q    Type
REMARK                         _______ _______ _______ _____ _____    ______ ____
ROOT
ATOM      1  C   UNL     1      99.032 129.919  84.301  0.00  0.00    +0.000 C 
ATOM      2  C   UNL     1      99.895 128.858  83.683  0.00  0.00    +0.000 A 
ATOM      3  C   UNL     1      99.328 127.756  83.035  0.00  0.00    +0.000 A 
ATOM      4  C   UNL     1     100.144 126.772  82.466  0.00  0.00    +0.000 A 
ATOM      5  C   UNL     1     101.538 126.878  82.532  0.00  0.00    +0.000 A 
ATOM      6  C   UNL     1     102.102 127.971  83.197  0.00  0.00    +0.000 A 
ATOM      7  C   UNL     1     101.288 128.956  83.763  0.00  0.00    +0.000 A 
ENDROOT
BRANCH   5   8
ATOM      8  C   UNL     1     102.423 125.846  81.973  0.00  0.00    +0.000 C 
ATOM      9  C   UNL     1     103.440 126.119  81.139  0.00  0.00    +0.000 C 
BRANCH   9  10
ATOM     10  C   UNL     1     104.350 125.171  80.561  0.00  0.00    +0.000 A 
ATOM     11  C   UNL     1     105.320 125.462  79.624  0.00  0.00    +0.000 A 
ATOM     12  S   UNL     1     106.223 124.080  79.164  0.00  0.00    +0.000 S 
ATOM     13  C   UNL     1     105.326 123.078  80.219  0.00  0.00    +0.000 A 
ATOM     14  C   UNL     1     104.361 123.783  80.906  0.00  0.00    +0.000 A 
ENDBRANCH   9  10
ENDBRANCH   5   8
TORSDOF 2
ENDMDL
