REMARK  Name = *****
REMARK  2 active torsions:
REMARK  status: ('A' for Active; 'I' for Inactive)
REMARK    1  A    between atoms: C_2  and  C_9
REMARK    2  A    between atoms: C_3  and  C_4
REMARK                            x       y       z     vdW  Elec       q    Type
REMARK                         _______ _______ _______ _____ _____    ______ ____
ROOT
ATOM      1  C   UNL     1       0.012   0.670  -0.007  0.00  0.00    +0.000 C 
ATOM      2  C   UNL     1       0.779  -0.590   0.250  0.00  0.00    +0.000 C 
ATOM      3  C   UNL     1      -0.682  -0.658  -0.183  0.00  0.00    +0.000 C 
ENDROOT
BRANCH   2   4
ATOM      4  C   UNL     1       1.859  -1.039  -0.707  0.00  0.00    +0.000 A 
ATOM      5  C   UNL     1       2.918  -0.190  -1.067  0.00  0.00    +0.000 A 
ATOM      6  C   UNL     1       3.924  -0.609  -1.941  0.00  0.00    +0.000 A 
ATOM      7  C   UNL     1       3.895  -1.897  -2.469  0.00  0.00    +0.000 A 
ATOM      8  C   UNL     1       2.864  -2.763  -2.119  0.00  0.00    +0.000 A 
ATOM      9  C   UNL     1       1.861  -2.338  -1.244  0.00  0.00    +0.000 A 
ENDBRANCH   2   4
BRANCH   3  10
ATOM     10  C   UNL     1      -1.705  -1.075   0.857  0.00  0.00    +0.000 A 
ATOM     11  C   UNL     1      -2.847  -1.804   0.603  0.00  0.00    +0.000 A 
ATOM     12  C   UNL     1      -3.502  -1.965   1.849  0.00  0.00    +0.000 A 
ATOM     13  C   UNL     1      -2.719  -1.324   2.779  0.00  0.00    +0.000 A 
ATOM     14  O   UNL     1      -1.625  -0.781   2.186  0.00  0.00    +0.000 OA
ENDBRANCH   3  10
TORSDOF 2
