REMARK  Name = *****
REMARK  3 active torsions:
REMARK  status: ('A' for Active; 'I' for Inactive)
REMARK    1  A    between atoms: C_3  and  C_8
REMARK    2  A    between atoms: C_8  and  O_10
REMARK    3  A    between atoms: O_10  and  C_11
REMARK                            x       y       z     vdW  Elec       q    Type
REMARK                         _______ _______ _______ _____ _____    ______ ____
ROOT
ATOM      1  C   UNL     1      -1.629   2.386  -0.743  0.00  0.00    +0.000 C 
ATOM      2  O   UNL     1      -2.822   2.633  -0.652  0.00  0.00    +0.000 OA
ENDROOT
BRANCH   1   5
ATOM      3  C   UNL     1      -1.363  -1.069   0.757  0.00  0.00    +0.000 A 
ATOM      4  C   UNL     1      -1.876   0.144   0.288  0.00  0.00    +0.000 A 
ATOM      5  C   UNL     1      -1.022   1.115  -0.261  0.00  0.00    +0.000 A 
ATOM      6  C   UNL     1       0.352   0.859  -0.334  0.00  0.00    +0.000 A 
ATOM      7  C   UNL     1       0.848  -0.352   0.138  0.00  0.00    +0.000 A 
ATOM      8  C   UNL     1       0.006  -1.316   0.681  0.00  0.00    +0.000 A 
ATOM      9  F   UNL     1       2.163  -0.593   0.067  0.00  0.00    +0.000 F 
ENDBRANCH   1   5
BRANCH   1  10
ATOM     10  O   UNL     1      -0.651   3.197  -1.287  0.00  0.00    +0.000 OA
BRANCH  10  11
ATOM     11  C   UNL     1      -1.143   4.411  -1.774  0.00  0.00    +0.000 A 
ATOM     12  C   UNL     1      -1.793   4.459  -3.006  0.00  0.00    +0.000 A 
ATOM     13  C   UNL     1      -2.227   5.691  -3.482  0.00  0.00    +0.000 A 
ATOM     14  C   UNL     1      -2.009   6.860  -2.762  0.00  0.00    +0.000 A 
ATOM     15  C   UNL     1      -1.340   6.786  -1.546  0.00  0.00    +0.000 A 
ATOM     16  C   UNL     1      -0.894   5.569  -1.041  0.00  0.00    +0.000 A 
ATOM     17  F   UNL     1      -1.114   7.908  -0.850  0.00  0.00    +0.000 F 
ATOM     18  F   UNL     1      -2.860   5.754  -4.661  0.00  0.00    +0.000 F 
ENDBRANCH  10  11
ENDBRANCH   1  10
TORSDOF 3
