MODEL 1
REMARK VINA RESULT:      -3.6      0.000      0.000
REMARK  Name = *****
REMARK  3 active torsions:
REMARK  status: ('A' for Active; 'I' for Inactive)
REMARK    1  A    between atoms: C_3  and  S_8
REMARK    2  A    between atoms: S_8  and  S_9
REMARK    3  A    between atoms: S_9  and  C_10
REMARK                            x       y       z     vdW  Elec       q    Type
REMARK                         _______ _______ _______ _____ _____    ______ ____
ROOT
ATOM      1  C   UNL     1      84.447  72.306  87.642  0.00  0.00    +0.000 A 
ATOM      2  C   UNL     1      85.522  71.741  88.332  0.00  0.00    +0.000 A 
ATOM      3  C   UNL     1      86.630  71.249  87.634  0.00  0.00    +0.000 A 
ATOM      4  C   UNL     1      86.653  71.315  86.237  0.00  0.00    +0.000 A 
ATOM      5  C   UNL     1      85.577  71.880  85.555  0.00  0.00    +0.000 A 
ATOM      6  C   UNL     1      84.475  72.376  86.250  0.00  0.00    +0.000 A 
ATOM      7 CL   UNL     1      85.608  71.967  83.837  0.00  0.00    +0.000 Cl
ENDROOT
BRANCH   3   8
ATOM      8  S   UNL     1      87.993  70.526  88.528  0.00  0.00    +0.000 S 
BRANCH   8   9
ATOM      9  S   UNL     1      89.367  70.239  87.022  0.00  0.00    +0.000 S 
BRANCH   9  10
ATOM     10  C   UNL     1      89.298  68.495  86.807  0.00  0.00    +0.000 A 
ATOM     11  N   UNL     1      90.315  67.767  86.394  0.00  0.00    +0.000 NA
ATOM     12  C   UNL     1      89.948  66.437  86.341  0.00  0.00    +0.000 A 
ATOM     13  C   UNL     1      88.650  66.163  86.711  0.00  0.00    +0.000 A 
ATOM     14  S   UNL     1      87.857  67.617  87.150  0.00  0.00    +0.000 S 
ENDBRANCH   9  10
ENDBRANCH   8   9
ENDBRANCH   3   8
TORSDOF 3
ENDMDL
