MODEL 1
REMARK VINA RESULT:      -4.9      0.000      0.000
REMARK  Name = *****
REMARK  3 active torsions:
REMARK  status: ('A' for Active; 'I' for Inactive)
REMARK    1  A    between atoms: C_4  and  C_7
REMARK    2  A    between atoms: C_8  and  C_9
REMARK    3  A    between atoms: C_14  and  C_15
REMARK                            x       y       z     vdW  Elec       q    Type
REMARK                         _______ _______ _______ _____ _____    ______ ____
ROOT
ATOM      1  C   UNL     1     101.038 128.494  83.735  0.00  0.00    +0.000 A 
ATOM      2  C   UNL     1     101.758 129.613  84.182  0.00  0.00    +0.000 A 
ATOM      3  C   UNL     1     101.108 130.815  84.471  0.00  0.00    +0.000 A 
ATOM      4  C   UNL     1      99.728 130.919  84.310  0.00  0.00    +0.000 A 
ATOM      5  C   UNL     1      98.996 129.816  83.873  0.00  0.00    +0.000 A 
ATOM      6  C   UNL     1      99.642 128.599  83.600  0.00  0.00    +0.000 A 
ENDROOT
BRANCH   6   7
ATOM      7  C   UNL     1      98.782 127.460  83.179  0.00  0.00    +0.000 C 
ATOM      8  O   UNL     1      98.449 127.430  81.995  0.00  0.00    +0.000 OA
ATOM      9 CL   UNL     1      98.224 126.324  84.386  0.00  0.00    +0.000 Cl
ENDBRANCH   6   7
BRANCH   1  11
ATOM     10  C   UNL     1     102.272 127.090  82.147  0.00  0.00    +0.000 C 
ATOM     11  C   UNL     1     101.811 127.297  83.391  0.00  0.00    +0.000 C 
BRANCH  10  15
ATOM     12  C   UNL     1     104.618 123.666  81.126  0.00  0.00    +0.000 A 
ATOM     13  C   UNL     1     104.333 124.619  80.150  0.00  0.00    +0.000 A 
ATOM     14  C   UNL     1     103.561 125.739  80.470  0.00  0.00    +0.000 A 
ATOM     15  C   UNL     1     103.060 125.910  81.767  0.00  0.00    +0.000 A 
ATOM     16  C   UNL     1     103.366 124.954  82.743  0.00  0.00    +0.000 A 
ATOM     17  C   UNL     1     104.137 123.833  82.422  0.00  0.00    +0.000 A 
ENDBRANCH  10  15
ENDBRANCH   1  11
TORSDOF 3
ENDMDL
