MODEL 1
REMARK VINA RESULT:      -4.6      0.000      0.000
REMARK  Name = *****
REMARK  3 active torsions:
REMARK  status: ('A' for Active; 'I' for Inactive)
REMARK    1  A    between atoms: C_2  and  C_3
REMARK    2  A    between atoms: C_6  and  C_9
REMARK    3  A    between atoms: C_10  and  C_11
REMARK                            x       y       z     vdW  Elec       q    Type
REMARK                         _______ _______ _______ _____ _____    ______ ____
ROOT
ATOM      1  C   UNL     1     105.797 122.289  81.539  0.00  0.00    +0.000 A 
ATOM      2  C   UNL     1     105.295 122.508  82.827  0.00  0.00    +0.000 A 
ATOM      3  C   UNL     1     104.338 123.503  83.048  0.00  0.00    +0.000 A 
ATOM      4  C   UNL     1     103.879 124.281  81.982  0.00  0.00    +0.000 A 
ATOM      5  C   UNL     1     104.384 124.070  80.697  0.00  0.00    +0.000 A 
ATOM      6  C   UNL     1     105.341 123.075  80.475  0.00  0.00    +0.000 A 
ENDROOT
BRANCH   1   8
ATOM      7  C   UNL     1     107.575 120.399  81.116  0.00  0.00    +0.000 C 
ATOM      8  C   UNL     1     106.769 121.258  81.309  0.00  0.00    +0.000 C 
ENDBRANCH   1   8
BRANCH   4   9
ATOM      9  C   UNL     1     102.877 125.277  82.203  0.00  0.00    +0.000 C 
ATOM     10  C   UNL     1     102.030 126.103  82.419  0.00  0.00    +0.000 C 
BRANCH  10  11
ATOM     11  C   UNL     1     101.020 127.072  82.707  0.00  0.00    +0.000 A 
ATOM     12  C   UNL     1     101.359 128.269  83.342  0.00  0.00    +0.000 A 
ATOM     13  C   UNL     1     100.368 129.207  83.643  0.00  0.00    +0.000 A 
ATOM     14  C   UNL     1      99.039 128.948  83.310  0.00  0.00    +0.000 A 
ATOM     15  C   UNL     1      98.699 127.754  82.674  0.00  0.00    +0.000 A 
ATOM     16  C   UNL     1      99.688 126.816  82.371  0.00  0.00    +0.000 A 
ENDBRANCH  10  11
ENDBRANCH   4   9
TORSDOF 3
ENDMDL
