MODEL 1
REMARK VINA RESULT:      -4.4      0.000      0.000
REMARK  Name = *****
REMARK  4 active torsions:
REMARK  status: ('A' for Active; 'I' for Inactive)
REMARK    1  A    between atoms: C_1  and  C_2
REMARK    2  A    between atoms: C_3  and  C_4
REMARK    3  A    between atoms: C_3  and  S_10
REMARK    4  A    between atoms: S_10  and  C_11
REMARK                            x       y       z     vdW  Elec       q    Type
REMARK                         _______ _______ _______ _____ _____    ______ ____
ROOT
ATOM      1  C   UNL     1      88.892  70.214  83.767  0.00  0.00    +0.000 C 
ATOM      2  C   UNL     1      87.796  70.723  84.647  0.00  0.00    +0.000 C 
ATOM      3  C   UNL     1      87.803  70.868  85.984  0.00  0.00    +0.000 C 
ENDROOT
BRANCH   3   4
ATOM      4  C   UNL     1      86.592  71.367  86.665  0.00  0.00    +0.000 A 
ATOM      5  C   UNL     1      85.523  71.891  85.925  0.00  0.00    +0.000 A 
ATOM      6  C   UNL     1      84.384  72.372  86.573  0.00  0.00    +0.000 A 
ATOM      7  C   UNL     1      84.304  72.337  87.964  0.00  0.00    +0.000 A 
ATOM      8  C   UNL     1      85.364  71.822  88.709  0.00  0.00    +0.000 A 
ATOM      9  C   UNL     1      86.505  71.341  88.064  0.00  0.00    +0.000 A 
ENDBRANCH   3   4
BRANCH   3  10
ATOM     10  S   UNL     1      89.137  70.443  87.008  0.00  0.00    +0.000 S 
BRANCH  10  11
ATOM     11  C   UNL     1      89.003  68.666  86.925  0.00  0.00    +0.000 A 
ATOM     12  C   UNL     1      87.859  68.028  87.414  0.00  0.00    +0.000 A 
ATOM     13  C   UNL     1      87.746  66.637  87.349  0.00  0.00    +0.000 A 
ATOM     14  C   UNL     1      88.774  65.880  86.789  0.00  0.00    +0.000 A 
ATOM     15  C   UNL     1      89.914  66.511  86.291  0.00  0.00    +0.000 A 
ATOM     16  C   UNL     1      90.027  67.901  86.356  0.00  0.00    +0.000 A 
ENDBRANCH  10  11
ENDBRANCH   3  10
TORSDOF 3
ENDMDL
