MODEL 1
REMARK VINA RESULT:      -4.8      0.000      0.000
REMARK  Name = *****
REMARK  2 active torsions:
REMARK  status: ('A' for Active; 'I' for Inactive)
REMARK    1  A    between atoms: C_4  and  N_7
REMARK    2  A    between atoms: C_8  and  C_9
REMARK                            x       y       z     vdW  Elec       q    Type
REMARK                         _______ _______ _______ _____ _____    ______ ____
ROOT
ATOM      1  N   UNL     1     101.695 125.869  82.334  0.00  0.00    +0.000 NA
ATOM      2  C   UNL     1     102.719 126.183  81.606  0.00  0.00    +0.000 C 
ENDROOT
BRANCH   2   3
ATOM      3  C   UNL     1     103.702 125.170  81.176  0.00  0.00    +0.000 A 
ATOM      4  C   UNL     1     103.927 124.023  81.944  0.00  0.00    +0.000 A 
ATOM      5  C   UNL     1     104.861 123.085  81.513  0.00  0.00    +0.000 A 
ATOM      6  C   UNL     1     105.569 123.279  80.329  0.00  0.00    +0.000 A 
ATOM      7  C   UNL     1     105.336 124.426  79.573  0.00  0.00    +0.000 A 
ATOM      8  C   UNL     1     104.405 125.377  79.987  0.00  0.00    +0.000 A 
ATOM      9 CL   UNL     1     106.206 124.673  78.109  0.00  0.00    +0.000 Cl
ATOM     10 CL   UNL     1     105.144 121.670  82.451  0.00  0.00    +0.000 Cl
ENDBRANCH   2   3
BRANCH   1  14
ATOM     11  C   UNL     1      99.134 129.034  83.375  0.00  0.00    +0.000 A 
ATOM     12  C   UNL     1      98.620 127.900  82.747  0.00  0.00    +0.000 A 
ATOM     13  C   UNL     1      99.471 126.849  82.402  0.00  0.00    +0.000 A 
ATOM     14  C   UNL     1     100.840 126.928  82.670  0.00  0.00    +0.000 A 
ATOM     15  C   UNL     1     101.345 128.061  83.314  0.00  0.00    +0.000 A 
ATOM     16  C   UNL     1     100.497 129.114  83.662  0.00  0.00    +0.000 A 
ENDBRANCH   1  14
TORSDOF 2
ENDMDL
