REMARK  Name = *****
REMARK  4 active torsions:
REMARK  status: ('A' for Active; 'I' for Inactive)
REMARK    1  A    between atoms: C_4  and  C_7
REMARK    2  A    between atoms: C_7  and  C_9
REMARK    3  A    between atoms: C_9  and  C_10
REMARK    4  A    between atoms: C_10  and  C_11
REMARK                            x       y       z     vdW  Elec       q    Type
REMARK                         _______ _______ _______ _____ _____    ______ ____
ROOT
ATOM      1  C   UNL     1      -3.761  -0.614  -0.489  0.00  0.00    +0.000 C 
ENDROOT
BRANCH   1   2
ATOM      2  C   UNL     1      -2.569   0.263  -0.171  0.00  0.00    +0.000 C 
ATOM      3  O   UNL     1      -2.502   1.437  -0.528  0.00  0.00    +0.000 OA
BRANCH   2   7
ATOM      4  C   UNL     1       0.804  -1.373   1.928  0.00  0.00    +0.000 A 
ATOM      5  C   UNL     1      -0.158  -2.235   1.403  0.00  0.00    +0.000 A 
ATOM      6  C   UNL     1      -1.263  -1.722   0.717  0.00  0.00    +0.000 A 
ATOM      7  C   UNL     1      -1.411  -0.339   0.557  0.00  0.00    +0.000 A 
ATOM      8  C   UNL     1      -0.435   0.520   1.081  0.00  0.00    +0.000 A 
ATOM      9  C   UNL     1       0.667   0.005   1.766  0.00  0.00    +0.000 A 
ENDBRANCH   2   7
ENDBRANCH   1   2
BRANCH   1  10
ATOM     10  C   UNL     1      -4.996   0.232  -0.788  0.00  0.00    +0.000 C 
ATOM     11  F   UNL     1      -5.419   0.752   0.411  0.00  0.00    +0.000 F 
BRANCH  10  12
ATOM     12  C   UNL     1      -6.084  -0.604  -1.435  0.00  0.00    +0.000 A 
ATOM     13  C   UNL     1      -7.125  -1.109  -0.635  0.00  0.00    +0.000 A 
ATOM     14  C   UNL     1      -8.140  -1.893  -1.187  0.00  0.00    +0.000 A 
ATOM     15  C   UNL     1      -8.131  -2.186  -2.548  0.00  0.00    +0.000 A 
ATOM     16  C   UNL     1      -7.107  -1.694  -3.356  0.00  0.00    +0.000 A 
ATOM     17  C   UNL     1      -6.089  -0.908  -2.805  0.00  0.00    +0.000 A 
ATOM     18 CL   UNL     1      -4.854  -0.341  -3.872  0.00  0.00    +0.000 Cl
ENDBRANCH  10  12
ENDBRANCH   1  10
TORSDOF 4
