REMARK  Name = *****
REMARK  4 active torsions:
REMARK  status: ('A' for Active; 'I' for Inactive)
REMARK    1  A    between atoms: C_1  and  C_2
REMARK    2  A    between atoms: C_2  and  C_4
REMARK    3  A    between atoms: C_7  and  C_10
REMARK    4  A    between atoms: C_11  and  C_12
REMARK                            x       y       z     vdW  Elec       q    Type
REMARK                         _______ _______ _______ _____ _____    ______ ____
ROOT
ATOM      1  C   UNL     1       3.313  -1.108  -0.958  0.00  0.00    +0.000 A 
ATOM      2  C   UNL     1       2.789  -1.386  -2.227  0.00  0.00    +0.000 A 
ATOM      3  C   UNL     1       3.262  -2.482  -2.957  0.00  0.00    +0.000 A 
ATOM      4  C   UNL     1       4.259  -3.305  -2.427  0.00  0.00    +0.000 A 
ATOM      5  C   UNL     1       4.792  -3.026  -1.168  0.00  0.00    +0.000 A 
ATOM      6  C   UNL     1       4.322  -1.931  -0.437  0.00  0.00    +0.000 A 
ENDROOT
BRANCH   1   8
ATOM      7  C   UNL     1       1.656   0.845  -0.616  0.00  0.00    +0.000 C 
ATOM      8  C   UNL     1       2.833   0.039  -0.132  0.00  0.00    +0.000 C 
ATOM      9  O   UNL     1       3.397   0.310   0.926  0.00  0.00    +0.000 OA
ENDBRANCH   1   8
BRANCH   4  10
ATOM     10  C   UNL     1       4.719  -4.438  -3.168  0.00  0.00    +0.000 C 
ATOM     11  C   UNL     1       5.083  -5.402  -3.784  0.00  0.00    +0.000 C 
BRANCH  11  12
ATOM     12  C   UNL     1       5.495  -6.563  -4.512  0.00  0.00    +0.000 A 
ATOM     13  C   UNL     1       5.984  -6.436  -5.816  0.00  0.00    +0.000 A 
ATOM     14  C   UNL     1       6.373  -7.573  -6.528  0.00  0.00    +0.000 A 
ATOM     15  C   UNL     1       6.270  -8.825  -5.930  0.00  0.00    +0.000 A 
ATOM     16  C   UNL     1       5.787  -8.962  -4.633  0.00  0.00    +0.000 A 
ATOM     17  C   UNL     1       5.398  -7.827  -3.920  0.00  0.00    +0.000 A 
ATOM     18  F   UNL     1       6.641  -9.915  -6.614  0.00  0.00    +0.000 F 
ENDBRANCH  11  12
ENDBRANCH   4  10
TORSDOF 3
