MODEL 1
REMARK VINA RESULT:      -4.4      0.000      0.000
REMARK  Name = *****
REMARK  3 active torsions:
REMARK  status: ('A' for Active; 'I' for Inactive)
REMARK    1  A    between atoms: C_4  and  C_7
REMARK    2  A    between atoms: C_7  and  O_8
REMARK    3  A    between atoms: O_8  and  C_9
REMARK                            x       y       z     vdW  Elec       q    Type
REMARK                         _______ _______ _______ _____ _____    ______ ____
ROOT
ATOM      1  O   UNL     1     102.920 126.424  81.251  0.00  0.00    +0.000 OA
ENDROOT
BRANCH   1   2
ATOM      2  C   UNL     1     103.860 125.536  80.768  0.00  0.00    +0.000 A 
ATOM      3  N   UNL     1     104.706 125.917  79.787  0.00  0.00    +0.000 NA
ATOM      4  C   UNL     1     105.601 124.999  79.365  0.00  0.00    +0.000 A 
ATOM      5  C   UNL     1     105.692 123.718  79.878  0.00  0.00    +0.000 A 
ATOM      6  C   UNL     1     104.805 123.365  80.888  0.00  0.00    +0.000 A 
ATOM      7  C   UNL     1     103.868 124.281  81.348  0.00  0.00    +0.000 A 
ATOM      8  I   UNL     1     104.881 121.458  81.711  0.00  0.00    +0.000 I 
ENDBRANCH   1   2
BRANCH   1   9
ATOM      9  C   UNL     1     102.080 125.857  82.257  0.00  0.00    +0.000 C 
BRANCH   9  13
ATOM     10  C   UNL     1      99.097 128.795  83.312  0.00  0.00    +0.000 A 
ATOM     11  C   UNL     1     100.437 129.016  83.626  0.00  0.00    +0.000 A 
ATOM     12  C   UNL     1     101.399 128.064  83.288  0.00  0.00    +0.000 A 
ATOM     13  C   UNL     1     101.032 126.878  82.636  0.00  0.00    +0.000 A 
ATOM     14  C   UNL     1      99.681 126.667  82.323  0.00  0.00    +0.000 A 
ATOM     15  C   UNL     1      98.719 127.622  82.661  0.00  0.00    +0.000 A 
ENDBRANCH   9  13
ENDBRANCH   1   9
TORSDOF 3
ENDMDL
