REMARK  Name = *****
REMARK  3 active torsions:
REMARK  status: ('A' for Active; 'I' for Inactive)
REMARK    1  A    between atoms: C_4  and  C_7
REMARK    2  A    between atoms: C_8  and  C_9
REMARK    3  A    between atoms: C_10  and  C_16
REMARK                            x       y       z     vdW  Elec       q    Type
REMARK                         _______ _______ _______ _____ _____    ______ ____
ROOT
ATOM      1  C   UNL     1       5.548   0.334  -0.633  0.00  0.00    +0.000 A 
ATOM      2  C   UNL     1       6.226   1.559  -0.722  0.00  0.00    +0.000 A 
ATOM      3  C   UNL     1       7.619   1.584  -0.890  0.00  0.00    +0.000 A 
ATOM      4  C   UNL     1       8.328   0.389  -0.968  0.00  0.00    +0.000 A 
ATOM      5  C   UNL     1       7.664  -0.833  -0.880  0.00  0.00    +0.000 A 
ATOM      6  C   UNL     1       6.277  -0.860  -0.713  0.00  0.00    +0.000 A 
ATOM      7 CL   UNL     1      10.035   0.417  -1.175  0.00  0.00    +0.000 Cl
ENDROOT
BRANCH   1   9
ATOM      8  C   UNL     1       2.937   0.170  -0.325  0.00  0.00    +0.000 C 
ATOM      9  C   UNL     1       4.128   0.246  -0.464  0.00  0.00    +0.000 C 
BRANCH   8  13
ATOM     10  C   UNL     1      -1.252  -0.084   0.151  0.00  0.00    +0.000 A 
ATOM     11  C   UNL     1      -0.634   1.164   0.071  0.00  0.00    +0.000 A 
ATOM     12  C   UNL     1       0.751   1.249  -0.086  0.00  0.00    +0.000 A 
ATOM     13  C   UNL     1       1.518   0.084  -0.162  0.00  0.00    +0.000 A 
ATOM     14  C   UNL     1       0.898  -1.165  -0.081  0.00  0.00    +0.000 A 
ATOM     15  C   UNL     1      -0.487  -1.248   0.075  0.00  0.00    +0.000 A 
ENDBRANCH   8  13
ENDBRANCH   1   9
BRANCH   2  16
ATOM     16  C   UNL     1       5.506   2.850  -0.642  0.00  0.00    +0.000 C 
ATOM     17  O   UNL     1       6.095   3.922  -0.722  0.00  0.00    +0.000 OA
ENDBRANCH   2  16
TORSDOF 3
