MODEL 1
REMARK VINA RESULT:      -4.6      0.000      0.000
REMARK  Name = *****
REMARK  6 active torsions:
REMARK  status: ('A' for Active; 'I' for Inactive)
REMARK    1  A    between atoms: C_1  and  C_2
REMARK    2  A    between atoms: C_5  and  C_8
REMARK    3  A    between atoms: C_8  and  N_9
REMARK    4  A    between atoms: N_11  and  C_17
REMARK    5  A    between atoms: C_12  and  C_16
REMARK    6  A    between atoms: C_13  and  C_15
REMARK                            x       y       z     vdW  Elec       q    Type
REMARK                         _______ _______ _______ _____ _____    ______ ____
ROOT
ATOM      1  N   UNL     1      87.414  69.097  87.530  0.00  0.00    +0.000 NA
ATOM      2  C   UNL     1      88.180  68.124  87.190  0.00  0.00    +0.000 A 
ATOM      3  N   UNL     1      88.002  66.785  87.517  0.00  0.00    +0.000 N 
ATOM      4  C   UNL     1      88.946  65.906  86.954  0.00  0.00    +0.000 A 
ATOM      5  C   UNL     1      89.905  66.523  86.231  0.00  0.00    +0.000 A 
ATOM      6  S   UNL     1      89.656  68.264  86.202  0.00  0.00    +0.000 S 
ATOM      7  C   UNL     1      91.070  65.949  85.497  0.00  0.00    +0.000 C 
ATOM      8  C   UNL     1      88.827  64.428  87.173  0.00  0.00    +0.000 C 
ATOM      9  C   UNL     1      86.817  66.369  88.250  0.00  0.00    +0.000 C 
ENDROOT
BRANCH   1  10
ATOM     10  C   UNL     1      87.735  70.454  87.105  0.00  0.00    +0.000 C 
BRANCH  10  15
ATOM     11  C   UNL     1      82.825  73.402  86.021  0.00  0.00    +0.000 C 
ATOM     12  C   UNL     1      84.103  72.670  86.304  0.00  0.00    +0.000 A 
ATOM     13  C   UNL     1      84.456  72.335  87.615  0.00  0.00    +0.000 A 
ATOM     14  C   UNL     1      85.631  71.624  87.874  0.00  0.00    +0.000 A 
ATOM     15  C   UNL     1      86.473  71.235  86.823  0.00  0.00    +0.000 A 
ATOM     16  C   UNL     1      86.102  71.544  85.509  0.00  0.00    +0.000 A 
ATOM     17  C   UNL     1      84.927  72.255  85.251  0.00  0.00    +0.000 A 
ENDBRANCH  10  15
ENDBRANCH   1  10
TORSDOF 2
ENDMDL
