MODEL 1
REMARK VINA RESULT:      -4.7      0.000      0.000
REMARK  Name = *****
REMARK  4 active torsions:
REMARK  status: ('A' for Active; 'I' for Inactive)
REMARK    1  A    between atoms: C_1  and  C_2
REMARK    2  A    between atoms: C_3  and  C_16
REMARK    3  A    between atoms: C_4  and  N_8
REMARK    4  A    between atoms: C_9  and  C_10
REMARK                            x       y       z     vdW  Elec       q    Type
REMARK                         _______ _______ _______ _____ _____    ______ ____
ROOT
ATOM      1  C   UNL     1     100.157 130.703  84.164  0.00  0.00    +0.000 C 
ATOM      2  C   UNL     1      99.993 129.318  83.599  0.00  0.00    +0.000 A 
ATOM      3  C   UNL     1     101.058 128.387  83.590  0.00  0.00    +0.000 A 
ATOM      4  C   UNL     1     100.857 127.113  83.017  0.00  0.00    +0.000 A 
ATOM      5  C   UNL     1      99.592 126.758  82.534  0.00  0.00    +0.000 A 
ATOM      6  C   UNL     1      98.536 127.662  82.574  0.00  0.00    +0.000 A 
ATOM      7  C   UNL     1      98.738 128.937  83.098  0.00  0.00    +0.000 A 
ATOM      8  C   UNL     1     102.415 128.759  84.130  0.00  0.00    +0.000 C 
ENDROOT
BRANCH   4   9
ATOM      9  N   UNL     1     101.895 126.168  82.944  0.00  0.00    +0.000 NA
ATOM     10  C   UNL     1     102.396 125.975  81.765  0.00  0.00    +0.000 C 
BRANCH  10  11
ATOM     11  C   UNL     1     103.495 125.018  81.529  0.00  0.00    +0.000 A 
ATOM     12  C   UNL     1     103.939 124.172  82.549  0.00  0.00    +0.000 A 
ATOM     13  C   UNL     1     104.980 123.277  82.302  0.00  0.00    +0.000 A 
ATOM     14  C   UNL     1     105.573 123.227  81.040  0.00  0.00    +0.000 A 
ATOM     15  C   UNL     1     105.127 124.072  80.022  0.00  0.00    +0.000 A 
ATOM     16  C   UNL     1     104.087 124.970  80.264  0.00  0.00    +0.000 A 
ENDBRANCH  10  11
ENDBRANCH   4   9
TORSDOF 2
ENDMDL
