MODEL 1
REMARK VINA RESULT:      -4.8      0.000      0.000
REMARK  Name = *****
REMARK  4 active torsions:
REMARK  status: ('A' for Active; 'I' for Inactive)
REMARK    1  A    between atoms: C_1  and  O_2
REMARK    2  A    between atoms: O_2  and  C_3
REMARK    3  A    between atoms: C_6  and  C_9
REMARK    4  A    between atoms: C_10  and  C_11
REMARK                            x       y       z     vdW  Elec       q    Type
REMARK                         _______ _______ _______ _____ _____    ______ ____
ROOT
ATOM      1  C   UNL     1     102.866 126.118  81.298  0.00  0.00    +0.000 C 
ATOM      2  C   UNL     1     102.017 126.011  82.332  0.00  0.00    +0.000 C 
ENDROOT
BRANCH   2   3
ATOM      3  C   UNL     1     101.018 127.032  82.683  0.00  0.00    +0.000 A 
ATOM      4  C   UNL     1      99.647 126.838  82.483  0.00  0.00    +0.000 A 
ATOM      5  C   UNL     1      98.742 127.825  82.862  0.00  0.00    +0.000 A 
ATOM      6  C   UNL     1      99.172 129.007  83.453  0.00  0.00    +0.000 A 
ATOM      7  C   UNL     1     100.532 129.205  83.674  0.00  0.00    +0.000 A 
ATOM      8  C   UNL     1     101.449 128.218  83.295  0.00  0.00    +0.000 A 
ATOM      9  F   UNL     1      97.432 127.630  82.660  0.00  0.00    +0.000 F 
ENDBRANCH   2   3
BRANCH   1  13
ATOM     10  C   UNL     1     105.846 123.160  80.418  0.00  0.00    +0.000 A 
ATOM     11  C   UNL     1     105.671 124.241  79.558  0.00  0.00    +0.000 A 
ATOM     12  C   UNL     1     104.695 125.210  79.831  0.00  0.00    +0.000 A 
ATOM     13  C   UNL     1     103.876 125.105  80.961  0.00  0.00    +0.000 A 
ATOM     14  C   UNL     1     104.070 124.026  81.830  0.00  0.00    +0.000 A 
ATOM     15  C   UNL     1     105.043 123.060  81.556  0.00  0.00    +0.000 A 
BRANCH  10  17
ATOM     16  C   UNL     1     106.789 121.161  81.291  0.00  0.00    +0.000 C 
ATOM     17  O   UNL     1     106.756 122.149  80.271  0.00  0.00    +0.000 OA
ENDBRANCH  10  17
ENDBRANCH   1  13
TORSDOF 3
ENDMDL
