MODEL 1
REMARK VINA RESULT:      -4.6      0.000      0.000
REMARK  Name = *****
REMARK  5 active torsions:
REMARK  status: ('A' for Active; 'I' for Inactive)
REMARK    1  A    between atoms: C_1  and  C_2
REMARK    2  A    between atoms: C_4  and  C_18
REMARK    3  A    between atoms: C_6  and  O_8
REMARK    4  A    between atoms: O_8  and  C_9
REMARK    5  A    between atoms: C_9  and  C_11
REMARK                            x       y       z     vdW  Elec       q    Type
REMARK                         _______ _______ _______ _____ _____    ______ ____
ROOT
ATOM      1  O   UNL     1     100.196 126.722  83.286  0.00  0.00    +0.000 OA
ENDROOT
BRANCH   1   7
ATOM      2  C   UNL     1     104.019 128.967  82.679  0.00  0.00    +0.000 C 
ATOM      3  C   UNL     1     103.874 127.601  83.354  0.00  0.00    +0.000 C 
ATOM      4  C   UNL     1     104.347 126.460  82.440  0.00  0.00    +0.000 C 
ATOM      5  C   UNL     1     103.375 126.162  81.289  0.00  0.00    +0.000 C 
ATOM      6  C   UNL     1     101.960 125.909  81.823  0.00  0.00    +0.000 C 
ATOM      7  C   UNL     1     101.460 127.070  82.688  0.00  0.00    +0.000 C 
ATOM      8  C   UNL     1     102.438 127.353  83.833  0.00  0.00    +0.000 C 
ATOM      9  C   UNL     1     103.861 124.966  80.472  0.00  0.00    +0.000 C 
ENDBRANCH   1   7
BRANCH   1  10
ATOM     10  C   UNL     1      99.131 127.469  82.916  0.00  0.00    +0.000 C 
ATOM     11  O   UNL     1      98.344 127.211  82.019  0.00  0.00    +0.000 OA
BRANCH  10  12
ATOM     12  C   UNL     1      98.974 128.636  83.809  0.00  0.00    +0.000 A 
ATOM     13  C   UNL     1      99.444 129.880  83.361  0.00  0.00    +0.000 A 
ATOM     14  C   UNL     1      99.321 131.012  84.171  0.00  0.00    +0.000 A 
ATOM     15  C   UNL     1      98.737 130.908  85.433  0.00  0.00    +0.000 A 
ATOM     16  C   UNL     1      98.282 129.670  85.889  0.00  0.00    +0.000 A 
ATOM     17  C   UNL     1      98.404 128.541  85.079  0.00  0.00    +0.000 A 
ATOM     18  F   UNL     1      97.984 127.367  85.574  0.00  0.00    +0.000 F 
ENDBRANCH  10  12
ENDBRANCH   1  10
TORSDOF 3
ENDMDL
