MODEL 1
REMARK VINA RESULT:      -4.3      0.000      0.000
REMARK  Name = *****
REMARK  2 active torsions:
REMARK  status: ('A' for Active; 'I' for Inactive)
REMARK    1  A    between atoms: C_3  and  C_6
REMARK    2  A    between atoms: C_7  and  C_8
REMARK                            x       y       z     vdW  Elec       q    Type
REMARK                         _______ _______ _______ _____ _____    ______ ____
ROOT
ATOM      1  C   UNL     1     101.321 126.285  82.538  0.00  0.00    +0.000 C 
ATOM      2  C   UNL     1     102.281 127.091  82.051  0.00  0.00    +0.000 C 
ENDROOT
BRANCH   2   3
ATOM      3  C   UNL     1     103.411 126.634  81.231  0.00  0.00    +0.000 A 
ATOM      4  C   UNL     1     104.512 127.454  80.947  0.00  0.00    +0.000 A 
ATOM      5  C   UNL     1     105.585 126.971  80.191  0.00  0.00    +0.000 A 
ATOM      6  C   UNL     1     105.565 125.660  79.722  0.00  0.00    +0.000 A 
ATOM      7  C   UNL     1     104.487 124.827  80.007  0.00  0.00    +0.000 A 
ATOM      8  C   UNL     1     103.417 125.311  80.764  0.00  0.00    +0.000 A 
ATOM      9 BR   UNL     1     107.013 125.005  78.700  0.00  0.00    +0.000 Br
ENDBRANCH   2   3
BRANCH   1  12
ATOM     10  C   UNL     1      98.403 128.059  82.574  0.00  0.00    +0.000 C 
ATOM     11  C   UNL     1      98.883 126.804  82.608  0.00  0.00    +0.000 C 
ATOM     12  C   UNL     1     100.176 126.768  83.381  0.00  0.00    +0.000 C 
ATOM     13  C   UNL     1     100.331 128.216  83.764  0.00  0.00    +0.000 C 
ATOM     14  C   UNL     1      99.300 128.931  83.290  0.00  0.00    +0.000 C 
ENDBRANCH   1  12
TORSDOF 2
ENDMDL
