REMARK  Name = *****
REMARK  2 active torsions:
REMARK  status: ('A' for Active; 'I' for Inactive)
REMARK    1  A    between atoms: C_5  and  C_7
REMARK    2  A    between atoms: C_8  and  C_9
REMARK                            x       y       z     vdW  Elec       q    Type
REMARK                         _______ _______ _______ _____ _____    ______ ____
ROOT
ATOM      1  C   UNL     1       1.544  -1.568  -1.324  0.00  0.00    +0.000 C 
ATOM      2  C   UNL     1       1.963  -1.920  -2.393  0.00  0.00    +0.000 C 
ENDROOT
BRANCH   1   7
ATOM      3  C   UNL     1       0.450   1.309  -0.422  0.00  0.00    +0.000 C 
ATOM      4  C   UNL     1      -1.002   1.066  -0.003  0.00  0.00    +0.000 C 
ATOM      5  C   UNL     1      -1.362  -0.389   0.062  0.00  0.00    +0.000 C 
ATOM      6  C   UNL     1      -0.450  -1.374   0.040  0.00  0.00    +0.000 C 
ATOM      7  C   UNL     1       1.038  -1.135  -0.009  0.00  0.00    +0.000 C 
ATOM      8  C   UNL     1       1.404   0.334   0.271  0.00  0.00    +0.000 C 
ENDBRANCH   1   7
BRANCH   2   9
ATOM      9  C   UNL     1       2.461  -2.338  -3.665  0.00  0.00    +0.000 A 
ATOM     10  C   UNL     1       2.713  -1.462  -4.697  0.00  0.00    +0.000 A 
ATOM     11  S   UNL     1       3.303  -2.263  -6.091  0.00  0.00    +0.000 S 
ATOM     12  C   UNL     1       3.222  -3.787  -5.315  0.00  0.00    +0.000 A 
ATOM     13  C   UNL     1       2.755  -3.685  -4.022  0.00  0.00    +0.000 A 
ENDBRANCH   2   9
TORSDOF 2
