REMARK  Name = *****
REMARK  3 active torsions:
REMARK  status: ('A' for Active; 'I' for Inactive)
REMARK    1  A    between atoms: C_5  and  C_7
REMARK    2  A    between atoms: C_7  and  S_8
REMARK    3  A    between atoms: S_8  and  C_10
REMARK                            x       y       z     vdW  Elec       q    Type
REMARK                         _______ _______ _______ _____ _____    ______ ____
ROOT
ATOM      1  C   UNL     1      -1.927  -2.021  -0.732  0.00  0.00    +0.000 C 
ATOM      2 CL   UNL     1      -3.693  -1.696  -0.854  0.00  0.00    +0.000 Cl
ENDROOT
BRANCH   1   7
ATOM      3  C   UNL     1      -0.672   1.531   0.361  0.00  0.00    +0.000 C 
ATOM      4  C   UNL     1       0.770   1.321  -0.092  0.00  0.00    +0.000 C 
ATOM      5  C   UNL     1       1.184  -0.115  -0.005  0.00  0.00    +0.000 C 
ATOM      6  C   UNL     1       0.316  -1.129   0.130  0.00  0.00    +0.000 C 
ATOM      7  C   UNL     1      -1.202  -0.966   0.159  0.00  0.00    +0.000 C 
ATOM      8  C   UNL     1      -1.598   0.479  -0.244  0.00  0.00    +0.000 C 
ENDBRANCH   1   7
BRANCH   1   9
ATOM      9  S   UNL     1      -1.609  -3.728  -0.096  0.00  0.00    +0.000 S 
ATOM     10  O   UNL     1      -2.440  -3.949   1.134  0.00  0.00    +0.000 OA
BRANCH   9  11
ATOM     11  C   UNL     1      -2.383  -4.668  -1.428  0.00  0.00    +0.000 A 
ATOM     12  C   UNL     1      -1.742  -4.773  -2.668  0.00  0.00    +0.000 A 
ATOM     13  C   UNL     1      -2.327  -5.506  -3.703  0.00  0.00    +0.000 A 
ATOM     14  C   UNL     1      -3.550  -6.143  -3.501  0.00  0.00    +0.000 A 
ATOM     15  C   UNL     1      -4.187  -6.054  -2.264  0.00  0.00    +0.000 A 
ATOM     16  C   UNL     1      -3.603  -5.322  -1.229  0.00  0.00    +0.000 A 
ENDBRANCH   9  11
ENDBRANCH   1   9
TORSDOF 3
