REMARK  Name = *****
REMARK  6 active torsions:
REMARK  status: ('A' for Active; 'I' for Inactive)
REMARK    1  A    between atoms: C_1  and  C_2
REMARK    2  A    between atoms: C_2  and  N_3
REMARK    3  A    between atoms: N_3  and  C_4
REMARK    4  A    between atoms: N_3  and  C_11
REMARK    5  A    between atoms: C_4  and  C_5
REMARK    6  A    between atoms: C_14  and  C_17
REMARK                            x       y       z     vdW  Elec       q    Type
REMARK                         _______ _______ _______ _____ _____    ______ ____
ROOT
ATOM      1  N   UNL     1       2.973   1.375  -0.454  0.00  0.00    +0.000 N 
ENDROOT
BRANCH   1   2
ATOM      2  C   UNL     1       4.316   1.623  -0.725  0.00  0.00    +0.000 A 
ATOM      3  C   UNL     1       4.729   2.654  -1.587  0.00  0.00    +0.000 A 
ATOM      4  C   UNL     1       6.079   2.907  -1.873  0.00  0.00    +0.000 A 
ATOM      5  C   UNL     1       7.082   2.120  -1.313  0.00  0.00    +0.000 A 
ATOM      6  C   UNL     1       6.708   1.095  -0.447  0.00  0.00    +0.000 A 
ATOM      7  C   UNL     1       5.353   0.852  -0.171  0.00  0.00    +0.000 A 
ATOM      8  C   UNL     1       8.527   2.407  -1.586  0.00  0.00    +0.000 C 
ENDBRANCH   1   2
BRANCH   1  10
ATOM      9  C   UNL     1       2.557   0.612   1.858  0.00  0.00    +0.000 C 
ATOM     10  C   UNL     1       2.536   0.249   0.379  0.00  0.00    +0.000 C 
ENDBRANCH   1  10
BRANCH   1  11
ATOM     11  C   UNL     1       1.924   2.339  -0.827  0.00  0.00    +0.000 C 
BRANCH  11  12
ATOM     12  C   UNL     1       1.439   2.213  -2.260  0.00  0.00    +0.000 A 
ATOM     13  C   UNL     1       1.630   1.056  -3.030  0.00  0.00    +0.000 A 
ATOM     14  C   UNL     1       1.138   0.976  -4.335  0.00  0.00    +0.000 A 
ATOM     15  C   UNL     1       0.438   2.047  -4.885  0.00  0.00    +0.000 A 
ATOM     16  C   UNL     1       0.229   3.199  -4.131  0.00  0.00    +0.000 A 
ATOM     17  C   UNL     1       0.721   3.280  -2.827  0.00  0.00    +0.000 A 
ENDBRANCH  11  12
ENDBRANCH   1  11
TORSDOF 4
