MODEL 1
REMARK VINA RESULT:      -4.6      0.000      0.000
REMARK  Name = *****
REMARK  3 active torsions:
REMARK  status: ('A' for Active; 'I' for Inactive)
REMARK    1  A    between atoms: C_4  and  C_7
REMARK    2  A    between atoms: C_7  and  C_8
REMARK    3  A    between atoms: C_9  and  C_10
REMARK                            x       y       z     vdW  Elec       q    Type
REMARK                         _______ _______ _______ _____ _____    ______ ____
ROOT
ATOM      1  C   UNL     1      87.441  71.015  88.344  0.00  0.00    +0.000 C 
ATOM      2  C   UNL     1      86.709  71.163  87.229  0.00  0.00    +0.000 C 
ENDROOT
BRANCH   2   3
ATOM      3  C   UNL     1      85.409  71.829  87.243  0.00  0.00    +0.000 A 
ATOM      4  C   UNL     1      84.769  72.077  88.462  0.00  0.00    +0.000 A 
ATOM      5  C   UNL     1      83.527  72.716  88.487  0.00  0.00    +0.000 A 
ATOM      6  C   UNL     1      82.922  73.111  87.295  0.00  0.00    +0.000 A 
ATOM      7  C   UNL     1      83.555  72.865  86.077  0.00  0.00    +0.000 A 
ATOM      8  C   UNL     1      84.795  72.225  86.049  0.00  0.00    +0.000 A 
ENDBRANCH   2   3
BRANCH   1   9
ATOM      9  C   UNL     1      88.790  70.355  88.375  0.00  0.00    +0.000 C 
BRANCH   9  13
ATOM     10  C   UNL     1      89.760  69.051  84.299  0.00  0.00    +0.000 C 
ATOM     11  C   UNL     1      89.899  68.036  85.428  0.00  0.00    +0.000 C 
ATOM     12  C   UNL     1      89.095  68.465  86.659  0.00  0.00    +0.000 C 
ATOM     13  C   UNL     1      89.244  69.931  86.997  0.00  0.00    +0.000 C 
ATOM     14  C   UNL     1      89.782  70.805  86.124  0.00  0.00    +0.000 C 
ATOM     15  C   UNL     1      90.238  70.434  84.742  0.00  0.00    +0.000 C 
ENDBRANCH   9  13
ENDBRANCH   1   9
TORSDOF 3
ENDMDL
