REMARK  Name = *****
REMARK  5 active torsions:
REMARK  status: ('A' for Active; 'I' for Inactive)
REMARK    1  A    between atoms: C_1  and  C_2
REMARK    2  A    between atoms: C_7  and  C_8
REMARK    3  A    between atoms: C_8  and  O_9
REMARK    4  A    between atoms: O_9  and  C_10
REMARK    5  A    between atoms: C_10  and  C_12
REMARK                            x       y       z     vdW  Elec       q    Type
REMARK                         _______ _______ _______ _____ _____    ______ ____
ROOT
ATOM      1  C   UNL     1       3.203  -2.748   0.706  0.00  0.00    +0.000 C 
ATOM      2  O   UNL     1       3.279  -2.389   1.869  0.00  0.00    +0.000 OA
ENDROOT
BRANCH   1   3
ATOM      3  C   UNL     1       4.383  -3.126  -0.094  0.00  0.00    +0.000 A 
ATOM      4  C   UNL     1       4.622  -2.651  -1.389  0.00  0.00    +0.000 A 
ATOM      5  C   UNL     1       5.766  -3.066  -2.081  0.00  0.00    +0.000 A 
ATOM      6  C   UNL     1       6.668  -3.939  -1.475  0.00  0.00    +0.000 A 
ATOM      7  C   UNL     1       6.449  -4.397  -0.177  0.00  0.00    +0.000 A 
ATOM      8  C   UNL     1       5.309  -3.988   0.516  0.00  0.00    +0.000 A 
ATOM      9 CL   UNL     1       8.072  -4.444  -2.330  0.00  0.00    +0.000 Cl
ATOM     10 CL   UNL     1       3.594  -1.509  -2.178  0.00  0.00    +0.000 Cl
ENDBRANCH   1   3
BRANCH   1  11
ATOM     11  O   UNL     1       2.082  -3.001  -0.005  0.00  0.00    +0.000 OA
BRANCH  11  12
ATOM     12  C   UNL     1       0.849  -2.695   0.656  0.00  0.00    +0.000 C 
BRANCH  12  19
ATOM     13  C   UNL     1      -0.508  -2.102  -1.964  0.00  0.00    +0.000 C 
ATOM     14  C   UNL     1      -0.230  -1.023  -0.954  0.00  0.00    +0.000 A 
ATOM     15  C   UNL     1      -0.618   0.296  -1.241  0.00  0.00    +0.000 A 
ATOM     16  C   UNL     1      -0.375   1.327  -0.334  0.00  0.00    +0.000 A 
ATOM     17  C   UNL     1       0.260   1.056   0.873  0.00  0.00    +0.000 A 
ATOM     18  C   UNL     1       0.645  -0.249   1.176  0.00  0.00    +0.000 A 
ATOM     19  C   UNL     1       0.395  -1.304   0.280  0.00  0.00    +0.000 A 
ENDBRANCH  12  19
ENDBRANCH  11  12
ENDBRANCH   1  11
TORSDOF 4
