MODEL 1
REMARK VINA RESULT:      -4.4      0.000      0.000
REMARK  Name = *****
REMARK  3 active torsions:
REMARK  status: ('A' for Active; 'I' for Inactive)
REMARK    1  A    between atoms: C_5  and  O_8
REMARK    2  A    between atoms: O_8  and  C_9
REMARK    3  A    between atoms: C_9  and  C_11
REMARK                            x       y       z     vdW  Elec       q    Type
REMARK                         _______ _______ _______ _____ _____    ______ ____
ROOT
ATOM      1  O   UNL     1      99.931 126.455  83.586  0.00  0.00    +0.000 OA
ENDROOT
BRANCH   1   6
ATOM      2  C   UNL     1     103.948 128.390  82.605  0.00  0.00    +0.000 C 
ATOM      3  C   UNL     1     103.525 127.783  81.268  0.00  0.00    +0.000 C 
ATOM      4  C   UNL     1     103.007 126.351  81.370  0.00  0.00    +0.000 C 
ATOM      5  C   UNL     1     101.640 126.225  81.967  0.00  0.00    +0.000 C 
ATOM      6  C   UNL     1     101.269 126.658  83.180  0.00  0.00    +0.000 C 
ATOM      7  C   UNL     1     102.148 127.406  84.148  0.00  0.00    +0.000 C 
ATOM      8  C   UNL     1     102.798 128.664  83.570  0.00  0.00    +0.000 C 
ENDBRANCH   1   6
BRANCH   1   9
ATOM      9  C   UNL     1      99.023 127.309  83.023  0.00  0.00    +0.000 C 
ATOM     10  O   UNL     1      98.317 127.097  82.047  0.00  0.00    +0.000 OA
BRANCH   9  11
ATOM     11  C   UNL     1      99.004 128.596  83.774  0.00  0.00    +0.000 A 
ATOM     12  C   UNL     1      99.380 129.816  83.195  0.00  0.00    +0.000 A 
ATOM     13  C   UNL     1      99.345 130.992  83.949  0.00  0.00    +0.000 A 
ATOM     14  C   UNL     1      98.936 130.957  85.281  0.00  0.00    +0.000 A 
ATOM     15  C   UNL     1      98.561 129.747  85.865  0.00  0.00    +0.000 A 
ATOM     16  C   UNL     1      98.596 128.570  85.115  0.00  0.00    +0.000 A 
ENDBRANCH   9  11
ENDBRANCH   1   9
TORSDOF 3
ENDMDL
