REMARK  Name = *****
REMARK  4 active torsions:
REMARK  status: ('A' for Active; 'I' for Inactive)
REMARK    1  A    between atoms: C_1  and  C_2
REMARK    2  A    between atoms: C_7  and  C_8
REMARK    3  A    between atoms: C_8  and  O_10
REMARK    4  A    between atoms: O_10  and  C_11
REMARK                            x       y       z     vdW  Elec       q    Type
REMARK                         _______ _______ _______ _____ _____    ______ ____
ROOT
ATOM      1  C   UNL     1       0.813  -2.381  -0.555  0.00  0.00    +0.000 C 
ATOM      2  O   UNL     1       0.454  -3.440  -0.064  0.00  0.00    +0.000 OA
ENDROOT
BRANCH   1   9
ATOM      3  C   UNL     1       2.546   0.049   0.035  0.00  0.00    +0.000 C 
ATOM      4  C   UNL     1       1.046   0.064   0.117  0.00  0.00    +0.000 A 
ATOM      5  C   UNL     1       0.401   1.264   0.463  0.00  0.00    +0.000 A 
ATOM      6  C   UNL     1      -0.990   1.325   0.574  0.00  0.00    +0.000 A 
ATOM      7  C   UNL     1      -1.762   0.190   0.341  0.00  0.00    +0.000 A 
ATOM      8  C   UNL     1      -1.142  -1.006  -0.019  0.00  0.00    +0.000 A 
ATOM      9  C   UNL     1       0.254  -1.069  -0.152  0.00  0.00    +0.000 A 
ENDBRANCH   1   9
BRANCH   1  10
ATOM     10  O   UNL     1       1.703  -2.181  -1.590  0.00  0.00    +0.000 OA
BRANCH  10  11
ATOM     11  C   UNL     1       2.164  -3.382  -2.128  0.00  0.00    +0.000 A 
ATOM     12  C   UNL     1       3.450  -3.813  -1.807  0.00  0.00    +0.000 A 
ATOM     13  C   UNL     1       3.932  -4.994  -2.375  0.00  0.00    +0.000 A 
ATOM     14  C   UNL     1       3.137  -5.723  -3.265  0.00  0.00    +0.000 A 
ATOM     15  C   UNL     1       1.857  -5.272  -3.596  0.00  0.00    +0.000 A 
ATOM     16  C   UNL     1       1.377  -4.096  -3.029  0.00  0.00    +0.000 A 
ATOM     17  F   UNL     1       0.158  -3.652  -3.365  0.00  0.00    +0.000 F 
ENDBRANCH  10  11
ENDBRANCH   1  10
TORSDOF 3
