REMARK  Name = *****
REMARK  7 active torsions:
REMARK  status: ('A' for Active; 'I' for Inactive)
REMARK    1  A    between atoms: C_1  and  C_2
REMARK    2  A    between atoms: C_5  and  S_8
REMARK    3  A    between atoms: S_8  and  N_9
REMARK    4  A    between atoms: S_8  and  O_18
REMARK    5  A    between atoms: N_9  and  C_10
REMARK    6  A    between atoms: C_15  and  C_16
REMARK    7  A    between atoms: O_18  and  C_19
REMARK                            x       y       z     vdW  Elec       q    Type
REMARK                         _______ _______ _______ _____ _____    ______ ____
ROOT
ATOM      1  S   UNL     1      -3.742   0.009  -0.071  0.00  0.00    +0.000 S 
ATOM      2  O   UNL     1      -4.228  -0.620   1.138  0.00  0.00    +0.000 OA
ENDROOT
BRANCH   1   7
ATOM      3  C   UNL     1       2.297   0.324   0.406  0.00  0.00    +0.000 C 
ATOM      4  C   UNL     1       0.801   0.233   0.318  0.00  0.00    +0.000 A 
ATOM      5  C   UNL     1      -0.002   1.260   0.834  0.00  0.00    +0.000 A 
ATOM      6  C   UNL     1      -1.392   1.194   0.727  0.00  0.00    +0.000 A 
ATOM      7  C   UNL     1      -1.977   0.098   0.090  0.00  0.00    +0.000 A 
ATOM      8  C   UNL     1      -1.192  -0.929  -0.438  0.00  0.00    +0.000 A 
ATOM      9  C   UNL     1       0.197  -0.854  -0.329  0.00  0.00    +0.000 A 
ENDBRANCH   1   7
BRANCH   1  10
ATOM     10  O   UNL     1      -4.259   1.555  -0.085  0.00  0.00    +0.000 OA
ATOM     11  C   UNL     1      -5.624   1.792   0.206  0.00  0.00    +0.000 C 
ENDBRANCH   1  10
BRANCH   1  12
ATOM     12  N   UNL     1      -4.107  -0.364  -1.509  0.00  0.00    +0.000 NA
BRANCH  12  13
ATOM     13  C   UNL     1      -3.705   0.238  -2.745  0.00  0.00    +0.000 A 
ATOM     14  C   UNL     1      -2.935   1.403  -2.837  0.00  0.00    +0.000 A 
ATOM     15  C   UNL     1      -2.572   1.931  -4.080  0.00  0.00    +0.000 A 
ATOM     16  C   UNL     1      -2.981   1.302  -5.250  0.00  0.00    +0.000 A 
ATOM     17  C   UNL     1      -3.754   0.146  -5.179  0.00  0.00    +0.000 A 
ATOM     18  C   UNL     1      -4.123  -0.394  -3.934  0.00  0.00    +0.000 A 
ATOM     19  C   UNL     1      -4.961  -1.645  -3.901  0.00  0.00    +0.000 C 
ENDBRANCH  12  13
ENDBRANCH   1  12
TORSDOF 4
