MODEL 1
REMARK VINA RESULT:      -5.2      0.000      0.000
REMARK  Name = *****
REMARK  4 active torsions:
REMARK  status: ('A' for Active; 'I' for Inactive)
REMARK    1  A    between atoms: C_4  and  C_7
REMARK    2  A    between atoms: C_7  and  C_8
REMARK    3  A    between atoms: C_8  and  C_9
REMARK    4  A    between atoms: C_11  and  C_15
REMARK                            x       y       z     vdW  Elec       q    Type
REMARK                         _______ _______ _______ _____ _____    ______ ____
ROOT
ATOM      1  C   UNL     1     104.037 125.383  80.697  0.00  0.00    +0.000 A 
ATOM      2  C   UNL     1     104.001 124.085  81.228  0.00  0.00    +0.000 A 
ATOM      3  C   UNL     1     104.899 123.100  80.785  0.00  0.00    +0.000 A 
ATOM      4  C   UNL     1     105.840 123.434  79.799  0.00  0.00    +0.000 A 
ATOM      5  C   UNL     1     105.885 124.724  79.272  0.00  0.00    +0.000 A 
ATOM      6  C   UNL     1     104.989 125.694  79.721  0.00  0.00    +0.000 A 
ENDROOT
BRANCH   3   7
ATOM      7  C   UNL     1     104.862 121.700  81.346  0.00  0.00    +0.000 C 
ATOM      8  F   UNL     1     103.933 120.898  80.754  0.00  0.00    +0.000 F 
ATOM      9  F   UNL     1     106.053 121.053  81.211  0.00  0.00    +0.000 F 
ATOM     10  F   UNL     1     104.576 121.678  82.677  0.00  0.00    +0.000 F 
ENDBRANCH   3   7
BRANCH   1  11
ATOM     11  C   UNL     1     103.081 126.439  81.198  0.00  0.00    +0.000 C 
BRANCH  11  12
ATOM     12  C   UNL     1     102.127 125.881  82.258  0.00  0.00    +0.000 C 
BRANCH  12  16
ATOM     13  C   UNL     1      99.124 128.786  83.321  0.00  0.00    +0.000 A 
ATOM     14  C   UNL     1      98.757 127.611  82.668  0.00  0.00    +0.000 A 
ATOM     15  C   UNL     1      99.728 126.668  82.328  0.00  0.00    +0.000 A 
ATOM     16  C   UNL     1     101.075 126.890  82.644  0.00  0.00    +0.000 A 
ATOM     17  C   UNL     1     101.434 128.077  83.296  0.00  0.00    +0.000 A 
ATOM     18  C   UNL     1     100.461 129.019  83.635  0.00  0.00    +0.000 A 
ENDBRANCH  12  16
ENDBRANCH  11  12
ENDBRANCH   1  11
TORSDOF 4
ENDMDL
