MODEL 1
REMARK VINA RESULT:      -4.4      0.000      0.000
REMARK  Name = *****
REMARK  3 active torsions:
REMARK  status: ('A' for Active; 'I' for Inactive)
REMARK    1  A    between atoms: C_1  and  C_2
REMARK    2  A    between atoms: C_5  and  S_8
REMARK    3  A    between atoms: S_8  and  C_9
REMARK                            x       y       z     vdW  Elec       q    Type
REMARK                         _______ _______ _______ _____ _____    ______ ____
ROOT
ATOM      1  S   UNL     1     102.318 127.874  82.851  0.00  0.00    +0.000 S 
ENDROOT
BRANCH   1   6
ATOM      2  C   UNL     1     104.885 122.851  80.536  0.00  0.00    +0.000 C 
ATOM      3  C   UNL     1     104.226 124.070  81.109  0.00  0.00    +0.000 A 
ATOM      4  C   UNL     1     103.899 125.154  80.286  0.00  0.00    +0.000 A 
ATOM      5  C   UNL     1     103.316 126.304  80.827  0.00  0.00    +0.000 A 
ATOM      6  C   UNL     1     103.053 126.387  82.197  0.00  0.00    +0.000 A 
ATOM      7  C   UNL     1     103.407 125.319  83.024  0.00  0.00    +0.000 A 
ATOM      8  C   UNL     1     103.989 124.168  82.485  0.00  0.00    +0.000 A 
ENDBRANCH   1   6
BRANCH   1   9
ATOM      9  C   UNL     1     100.744 127.201  83.509  0.00  0.00    +0.000 C 
ATOM     10  C   UNL     1      99.754 126.761  82.383  0.00  0.00    +0.000 C 
ATOM     11  C   UNL     1      98.493 127.602  82.685  0.00  0.00    +0.000 C 
ATOM     12  C   UNL     1      99.121 128.932  83.111  0.00  0.00    +0.000 C 
ATOM     13  C   UNL     1      99.930 128.297  84.250  0.00  0.00    +0.000 C 
ATOM     14  C   UNL     1      98.792 127.592  84.964  0.00  0.00    +0.000 C 
ATOM     15  C   UNL     1      97.939 127.165  84.021  0.00  0.00    +0.000 C 
ENDBRANCH   1   9
TORSDOF 2
ENDMDL
