MODEL 1
REMARK VINA RESULT:      -4.1      0.000      0.000
REMARK  Name = *****
REMARK  3 active torsions:
REMARK  status: ('A' for Active; 'I' for Inactive)
REMARK    1  A    between atoms: C_4  and  C_7
REMARK    2  A    between atoms: C_7  and  S_8
REMARK    3  A    between atoms: S_8  and  C_9
REMARK                            x       y       z     vdW  Elec       q    Type
REMARK                         _______ _______ _______ _____ _____    ______ ____
ROOT
ATOM      1  C   UNL     1     102.729 127.833  83.235  0.00  0.00    +0.000 C 
ENDROOT
BRANCH   1   5
ATOM      2  C   UNL     1      98.430 127.876  82.857  0.00  0.00    +0.000 A 
ATOM      3  C   UNL     1      99.088 128.954  83.445  0.00  0.00    +0.000 A 
ATOM      4  C   UNL     1     100.479 128.942  83.567  0.00  0.00    +0.000 A 
ATOM      5  C   UNL     1     101.225 127.852  83.095  0.00  0.00    +0.000 A 
ATOM      6  C   UNL     1     100.550 126.769  82.512  0.00  0.00    +0.000 A 
ATOM      7  C   UNL     1      99.160 126.784  82.392  0.00  0.00    +0.000 A 
ENDBRANCH   1   5
BRANCH   1   8
ATOM      8  S   UNL     1     103.539 127.566  81.634  0.00  0.00    +0.000 S 
BRANCH   8   9
ATOM      9  C   UNL     1     103.916 125.846  81.621  0.00  0.00    +0.000 A 
ATOM     10  C   UNL     1     103.909 125.057  82.759  0.00  0.00    +0.000 A 
ATOM     11  C   UNL     1     104.249 123.697  82.489  0.00  0.00    +0.000 A 
ATOM     12  C   UNL     1     104.500 123.514  81.155  0.00  0.00    +0.000 A 
ATOM     13  S   UNL     1     104.337 124.924  80.239  0.00  0.00    +0.000 S 
ATOM     14 CL   UNL     1     104.942 122.043  80.389  0.00  0.00    +0.000 Cl
ENDBRANCH   8   9
ENDBRANCH   1   8
TORSDOF 3
ENDMDL
