REMARK  Name = *****
REMARK  4 active torsions:
REMARK  status: ('A' for Active; 'I' for Inactive)
REMARK    1  A    between atoms: C_1  and  P_2
REMARK    2  A    between atoms: P_2  and  C_3
REMARK    3  A    between atoms: P_2  and  C_11
REMARK    4  A    between atoms: C_3  and  C_4
REMARK                            x       y       z     vdW  Elec       q    Type
REMARK                         _______ _______ _______ _____ _____    ______ ____
ROOT
ATOM      1  C   UNL     1       1.095  -0.076   0.165  0.00  0.00    +0.000 C 
ATOM      2  P   UNL     1       2.907  -0.021  -0.106  0.00  0.00    +0.000 P 
ENDROOT
BRANCH   2   3
ATOM      3  C   UNL     1       3.485  -1.476   0.822  0.00  0.00    +0.000 A 
ATOM      4  C   UNL     1       4.440  -2.309   0.221  0.00  0.00    +0.000 A 
ATOM      5  C   UNL     1       4.933  -3.434   0.887  0.00  0.00    +0.000 A 
ATOM      6  C   UNL     1       4.478  -3.742   2.166  0.00  0.00    +0.000 A 
ATOM      7  C   UNL     1       3.531  -2.925   2.778  0.00  0.00    +0.000 A 
ATOM      8  C   UNL     1       3.038  -1.799   2.110  0.00  0.00    +0.000 A 
ENDBRANCH   2   3
BRANCH   2   9
ATOM      9  C   UNL     1       3.341   1.371   1.002  0.00  0.00    +0.000 C 
BRANCH   9  10
ATOM     10  C   UNL     1       4.814   1.601   0.771  0.00  0.00    +0.000 A 
ATOM     11  C   UNL     1       5.258   2.418  -0.284  0.00  0.00    +0.000 A 
ATOM     12  C   UNL     1       6.623   2.639  -0.489  0.00  0.00    +0.000 A 
ATOM     13  C   UNL     1       7.555   2.048   0.360  0.00  0.00    +0.000 A 
ATOM     14  C   UNL     1       7.136   1.241   1.415  0.00  0.00    +0.000 A 
ATOM     15  C   UNL     1       5.772   1.021   1.621  0.00  0.00    +0.000 A 
ATOM     16 CL   UNL     1       9.235   2.318   0.106  0.00  0.00    +0.000 Cl
ENDBRANCH   9  10
ENDBRANCH   2   9
TORSDOF 3
