MODEL 1
REMARK VINA RESULT:      -4.2      0.000      0.000
REMARK  Name = *****
REMARK  4 active torsions:
REMARK  status: ('A' for Active; 'I' for Inactive)
REMARK    1  A    between atoms: C_1  and  C_2
REMARK    2  A    between atoms: C_2  and  N_3
REMARK    3  A    between atoms: C_4  and  C_17
REMARK    4  A    between atoms: C_9  and  C_11
REMARK                            x       y       z     vdW  Elec       q    Type
REMARK                         _______ _______ _______ _____ _____    ______ ____
ROOT
ATOM      1  N   UNL     1     105.105 123.655  82.511  0.00  0.00    +0.000 N 
ATOM      2  C   UNL     1     105.694 123.338  81.360  0.00  0.00    +0.000 C 
ATOM      3  S   UNL     1     104.984 124.192  80.044  0.00  0.00    +0.000 S 
ATOM      4  C   UNL     1     103.875 124.969  81.138  0.00  0.00    +0.000 A 
ATOM      5  C   UNL     1     104.073 124.572  82.425  0.00  0.00    +0.000 A 
ATOM      6  S   UNL     1     103.060 125.252  83.594  0.00  0.00    +0.000 S 
ATOM      7  C   UNL     1     102.275 126.152  82.337  0.00  0.00    +0.000 A 
ATOM      8  C   UNL     1     102.807 125.914  81.075  0.00  0.00    +0.000 A 
ATOM      9  C   UNL     1     106.824 122.393  81.150  0.00  0.00    +0.000 C 
ENDROOT
BRANCH   7  10
ATOM     10  C   UNL     1     101.185 127.076  82.687  0.00  0.00    +0.000 A 
ATOM     11  C   UNL     1      99.858 126.743  82.374  0.00  0.00    +0.000 A 
ATOM     12  C   UNL     1      98.810 127.602  82.708  0.00  0.00    +0.000 A 
ATOM     13  C   UNL     1      99.073 128.803  83.362  0.00  0.00    +0.000 A 
ATOM     14  C   UNL     1     100.384 129.146  83.685  0.00  0.00    +0.000 A 
ATOM     15  C   UNL     1     101.435 128.286  83.352  0.00  0.00    +0.000 A 
ENDBRANCH   7  10
BRANCH   1  17
ATOM     16  C   UNL     1     104.696 121.855  84.168  0.00  0.00    +0.000 C 
ATOM     17  C   UNL     1     105.552 123.050  83.784  0.00  0.00    +0.000 C 
ENDBRANCH   1  17
TORSDOF 2
ENDMDL
