MODEL 1
REMARK VINA RESULT:      -4.7      0.000      0.000
REMARK  Name = *****
REMARK  4 active torsions:
REMARK  status: ('A' for Active; 'I' for Inactive)
REMARK    1  A    between atoms: C_4  and  C_7
REMARK    2  A    between atoms: C_7  and  O_9
REMARK    3  A    between atoms: O_9  and  N_10
REMARK    4  A    between atoms: N_10  and  C_11
REMARK                            x       y       z     vdW  Elec       q    Type
REMARK                         _______ _______ _______ _____ _____    ______ ____
ROOT
ATOM      1  O   UNL     1     100.203 126.644  83.250  0.00  0.00    +0.000 OA
ENDROOT
BRANCH   1   2
ATOM      2  C   UNL     1      99.073 127.346  82.939  0.00  0.00    +0.000 C 
ATOM      3  O   UNL     1      98.281 127.040  82.057  0.00  0.00    +0.000 OA
BRANCH   2   7
ATOM      4  C   UNL     1      98.727 130.857  85.373  0.00  0.00    +0.000 A 
ATOM      5  C   UNL     1      99.381 130.905  84.143  0.00  0.00    +0.000 A 
ATOM      6  C   UNL     1      99.484 129.751  83.363  0.00  0.00    +0.000 A 
ATOM      7  C   UNL     1      98.933 128.543  83.810  0.00  0.00    +0.000 A 
ATOM      8  C   UNL     1      98.275 128.502  85.048  0.00  0.00    +0.000 A 
ATOM      9  C   UNL     1      98.174 129.659  85.825  0.00  0.00    +0.000 A 
ENDBRANCH   2   7
ENDBRANCH   1   2
BRANCH   1  10
ATOM     10  N   UNL     1     100.838 126.132  82.104  0.00  0.00    +0.000 N 
ATOM     11  H   UNL     1     100.372 125.494  81.517  0.00  0.00    +0.000 HD
BRANCH  10  12
ATOM     12  C   UNL     1     102.153 126.547  81.808  0.00  0.00    +0.000 A 
ATOM     13  C   UNL     1     102.975 125.820  80.938  0.00  0.00    +0.000 A 
ATOM     14  C   UNL     1     104.249 126.285  80.602  0.00  0.00    +0.000 A 
ATOM     15  C   UNL     1     104.707 127.497  81.113  0.00  0.00    +0.000 A 
ATOM     16  C   UNL     1     103.886 128.249  81.950  0.00  0.00    +0.000 A 
ATOM     17  C   UNL     1     102.613 127.782  82.285  0.00  0.00    +0.000 A 
ENDBRANCH  10  12
ENDBRANCH   1  10
TORSDOF 4
ENDMDL
