MODEL 1
REMARK VINA RESULT:      -3.9      0.000      0.000
REMARK  Name = *****
REMARK  4 active torsions:
REMARK  status: ('A' for Active; 'I' for Inactive)
REMARK    1  A    between atoms: C_4  and  C_7
REMARK    2  A    between atoms: C_7  and  C_8
REMARK    3  A    between atoms: C_8  and  S_9
REMARK    4  A    between atoms: S_9  and  C_11
REMARK                            x       y       z     vdW  Elec       q    Type
REMARK                         _______ _______ _______ _____ _____    ______ ____
ROOT
ATOM      1  S   UNL     1      88.988  68.801  83.088  0.00  0.00    +0.000 S 
ATOM      2  O   UNL     1      89.647  67.953  82.040  0.00  0.00    +0.000 OA
ENDROOT
BRANCH   1   3
ATOM      3  C   UNL     1      88.913  67.776  84.578  0.00  0.00    +0.000 A 
ATOM      4  C   UNL     1      90.093  67.239  85.113  0.00  0.00    +0.000 A 
ATOM      5  C   UNL     1      90.045  66.455  86.268  0.00  0.00    +0.000 A 
ATOM      6  C   UNL     1      88.823  66.219  86.887  0.00  0.00    +0.000 A 
ATOM      7  C   UNL     1      87.647  66.753  86.376  0.00  0.00    +0.000 A 
ATOM      8  C   UNL     1      87.692  67.536  85.221  0.00  0.00    +0.000 A 
ATOM      9  F   UNL     1      88.781  65.468  87.996  0.00  0.00    +0.000 F 
ENDBRANCH   1   3
BRANCH   1  10
ATOM     10  C   UNL     1      90.234  69.991  83.689  0.00  0.00    +0.000 C 
BRANCH  10  11
ATOM     11  C   UNL     1      89.548  71.257  84.192  0.00  0.00    +0.000 C 
BRANCH  11  15
ATOM     12  C   UNL     1      87.638  70.543  87.992  0.00  0.00    +0.000 A 
ATOM     13  C   UNL     1      89.012  70.352  87.854  0.00  0.00    +0.000 A 
ATOM     14  C   UNL     1      89.632  70.590  86.626  0.00  0.00    +0.000 A 
ATOM     15  C   UNL     1      88.881  71.024  85.526  0.00  0.00    +0.000 A 
ATOM     16  C   UNL     1      87.500  71.209  85.673  0.00  0.00    +0.000 A 
ATOM     17  C   UNL     1      86.883  70.970  86.901  0.00  0.00    +0.000 A 
ENDBRANCH  11  15
ENDBRANCH  10  11
ENDBRANCH   1  10
TORSDOF 4
ENDMDL
