MODEL 1
REMARK VINA RESULT:      -4.4      0.000      0.000
REMARK  Name = *****
REMARK  6 active torsions:
REMARK  status: ('A' for Active; 'I' for Inactive)
REMARK    1  A    between atoms: C_1  and  C_2
REMARK    2  A    between atoms: C_2  and  O_3
REMARK    3  A    between atoms: O_3  and  P_4
REMARK    4  A    between atoms: P_4  and  C_6
REMARK    5  A    between atoms: P_4  and  O_12
REMARK    6  A    between atoms: O_12  and  C_13
REMARK                            x       y       z     vdW  Elec       q    Type
REMARK                         _______ _______ _______ _____ _____    ______ ____
ROOT
ATOM      1  P   UNL     1     103.102 127.344  83.349  0.00  0.00    +0.000 P 
ATOM      2  S   UNL     1     103.905 127.268  85.199  0.00  0.00    +0.000 S 
ENDROOT
BRANCH   1   3
ATOM      3  C   UNL     1     101.284 127.674  83.163  0.00  0.00    +0.000 A 
ATOM      4  C   UNL     1     100.469 126.706  82.552  0.00  0.00    +0.000 A 
ATOM      5  C   UNL     1      99.102 126.935  82.400  0.00  0.00    +0.000 A 
ATOM      6  C   UNL     1      98.540 128.129  82.850  0.00  0.00    +0.000 A 
ATOM      7  C   UNL     1      99.343 129.097  83.454  0.00  0.00    +0.000 A 
ATOM      8  C   UNL     1     100.711 128.873  83.610  0.00  0.00    +0.000 A 
ENDBRANCH   1   3
BRANCH   1   9
ATOM      9  O   UNL     1     103.414 129.045  83.299  0.00  0.00    +0.000 OA
BRANCH   9  11
ATOM     10  C   UNL     1     104.583 128.770  81.239  0.00  0.00    +0.000 C 
ATOM     11  C   UNL     1     104.612 129.390  82.620  0.00  0.00    +0.000 C 
ENDBRANCH   9  11
ENDBRANCH   1   9
BRANCH   1  12
ATOM     12  O   UNL     1     102.791 125.643  83.400  0.00  0.00    +0.000 OA
BRANCH  12  13
ATOM     13  C   UNL     1     103.485 124.854  82.523  0.00  0.00    +0.000 A 
ATOM     14  C   UNL     1     103.621 125.189  81.176  0.00  0.00    +0.000 A 
ATOM     15  C   UNL     1     104.342 124.343  80.331  0.00  0.00    +0.000 A 
ATOM     16  C   UNL     1     104.923 123.188  80.845  0.00  0.00    +0.000 A 
ATOM     17  C   UNL     1     104.805 122.863  82.193  0.00  0.00    +0.000 A 
ATOM     18  C   UNL     1     104.088 123.707  83.040  0.00  0.00    +0.000 A 
ATOM     19  F   UNL     1     105.613 122.379  80.031  0.00  0.00    +0.000 F 
ENDBRANCH  12  13
ENDBRANCH   1  12
TORSDOF 5
ENDMDL
