MODEL 1
REMARK VINA RESULT:      -4.5      0.000      0.000
REMARK  Name = *****
REMARK  4 active torsions:
REMARK  status: ('A' for Active; 'I' for Inactive)
REMARK    1  A    between atoms: C_1  and  C_2
REMARK    2  A    between atoms: C_5  and  S_8
REMARK    3  A    between atoms: S_8  and  N_9
REMARK    4  A    between atoms: N_9  and  C_10
REMARK                            x       y       z     vdW  Elec       q    Type
REMARK                         _______ _______ _______ _____ _____    ______ ____
ROOT
ATOM      1  N   UNL     1      89.194  63.730  88.001  0.00  0.00    +0.000 N 
ATOM      2  H   UNL     1      90.136  63.588  88.250  0.00  0.00    +0.000 HD
ENDROOT
BRANCH   1   3
ATOM      3  C   UNL     1      88.193  63.446  88.961  0.00  0.00    +0.000 A 
ATOM      4  C   UNL     1      88.087  64.103  90.196  0.00  0.00    +0.000 A 
ATOM      5  C   UNL     1      87.031  63.829  91.074  0.00  0.00    +0.000 A 
ATOM      6  C   UNL     1      86.051  62.911  90.715  0.00  0.00    +0.000 A 
ATOM      7  C   UNL     1      86.112  62.271  89.481  0.00  0.00    +0.000 A 
ATOM      8  C   UNL     1      87.170  62.549  88.608  0.00  0.00    +0.000 A 
ATOM      9 CL   UNL     1      84.752  62.575  91.790  0.00  0.00    +0.000 Cl
ENDBRANCH   1   3
BRANCH   1  10
ATOM     10  S   UNL     1      88.855  64.292  86.471  0.00  0.00    +0.000 S 
BRANCH  10  15
ATOM     11  C   UNL     1      89.073  70.367  87.104  0.00  0.00    +0.000 C 
ATOM     12  C   UNL     1      89.017  68.873  86.987  0.00  0.00    +0.000 A 
ATOM     13  C   UNL     1      87.924  68.162  87.492  0.00  0.00    +0.000 A 
ATOM     14  C   UNL     1      87.854  66.772  87.352  0.00  0.00    +0.000 A 
ATOM     15  C   UNL     1      88.872  66.068  86.701  0.00  0.00    +0.000 A 
ATOM     16  C   UNL     1      89.956  66.785  86.181  0.00  0.00    +0.000 A 
ATOM     17  C   UNL     1      90.026  68.175  86.318  0.00  0.00    +0.000 A 
ENDBRANCH  10  15
ENDBRANCH   1  10
TORSDOF 3
ENDMDL
