MODEL 1
REMARK VINA RESULT:      -4.9      0.000      0.000
REMARK  Name = *****
REMARK  2 active torsions:
REMARK  status: ('A' for Active; 'I' for Inactive)
REMARK    1  A    between atoms: C_6  and  C_11
REMARK    2  A    between atoms: C_14  and  C_16
REMARK                            x       y       z     vdW  Elec       q    Type
REMARK                         _______ _______ _______ _____ _____    ______ ____
ROOT
ATOM      1  C   UNL     1      99.016 129.062  83.838  0.00  0.00    +0.000 A 
ATOM      2  C   UNL     1      98.421 127.941  83.269  0.00  0.00    +0.000 A 
ATOM      3  C   UNL     1      99.212 126.962  82.667  0.00  0.00    +0.000 A 
ATOM      4  C   UNL     1     100.610 127.092  82.629  0.00  0.00    +0.000 A 
ATOM      5  C   UNL     1     101.421 126.113  82.027  0.00  0.00    +0.000 A 
ATOM      6  C   UNL     1     102.819 126.241  81.991  0.00  0.00    +0.000 A 
ATOM      7  C   UNL     1     103.402 127.376  82.567  0.00  0.00    +0.000 A 
ATOM      8  C   UNL     1     102.609 128.359  83.169  0.00  0.00    +0.000 A 
ATOM      9  C   UNL     1     101.214 128.230  83.208  0.00  0.00    +0.000 A 
ATOM     10  C   UNL     1     100.403 129.207  83.809  0.00  0.00    +0.000 A 
ENDROOT
BRANCH   6  11
ATOM     11  C   UNL     1     103.621 125.200  81.359  0.00  0.00    +0.000 A 
ATOM     12  N   UNL     1     104.063 125.103  80.120  0.00  0.00    +0.000 NA
ATOM     13  N   UNL     1     104.770 123.922  80.042  0.00  0.00    +0.000 NA
ATOM     14  C   UNL     1     104.714 123.377  81.240  0.00  0.00    +0.000 A 
ATOM     15  O   UNL     1     103.988 124.125  82.130  0.00  0.00    +0.000 OA
BRANCH  14  16
ATOM     16  C   UNL     1     105.273 122.098  81.717  0.00  0.00    +0.000 C 
ATOM     17 CL   UNL     1     104.287 120.724  81.167  0.00  0.00    +0.000 Cl
ENDBRANCH  14  16
ENDBRANCH   6  11
TORSDOF 2
ENDMDL
