REMARK  Name = *****
REMARK  1 active torsions:
REMARK  status: ('A' for Active; 'I' for Inactive)
REMARK    1  A    between atoms: C_4  and  C_7
REMARK                            x       y       z     vdW  Elec       q    Type
REMARK                         _______ _______ _______ _____ _____    ______ ____
ROOT
ATOM      1  C   UNL     1      -3.219  -0.062  -0.609  0.00  0.00    +0.000 A 
ATOM      2  C   UNL     1      -4.190   0.596  -1.340  0.00  0.00    +0.000 A 
ATOM      3  C   UNL     1      -5.529   0.199  -1.010  0.00  0.00    +0.000 A 
ATOM      4  C   UNL     1      -5.533  -0.770  -0.005  0.00  0.00    +0.000 A 
ATOM      5  S   UNL     1      -3.935  -1.150   0.502  0.00  0.00    +0.000 S 
ATOM      6  C   UNL     1      -6.732  -1.322   0.484  0.00  0.00    +0.000 A 
ATOM      7  C   UNL     1      -7.932  -0.876  -0.060  0.00  0.00    +0.000 A 
ATOM      8  C   UNL     1      -7.967   0.086  -1.054  0.00  0.00    +0.000 A 
ATOM      9  C   UNL     1      -6.773   0.630  -1.536  0.00  0.00    +0.000 A 
ATOM     10  F   UNL     1      -9.084  -1.391   0.392  0.00  0.00    +0.000 F 
ENDROOT
BRANCH   1  14
ATOM     11  C   UNL     1       1.034   0.446  -0.844  0.00  0.00    +0.000 A 
ATOM     12  C   UNL     1       0.186   1.545  -0.956  0.00  0.00    +0.000 A 
ATOM     13  C   UNL     1      -1.199   1.372  -0.873  0.00  0.00    +0.000 A 
ATOM     14  C   UNL     1      -1.757   0.099  -0.676  0.00  0.00    +0.000 A 
ATOM     15  C   UNL     1      -0.886  -0.997  -0.570  0.00  0.00    +0.000 A 
ATOM     16  C   UNL     1       0.499  -0.825  -0.651  0.00  0.00    +0.000 A 
ENDBRANCH   1  14
TORSDOF 1
