MODEL 1
REMARK VINA RESULT:      -5.0      0.000      0.000
REMARK  Name = *****
REMARK  3 active torsions:
REMARK  status: ('A' for Active; 'I' for Inactive)
REMARK    1  A    between atoms: C_1  and  C_2
REMARK    2  A    between atoms: C_5  and  O_8
REMARK    3  A    between atoms: O_8  and  P_9
REMARK                            x       y       z     vdW  Elec       q    Type
REMARK                         _______ _______ _______ _____ _____    ______ ____
ROOT
ATOM      1  P   UNL     1      88.961  65.236  86.280  0.00  0.00    +0.000 P 
ATOM      2  O   UNL     1      88.851  64.664  84.893  0.00  0.00    +0.000 OA
ATOM      3  N   UNL     1      89.313  64.207  87.526  0.00  0.00    +0.000 N 
ATOM      4  C   UNL     1      88.514  64.427  88.665  0.00  0.00    +0.000 A 
ATOM      5  C   UNL     1      88.746  63.770  89.871  0.00  0.00    +0.000 A 
ATOM      6  C   UNL     1      87.876  63.973  90.945  0.00  0.00    +0.000 A 
ATOM      7  C   UNL     1      86.764  64.811  90.809  0.00  0.00    +0.000 A 
ATOM      8  C   UNL     1      86.506  65.447  89.594  0.00  0.00    +0.000 A 
ATOM      9  C   UNL     1      87.373  65.247  88.524  0.00  0.00    +0.000 A 
ATOM     10  S   UNL     1      87.112  66.011  86.928  0.00  0.00    +0.000 S 
ATOM     11  H   UNL     1      90.009  63.513  87.476  0.00  0.00    +0.000 HD
ENDROOT
BRANCH   1  12
ATOM     12  O   UNL     1      90.087  66.395  86.383  0.00  0.00    +0.000 OA
BRANCH  12  17
ATOM     13  C   UNL     1      89.473  71.699  84.479  0.00  0.00    +0.000 C 
ATOM     14  C   UNL     1      89.600  70.299  85.002  0.00  0.00    +0.000 A 
ATOM     15  C   UNL     1      89.525  70.047  86.377  0.00  0.00    +0.000 A 
ATOM     16  C   UNL     1      89.678  68.748  86.874  0.00  0.00    +0.000 A 
ATOM     17  C   UNL     1      89.921  67.695  86.000  0.00  0.00    +0.000 A 
ATOM     18  C   UNL     1      90.001  67.937  84.628  0.00  0.00    +0.000 A 
ATOM     19  C   UNL     1      89.850  69.234  84.130  0.00  0.00    +0.000 A 
ENDBRANCH  12  17
ENDBRANCH   1  12
TORSDOF 2
ENDMDL
