MODEL 1
REMARK VINA RESULT:      -3.8      0.000      0.000
REMARK  Name = *****
REMARK  3 active torsions:
REMARK  status: ('A' for Active; 'I' for Inactive)
REMARK    1  A    between atoms: C_4  and  S_6
REMARK    2  A    between atoms: S_6  and  C_7
REMARK    3  A    between atoms: C_7  and  C_8
REMARK                            x       y       z     vdW  Elec       q    Type
REMARK                         _______ _______ _______ _____ _____    ______ ____
ROOT
ATOM      1  C   UNL     1     103.265 128.018  82.240  0.00  0.00    +0.000 C 
ENDROOT
BRANCH   1   2
ATOM      2  C   UNL     1     103.651 126.622  81.817  0.00  0.00    +0.000 A 
ATOM      3  C   UNL     1     103.714 126.284  80.456  0.00  0.00    +0.000 A 
ATOM      4  C   UNL     1     104.059 124.989  80.062  0.00  0.00    +0.000 A 
ATOM      5  C   UNL     1     104.337 124.024  81.026  0.00  0.00    +0.000 A 
ATOM      6  C   UNL     1     104.270 124.340  82.382  0.00  0.00    +0.000 A 
ATOM      7  C   UNL     1     103.927 125.635  82.776  0.00  0.00    +0.000 A 
ATOM      8 CL   UNL     1     104.762 122.428  80.541  0.00  0.00    +0.000 Cl
ENDBRANCH   1   2
BRANCH   1   9
ATOM      9  S   UNL     1     102.427 128.017  83.853  0.00  0.00    +0.000 S 
BRANCH   9  13
ATOM     10  C   UNL     1      98.920 126.754  82.339  0.00  0.00    +0.000 A 
ATOM     11  C   UNL     1      98.373 127.924  82.818  0.00  0.00    +0.000 A 
ATOM     12  S   UNL     1      99.535 128.899  83.608  0.00  0.00    +0.000 S 
ATOM     13  C   UNL     1     100.776 127.759  83.321  0.00  0.00    +0.000 A 
ATOM     14  C   UNL     1     100.315 126.661  82.627  0.00  0.00    +0.000 A 
ENDBRANCH   9  13
ENDBRANCH   1   9
TORSDOF 3
ENDMDL
