MODEL 1
REMARK VINA RESULT:      -5.1      0.000      0.000
REMARK  Name = *****
REMARK  2 active torsions:
REMARK  status: ('A' for Active; 'I' for Inactive)
REMARK    1  A    between atoms: C_4  and  C_7
REMARK    2  A    between atoms: C_7  and  C_8
REMARK                            x       y       z     vdW  Elec       q    Type
REMARK                         _______ _______ _______ _____ _____    ______ ____
ROOT
ATOM      1  C   UNL     1      88.709  65.850  86.544  0.00  0.00    +0.000 C 
ATOM      2  C   UNL     1      88.921  64.517  87.250  0.00  0.00    +0.000 C 
ATOM      3  C   UNL     1      88.170  64.468  88.357  0.00  0.00    +0.000 A 
ATOM      4  C   UNL     1      88.034  63.429  89.346  0.00  0.00    +0.000 A 
ATOM      5  C   UNL     1      87.182  63.641  90.371  0.00  0.00    +0.000 A 
ATOM      6  C   UNL     1      86.403  64.879  90.493  0.00  0.00    +0.000 A 
ATOM      7  C   UNL     1      86.491  65.876  89.587  0.00  0.00    +0.000 A 
ATOM      8  C   UNL     1      87.393  65.697  88.475  0.00  0.00    +0.000 A 
ATOM      9  C   UNL     1      87.666  66.502  87.440  0.00  0.00    +0.000 C 
ATOM     10 CL   UNL     1      87.945  65.511  84.954  0.00  0.00    +0.000 Cl
ENDROOT
BRANCH   1  11
ATOM     11  C   UNL     1      90.028  66.684  86.440  0.00  0.00    +0.000 C 
ATOM     12 CL   UNL     1      91.284  65.876  85.418  0.00  0.00    +0.000 Cl
BRANCH  11  16
ATOM     13  C   UNL     1      89.605  70.803  85.141  0.00  0.00    +0.000 A 
ATOM     14  C   UNL     1      89.787  69.782  84.211  0.00  0.00    +0.000 A 
ATOM     15  C   UNL     1      89.915  68.459  84.641  0.00  0.00    +0.000 A 
ATOM     16  C   UNL     1      89.862  68.136  86.008  0.00  0.00    +0.000 A 
ATOM     17  C   UNL     1      89.679  69.179  86.930  0.00  0.00    +0.000 A 
ATOM     18  C   UNL     1      89.550  70.502  86.499  0.00  0.00    +0.000 A 
ENDBRANCH  11  16
ENDBRANCH   1  11
TORSDOF 2
ENDMDL
