MODEL 1
REMARK VINA RESULT:      -4.3      0.000      0.000
REMARK  Name = *****
REMARK  4 active torsions:
REMARK  status: ('A' for Active; 'I' for Inactive)
REMARK    1  A    between atoms: C_1  and  C_2
REMARK    2  A    between atoms: C_5  and  N_8
REMARK    3  A    between atoms: N_8  and  S_9
REMARK    4  A    between atoms: S_9  and  C_10
REMARK                            x       y       z     vdW  Elec       q    Type
REMARK                         _______ _______ _______ _____ _____    ______ ____
ROOT
ATOM      1  N   UNL     1      87.758  62.741  87.814  0.00  0.00    +0.000 N 
ATOM      2  H   UNL     1      88.004  61.799  87.675  0.00  0.00    +0.000 HD
ENDROOT
BRANCH   1   7
ATOM      3  C   UNL     1      87.985  64.761  93.191  0.00  0.00    +0.000 C 
ATOM      4  C   UNL     1      87.938  64.271  91.774  0.00  0.00    +0.000 A 
ATOM      5  C   UNL     1      86.722  63.943  91.175  0.00  0.00    +0.000 A 
ATOM      6  C   UNL     1      86.687  63.451  89.864  0.00  0.00    +0.000 A 
ATOM      7  C   UNL     1      87.862  63.285  89.114  0.00  0.00    +0.000 A 
ATOM      8  C   UNL     1      89.080  63.573  89.746  0.00  0.00    +0.000 A 
ATOM      9  C   UNL     1      89.119  64.065  91.056  0.00  0.00    +0.000 A 
ENDBRANCH   1   7
BRANCH   1  10
ATOM     10  S   UNL     1      87.235  63.630  86.503  0.00  0.00    +0.000 S 
BRANCH  10  11
ATOM     11  C   UNL     1      88.709  64.585  86.176  0.00  0.00    +0.000 A 
ATOM     12  C   UNL     1      88.832  65.905  86.621  0.00  0.00    +0.000 A 
ATOM     13  C   UNL     1      89.993  66.634  86.357  0.00  0.00    +0.000 A 
ATOM     14  C   UNL     1      91.040  66.044  85.650  0.00  0.00    +0.000 A 
ATOM     15  C   UNL     1      90.928  64.726  85.210  0.00  0.00    +0.000 A 
ATOM     16  C   UNL     1      89.766  63.997  85.474  0.00  0.00    +0.000 A 
ENDBRANCH  10  11
ENDBRANCH   1  10
TORSDOF 3
ENDMDL
