MODEL 1
REMARK VINA RESULT:      -4.2      0.000      0.000
REMARK  Name = *****
REMARK  6 active torsions:
REMARK  status: ('A' for Active; 'I' for Inactive)
REMARK    1  A    between atoms: C_1  and  O_2
REMARK    2  A    between atoms: O_2  and  C_3
REMARK    3  A    between atoms: C_8  and  C_9
REMARK    4  A    between atoms: C_9  and  P_10
REMARK    5  A    between atoms: P_10  and  C_11
REMARK    6  A    between atoms: P_10  and  C_12
REMARK                            x       y       z     vdW  Elec       q    Type
REMARK                         _______ _______ _______ _____ _____    ______ ____
ROOT
ATOM      1  C   UNL     1     102.876 127.271  82.939  0.00  0.00    +0.000 C 
ENDROOT
BRANCH   1   7
ATOM      2  C   UNL     1     100.893 128.766  83.526  0.00  0.00    +0.000 A 
ATOM      3  C   UNL     1      99.513 129.002  83.531  0.00  0.00    +0.000 A 
ATOM      4  C   UNL     1      98.629 128.070  82.984  0.00  0.00    +0.000 A 
ATOM      5  C   UNL     1      99.113 126.890  82.430  0.00  0.00    +0.000 A 
ATOM      6  C   UNL     1     100.485 126.645  82.416  0.00  0.00    +0.000 A 
ATOM      7  C   UNL     1     101.398 127.582  82.947  0.00  0.00    +0.000 A 
BRANCH   2   9
ATOM      8  C   UNL     1     101.363 130.627  84.946  0.00  0.00    +0.000 C 
ATOM      9  O   UNL     1     101.825 129.624  84.052  0.00  0.00    +0.000 OA
ENDBRANCH   2   9
ENDBRANCH   1   7
BRANCH   1  10
ATOM     10  P   UNL     1     103.287 126.818  81.205  0.00  0.00    +0.000 P 
ATOM     11  C   UNL     1     105.030 127.399  81.107  0.00  0.00    +0.000 C 
BRANCH  10  12
ATOM     12  C   UNL     1     103.565 124.975  81.393  0.00  0.00    +0.000 C 
ATOM     13  C   UNL     1     104.062 124.645  82.812  0.00  0.00    +0.000 C 
ATOM     14  C   UNL     1     104.350 123.153  82.982  0.00  0.00    +0.000 C 
ATOM     15  C   UNL     1     105.332 122.645  81.934  0.00  0.00    +0.000 C 
ATOM     16  C   UNL     1     104.853 122.966  80.524  0.00  0.00    +0.000 C 
ATOM     17  C   UNL     1     104.569 124.457  80.348  0.00  0.00    +0.000 C 
ENDBRANCH  10  12
ENDBRANCH   1  10
TORSDOF 4
ENDMDL
