MODEL 1
REMARK VINA RESULT:      -4.4      0.000      0.000
REMARK  Name = *****
REMARK  3 active torsions:
REMARK  status: ('A' for Active; 'I' for Inactive)
REMARK    1  A    between atoms: C_10  and  O_11
REMARK    2  A    between atoms: O_11  and  C_12
REMARK    3  A    between atoms: C_12  and  C_13
REMARK                            x       y       z     vdW  Elec       q    Type
REMARK                         _______ _______ _______ _____ _____    ______ ____
ROOT
ATOM      1  C   UNL     1      88.078  66.347  87.314  0.00  0.00    +0.000 C 
ATOM      2  C   UNL     1      88.860  66.167  86.009  0.00  0.00    +0.000 C 
ATOM      3  C   UNL     1      90.203  66.902  86.201  0.00  0.00    +0.000 C 
ATOM      4  C   UNL     1      89.920  68.412  86.142  0.00  0.00    +0.000 C 
ATOM      5  C   UNL     1      89.567  68.690  84.695  0.00  0.00    +0.000 C 
ATOM      6  C   UNL     1      88.673  67.892  84.090  0.00  0.00    +0.000 C 
ATOM      7  C   UNL     1      87.953  66.870  84.930  0.00  0.00    +0.000 C 
ATOM      8  C   UNL     1      86.906  67.646  85.763  0.00  0.00    +0.000 C 
ATOM      9  C   UNL     1      87.572  67.777  87.139  0.00  0.00    +0.000 C 
ATOM     10  C   UNL     1      88.778  68.778  87.156  0.00  0.00    +0.000 C 
ENDROOT
BRANCH  10  11
ATOM     11  O   UNL     1      88.384  70.134  86.923  0.00  0.00    +0.000 OA
BRANCH  11  12
ATOM     12  C   UNL     1      87.512  70.672  87.913  0.00  0.00    +0.000 C 
BRANCH  12  13
ATOM     13  C   UNL     1      86.341  71.361  87.254  0.00  0.00    +0.000 A 
ATOM     14  C   UNL     1      86.240  71.445  85.858  0.00  0.00    +0.000 A 
ATOM     15  C   UNL     1      85.133  72.048  85.258  0.00  0.00    +0.000 A 
ATOM     16  C   UNL     1      84.108  72.565  86.047  0.00  0.00    +0.000 A 
ATOM     17  C   UNL     1      84.188  72.476  87.435  0.00  0.00    +0.000 A 
ATOM     18  C   UNL     1      85.294  71.873  88.036  0.00  0.00    +0.000 A 
ENDBRANCH  12  13
ENDBRANCH  11  12
ENDBRANCH  10  11
TORSDOF 3
ENDMDL
