MODEL 1
REMARK VINA RESULT:      -5.0      0.000      0.000
REMARK  Name = *****
REMARK  2 active torsions:
REMARK  status: ('A' for Active; 'I' for Inactive)
REMARK    1  A    between atoms: C_1  and  C_2
REMARK    2  A    between atoms: C_9  and  C_12
REMARK                            x       y       z     vdW  Elec       q    Type
REMARK                         _______ _______ _______ _____ _____    ______ ____
ROOT
ATOM      1  C   UNL     1     106.875 121.173  81.151  0.00  0.00    +0.000 C 
ATOM      2  C   UNL     1     105.939 122.344  81.190  0.00  0.00    +0.000 A 
ATOM      3  C   UNL     1     105.182 122.612  82.337  0.00  0.00    +0.000 A 
ATOM      4  C   UNL     1     104.327 123.707  82.423  0.00  0.00    +0.000 A 
ATOM      5  C   UNL     1     104.218 124.590  81.335  0.00  0.00    +0.000 A 
ATOM      6  C   UNL     1     104.998 124.324  80.180  0.00  0.00    +0.000 A 
ATOM      7  C   UNL     1     105.849 123.221  80.111  0.00  0.00    +0.000 A 
ATOM      8  C   UNL     1     103.331 125.685  81.482  0.00  0.00    +0.000 A 
ATOM      9  C   UNL     1     102.623 125.852  82.673  0.00  0.00    +0.000 A 
ATOM     10  N   UNL     1     102.767 124.961  83.677  0.00  0.00    +0.000 NA
ATOM     11  N   UNL     1     103.621 123.895  83.544  0.00  0.00    +0.000 NA
ATOM     12 CL   UNL     1     103.097 126.795  80.160  0.00  0.00    +0.000 Cl
ENDROOT
BRANCH   9  13
ATOM     13  C   UNL     1     101.681 126.942  82.964  0.00  0.00    +0.000 A 
ATOM     14  C   UNL     1     100.308 126.782  82.708  0.00  0.00    +0.000 A 
ATOM     15  C   UNL     1      99.398 127.804  82.987  0.00  0.00    +0.000 A 
ATOM     16  C   UNL     1      99.845 129.005  83.534  0.00  0.00    +0.000 A 
ATOM     17  C   UNL     1     101.200 129.180  83.809  0.00  0.00    +0.000 A 
ATOM     18  C   UNL     1     102.109 128.155  83.531  0.00  0.00    +0.000 A 
ENDBRANCH   9  13
TORSDOF 1
ENDMDL
