MODEL 1
REMARK VINA RESULT:      -4.6      0.000      0.000
REMARK  Name = *****
REMARK  4 active torsions:
REMARK  status: ('A' for Active; 'I' for Inactive)
REMARK    1  A    between atoms: C_5  and  C_7
REMARK    2  A    between atoms: C_7  and  O_9
REMARK    3  A    between atoms: O_9  and  C_10
REMARK    4  A    between atoms: C_10  and  C_11
REMARK                            x       y       z     vdW  Elec       q    Type
REMARK                         _______ _______ _______ _____ _____    ______ ____
ROOT
ATOM      1  C   UNL     1     104.671 124.384  80.215  0.00  0.00    +0.000 C 
ATOM      2  O   UNL     1     105.686 124.687  79.607  0.00  0.00    +0.000 OA
ENDROOT
BRANCH   1   7
ATOM      3  C   UNL     1     104.568 120.836  81.473  0.00  0.00    +0.000 A 
ATOM      4  C   UNL     1     104.491 121.013  82.853  0.00  0.00    +0.000 A 
ATOM      5  C   UNL     1     104.466 122.302  83.388  0.00  0.00    +0.000 A 
ATOM      6  C   UNL     1     104.523 123.409  82.542  0.00  0.00    +0.000 A 
ATOM      7  C   UNL     1     104.611 123.245  81.159  0.00  0.00    +0.000 A 
ATOM      8  C   UNL     1     104.625 121.947  80.627  0.00  0.00    +0.000 A 
ATOM      9  F   UNL     1     104.467 124.625  83.105  0.00  0.00    +0.000 F 
ENDBRANCH   1   7
BRANCH   1  10
ATOM     10  O   UNL     1     103.493 125.045  80.180  0.00  0.00    +0.000 OA
BRANCH  10  11
ATOM     11  C   UNL     1     103.573 126.468  80.317  0.00  0.00    +0.000 C 
BRANCH  11  12
ATOM     12  C   UNL     1     102.804 126.903  81.538  0.00  0.00    +0.000 A 
ATOM     13  C   UNL     1     103.166 128.074  82.221  0.00  0.00    +0.000 A 
ATOM     14  C   UNL     1     102.460 128.468  83.358  0.00  0.00    +0.000 A 
ATOM     15  C   UNL     1     101.394 127.703  83.828  0.00  0.00    +0.000 A 
ATOM     16  C   UNL     1     101.034 126.534  83.160  0.00  0.00    +0.000 A 
ATOM     17  C   UNL     1     101.738 126.133  82.023  0.00  0.00    +0.000 A 
ATOM     18 CL   UNL     1     102.912 129.907  84.188  0.00  0.00    +0.000 Cl
ENDBRANCH  11  12
ENDBRANCH  10  11
ENDBRANCH   1  10
TORSDOF 4
ENDMDL
