REMARK  Name = *****
REMARK  3 active torsions:
REMARK  status: ('A' for Active; 'I' for Inactive)
REMARK    1  A    between atoms: C_1  and  C_2
REMARK    2  A    between atoms: C_4  and  C_17
REMARK    3  A    between atoms: C_5  and  C_11
REMARK                            x       y       z     vdW  Elec       q    Type
REMARK                         _______ _______ _______ _____ _____    ______ ____
ROOT
ATOM      1  C   UNL     1       0.944   0.152  -0.036  0.00  0.00    +0.000 C 
ATOM      2  C   UNL     1       2.439   0.047  -0.025  0.00  0.00    +0.000 A 
ATOM      3  C   UNL     1       3.123  -1.170   0.003  0.00  0.00    +0.000 A 
ATOM      4  C   UNL     1       2.666  -2.572   0.027  0.00  0.00    +0.000 C 
ATOM      5  C   UNL     1       3.763  -3.356   0.048  0.00  0.00    +0.000 C 
ATOM      6  C   UNL     1       5.053  -2.581   0.040  0.00  0.00    +0.000 C 
ATOM      7  C   UNL     1       4.533  -1.176   0.011  0.00  0.00    +0.000 A 
ATOM      8  C   UNL     1       5.284  -0.010  -0.008  0.00  0.00    +0.000 A 
ATOM      9  C   UNL     1       4.606   1.203  -0.036  0.00  0.00    +0.000 A 
ATOM     10  C   UNL     1       3.204   1.231  -0.044  0.00  0.00    +0.000 A 
ATOM     11  C   UNL     1       1.241  -2.998   0.028  0.00  0.00    +0.000 C 
ENDROOT
BRANCH   5  12
ATOM     12  C   UNL     1       3.797  -4.814   0.072  0.00  0.00    +0.000 A 
ATOM     13  C   UNL     1       3.814  -5.538  -1.125  0.00  0.00    +0.000 A 
ATOM     14  C   UNL     1       3.841  -6.934  -1.101  0.00  0.00    +0.000 A 
ATOM     15  C   UNL     1       3.847  -7.611   0.118  0.00  0.00    +0.000 A 
ATOM     16  C   UNL     1       3.825  -6.894   1.314  0.00  0.00    +0.000 A 
ATOM     17  C   UNL     1       3.799  -5.499   1.292  0.00  0.00    +0.000 A 
ENDBRANCH   5  12
TORSDOF 1
