REMARK  Name = *****
REMARK  1 active torsions:
REMARK  status: ('A' for Active; 'I' for Inactive)
REMARK    1  A    between atoms: C_7  and  C_9
REMARK                            x       y       z     vdW  Elec       q    Type
REMARK                         _______ _______ _______ _____ _____    ______ ____
ROOT
ATOM      1  C   UNL     1      -0.687  -1.639  -0.028  0.00  0.00    +0.000 A 
ATOM      2  C   UNL     1      -1.954  -1.103  -0.040  0.00  0.00    +0.000 A 
ATOM      3  S   UNL     1      -1.985   0.611  -0.031  0.00  0.00    +0.000 S 
ATOM      4  C   UNL     1      -0.240   0.648  -0.015  0.00  0.00    +0.000 A 
ATOM      5  C   UNL     1       0.299  -0.606  -0.013  0.00  0.00    +0.000 A 
ATOM      6  S   UNL     1       2.037  -0.562   0.009  0.00  0.00    +0.000 S 
ATOM      7  C   UNL     1       2.035   1.173   0.001  0.00  0.00    +0.000 A 
ATOM      8  C   UNL     1       0.744   1.680  -0.002  0.00  0.00    +0.000 A 
ENDROOT
BRANCH   7   9
ATOM      9  C   UNL     1       3.295   1.870   0.007  0.00  0.00    +0.000 C 
ATOM     10  C   UNL     1       3.369   3.114  -0.513  0.00  0.00    +0.000 C 
ATOM     11  S   UNL     1       4.934   3.874  -0.501  0.00  0.00    +0.000 S 
ATOM     12  S   UNL     1       5.842   2.128   0.067  0.00  0.00    +0.000 S 
ATOM     13  N   UNL     1       4.464   1.304   0.516  0.00  0.00    +0.000 N 
ATOM     14  H   UNL     1       4.474   0.500   1.083  0.00  0.00    +0.000 HD
ENDBRANCH   7   9
TORSDOF 1
