REMARK  Name = *****
REMARK  2 active torsions:
REMARK  status: ('A' for Active; 'I' for Inactive)
REMARK    1  A    between atoms: C_4  and  C_6
REMARK    2  A    between atoms: C_7  and  C_8
REMARK                            x       y       z     vdW  Elec       q    Type
REMARK                         _______ _______ _______ _____ _____    ______ ____
ROOT
ATOM      1  C   UNL     1       2.254   1.597  -0.017  0.00  0.00    +0.000 C 
ATOM      2  C   UNL     1       3.218   2.313  -0.043  0.00  0.00    +0.000 C 
ENDROOT
BRANCH   2   3
ATOM      3  C   UNL     1       4.371   3.158  -0.077  0.00  0.00    +0.000 A 
ATOM      4  C   UNL     1       4.226   4.546  -0.004  0.00  0.00    +0.000 A 
ATOM      5  C   UNL     1       5.354   5.370  -0.039  0.00  0.00    +0.000 A 
ATOM      6  C   UNL     1       6.623   4.803  -0.147  0.00  0.00    +0.000 A 
ATOM      7  C   UNL     1       6.774   3.418  -0.219  0.00  0.00    +0.000 A 
ATOM      8  C   UNL     1       5.646   2.595  -0.184  0.00  0.00    +0.000 A 
ATOM      9 CL   UNL     1       8.011   5.817  -0.191  0.00  0.00    +0.000 Cl
ENDBRANCH   2   3
BRANCH   1  13
ATOM     10  C   UNL     1      -1.121   0.087   0.045  0.00  0.00    +0.000 A 
ATOM     11  C   UNL     1      -0.481  -1.133   0.062  0.00  0.00    +0.000 A 
ATOM     12  S   UNL     1       1.222  -0.963   0.043  0.00  0.00    +0.000 S 
ATOM     13  C   UNL     1       1.113   0.742   0.012  0.00  0.00    +0.000 A 
ATOM     14  C   UNL     1      -0.196   1.173   0.016  0.00  0.00    +0.000 A 
ENDBRANCH   1  13
TORSDOF 2
