REMARK  Name = *****
REMARK  3 active torsions:
REMARK  status: ('A' for Active; 'I' for Inactive)
REMARK    1  A    between atoms: C_3  and  N_8
REMARK    2  A    between atoms: N_8  and  C_9
REMARK    3  A    between atoms: C_9  and  C_10
REMARK                            x       y       z     vdW  Elec       q    Type
REMARK                         _______ _______ _______ _____ _____    ______ ____
ROOT
ATOM      1  N   UNL     1       2.268   2.554   0.181  0.00  0.00    +0.000 N 
ATOM      2  O   UNL     1       1.525   3.539   0.493  0.00  0.00    +0.000 OA
ENDROOT
BRANCH   1   5
ATOM      3  C   UNL     1       1.624  -1.119   0.618  0.00  0.00    +0.000 A 
ATOM      4  C   UNL     1       2.228   0.133   0.733  0.00  0.00    +0.000 A 
ATOM      5  C   UNL     1       1.669   1.232   0.067  0.00  0.00    +0.000 A 
ATOM      6  C   UNL     1       0.498   1.092  -0.686  0.00  0.00    +0.000 A 
ATOM      7  C   UNL     1      -0.095  -0.164  -0.792  0.00  0.00    +0.000 A 
ATOM      8  C   UNL     1       0.465  -1.269  -0.147  0.00  0.00    +0.000 A 
ATOM      9 CL   UNL     1      -1.528  -0.357  -1.723  0.00  0.00    +0.000 Cl
ENDBRANCH   1   5
BRANCH   1  10
ATOM     10  C   UNL     1       3.547   2.663  -0.101  0.00  0.00    +0.000 C 
BRANCH  10  11
ATOM     11  C   UNL     1       4.345   3.900  -0.047  0.00  0.00    +0.000 A 
ATOM     12  C   UNL     1       3.986   5.041   0.675  0.00  0.00    +0.000 A 
ATOM     13  C   UNL     1       4.826   6.160   0.684  0.00  0.00    +0.000 A 
ATOM     14  C   UNL     1       6.027   6.135  -0.021  0.00  0.00    +0.000 A 
ATOM     15  C   UNL     1       6.400   4.998  -0.733  0.00  0.00    +0.000 A 
ATOM     16  C   UNL     1       5.561   3.880  -0.743  0.00  0.00    +0.000 A 
ATOM     17 CL   UNL     1       7.058   7.511  -0.006  0.00  0.00    +0.000 Cl
ENDBRANCH  10  11
ENDBRANCH   1  10
TORSDOF 3
