MODEL 1
REMARK VINA RESULT:      -4.5      0.000      0.000
REMARK  Name = *****
REMARK  4 active torsions:
REMARK  status: ('A' for Active; 'I' for Inactive)
REMARK    1  A    between atoms: C_1  and  C_2
REMARK    2  A    between atoms: C_4  and  C_15
REMARK    3  A    between atoms: C_6  and  N_8
REMARK    4  A    between atoms: C_9  and  C_10
REMARK                            x       y       z     vdW  Elec       q    Type
REMARK                         _______ _______ _______ _____ _____    ______ ____
ROOT
ATOM      1  C   UNL     1      87.924  63.723  87.388  0.00  0.00    +0.000 C 
ATOM      2  C   UNL     1      88.987  64.579  86.766  0.00  0.00    +0.000 A 
ATOM      3  C   UNL     1      89.960  64.019  85.927  0.00  0.00    +0.000 A 
ATOM      4  C   UNL     1      90.947  64.821  85.342  0.00  0.00    +0.000 A 
ATOM      5  C   UNL     1      90.931  66.203  85.576  0.00  0.00    +0.000 A 
ATOM      6  C   UNL     1      89.950  66.783  86.383  0.00  0.00    +0.000 A 
ATOM      7  C   UNL     1      88.992  65.962  86.987  0.00  0.00    +0.000 A 
ATOM      8  C   UNL     1      92.002  64.227  84.457  0.00  0.00    +0.000 C 
ENDROOT
BRANCH   6   9
ATOM      9  N   UNL     1      89.976  68.168  86.607  0.00  0.00    +0.000 NA
ATOM     10  C   UNL     1      88.836  68.731  86.855  0.00  0.00    +0.000 C 
BRANCH  10  11
ATOM     11  C   UNL     1      88.752  70.217  87.136  0.00  0.00    +0.000 C 
ATOM     12  C   UNL     1      88.635  70.438  88.619  0.00  0.00    +0.000 C 
ATOM     13  C   UNL     1      87.454  71.014  88.902  0.00  0.00    +0.000 C 
ATOM     14  C   UNL     1      86.719  71.218  87.677  0.00  0.00    +0.000 C 
ATOM     15  C   UNL     1      87.444  70.770  86.641  0.00  0.00    +0.000 C 
ENDBRANCH  10  11
ENDBRANCH   6   9
TORSDOF 2
ENDMDL
