MODEL 1
REMARK VINA RESULT:      -4.6      0.000      0.000
REMARK  Name = *****
REMARK  3 active torsions:
REMARK  status: ('A' for Active; 'I' for Inactive)
REMARK    1  A    between atoms: C_1  and  C_2
REMARK    2  A    between atoms: C_2  and  C_9
REMARK    3  A    between atoms: C_10  and  C_11
REMARK                            x       y       z     vdW  Elec       q    Type
REMARK                         _______ _______ _______ _____ _____    ______ ____
ROOT
ATOM      1  C   UNL     1      99.880 130.747  84.076  0.00  0.00    +0.000 C 
ATOM      2  C   UNL     1      99.624 129.229  84.138  0.00  0.00    +0.000 C 
ATOM      3  C   UNL     1      98.773 128.917  85.399  0.00  0.00    +0.000 C 
ATOM      4  C   UNL     1      98.357 127.446  85.483  0.00  0.00    +0.000 C 
ATOM      5  C   UNL     1      97.595 127.000  84.244  0.00  0.00    +0.000 C 
ATOM      6  C   UNL     1      98.332 127.386  82.984  0.00  0.00    +0.000 C 
ATOM      7  O   UNL     1      98.414 126.618  82.025  0.00  0.00    +0.000 OA
ATOM      8  C   UNL     1      98.811 128.818  82.891  0.00  0.00    +0.000 C 
ENDROOT
BRANCH   2   9
ATOM      9  C   UNL     1     100.986 128.538  84.106  0.00  0.00    +0.000 C 
ATOM     10  C   UNL     1     101.777 128.368  83.032  0.00  0.00    +0.000 C 
BRANCH  10  11
ATOM     11  C   UNL     1     103.132 127.692  83.083  0.00  0.00    +0.000 C 
ATOM     12  C   UNL     1     104.025 128.158  81.920  0.00  0.00    +0.000 C 
ATOM     13  C   UNL     1     103.608 127.580  80.566  0.00  0.00    +0.000 C 
ATOM     14  C   UNL     1     103.497 126.059  80.612  0.00  0.00    +0.000 C 
ATOM     15  C   UNL     1     102.577 125.587  81.734  0.00  0.00    +0.000 C 
ATOM     16  C   UNL     1     102.997 126.161  83.087  0.00  0.00    +0.000 C 
ENDBRANCH  10  11
ENDBRANCH   2   9
TORSDOF 2
ENDMDL
