MODEL 1
REMARK VINA RESULT:      -4.3      0.000      0.000
REMARK  Name = *****
REMARK  6 active torsions:
REMARK  status: ('A' for Active; 'I' for Inactive)
REMARK    1  A    between atoms: C_1  and  C_2
REMARK    2  A    between atoms: C_2  and  C_3
REMARK    3  A    between atoms: C_2  and  N_10
REMARK    4  A    between atoms: C_3  and  C_4
REMARK    5  A    between atoms: N_10  and  C_11
REMARK    6  A    between atoms: N_10  and  C_12
REMARK                            x       y       z     vdW  Elec       q    Type
REMARK                         _______ _______ _______ _____ _____    ______ ____
ROOT
ATOM      1  C   UNL     1      89.171  73.738  83.167  0.00  0.00    +0.000 C 
ATOM      2  C   UNL     1      88.825  72.484  83.981  0.00  0.00    +0.000 C 
ENDROOT
BRANCH   2   3
ATOM      3  N   UNL     1      89.928  71.489  83.917  0.00  0.00    +0.000 N 
ATOM      4  C   UNL     1      91.230  71.924  83.417  0.00  0.00    +0.000 C 
BRANCH   3   5
ATOM      5  C   UNL     1      89.866  70.376  84.757  0.00  0.00    +0.000 A 
ATOM      6  C   UNL     1      89.740  70.530  86.149  0.00  0.00    +0.000 A 
ATOM      7  C   UNL     1      89.659  69.432  87.012  0.00  0.00    +0.000 A 
ATOM      8  C   UNL     1      89.694  68.141  86.502  0.00  0.00    +0.000 A 
ATOM      9  C   UNL     1      89.802  67.953  85.129  0.00  0.00    +0.000 A 
ATOM     10  C   UNL     1      89.881  69.058  84.271  0.00  0.00    +0.000 A 
ENDBRANCH   3   5
ENDBRANCH   2   3
BRANCH   2  11
ATOM     11  C   UNL     1      87.507  71.822  83.520  0.00  0.00    +0.000 C 
BRANCH  11  12
ATOM     12  C   UNL     1      86.353  72.027  84.473  0.00  0.00    +0.000 A 
ATOM     13  C   UNL     1      86.451  71.620  85.811  0.00  0.00    +0.000 A 
ATOM     14  C   UNL     1      85.379  71.801  86.686  0.00  0.00    +0.000 A 
ATOM     15  C   UNL     1      84.200  72.391  86.234  0.00  0.00    +0.000 A 
ATOM     16  C   UNL     1      84.092  72.801  84.907  0.00  0.00    +0.000 A 
ATOM     17  C   UNL     1      85.162  72.622  84.029  0.00  0.00    +0.000 A 
ENDBRANCH  11  12
ENDBRANCH   2  11
TORSDOF 4
ENDMDL
