REMARK  Name = *****
REMARK  7 active torsions:
REMARK  status: ('A' for Active; 'I' for Inactive)
REMARK    1  A    between atoms: C_1  and  C_2
REMARK    2  A    between atoms: C_4  and  S_8
REMARK    3  A    between atoms: C_5  and  C_7
REMARK    4  A    between atoms: S_8  and  S_9
REMARK    5  A    between atoms: S_9  and  C_10
REMARK    6  A    between atoms: C_11  and  C_16
REMARK    7  A    between atoms: C_13  and  C_15
REMARK                            x       y       z     vdW  Elec       q    Type
REMARK                         _______ _______ _______ _____ _____    ______ ____
ROOT
ATOM      1  S   UNL     1      -1.651   2.681  -2.365  0.00  0.00    +0.000 S 
ENDROOT
BRANCH   1   5
ATOM      2  C   UNL     1       1.950   0.603   1.036  0.00  0.00    +0.000 C 
ATOM      3  C   UNL     1       0.761   1.010   0.263  0.00  0.00    +0.000 A 
ATOM      4  C   UNL     1       0.568   1.853  -0.811  0.00  0.00    +0.000 A 
ATOM      5  C   UNL     1      -0.818   1.822  -1.094  0.00  0.00    +0.000 A 
ATOM      6  C   UNL     1      -1.385   0.951  -0.188  0.00  0.00    +0.000 A 
ATOM      7  O   UNL     1      -0.424   0.457   0.645  0.00  0.00    +0.000 OA
ATOM      8  C   UNL     1      -2.763   0.473   0.050  0.00  0.00    +0.000 C 
ENDBRANCH   1   5
BRANCH   1   9
ATOM      9  S   UNL     1      -0.824   4.562  -2.343  0.00  0.00    +0.000 S 
BRANCH   9  10
ATOM     10  C   UNL     1      -1.665   5.389  -1.056  0.00  0.00    +0.000 A 
ATOM     11  C   UNL     1      -1.100   6.201  -0.096  0.00  0.00    +0.000 A 
ATOM     12  O   UNL     1      -2.071   6.685   0.732  0.00  0.00    +0.000 OA
ATOM     13  C   UNL     1      -3.259   6.185   0.292  0.00  0.00    +0.000 A 
ATOM     14  C   UNL     1      -3.059   5.385  -0.813  0.00  0.00    +0.000 A 
ATOM     15  C   UNL     1      -4.458   6.591   1.050  0.00  0.00    +0.000 C 
ATOM     16  C   UNL     1       0.283   6.625   0.202  0.00  0.00    +0.000 C 
ENDBRANCH   9  10
ENDBRANCH   1   9
TORSDOF 3
