MODEL 1
REMARK VINA RESULT:      -5.0      0.000      0.000
REMARK  Name = *****
REMARK  2 active torsions:
REMARK  status: ('A' for Active; 'I' for Inactive)
REMARK    1  A    between atoms: C_5  and  C_7
REMARK    2  A    between atoms: N_9  and  C_10
REMARK                            x       y       z     vdW  Elec       q    Type
REMARK                         _______ _______ _______ _____ _____    ______ ____
ROOT
ATOM      1  C   UNL     1     102.853 125.372  82.180  0.00  0.00    +0.000 C 
ATOM      2  O   UNL     1     102.843 124.912  83.318  0.00  0.00    +0.000 OA
ATOM      3  N   UNL     1     101.977 126.322  81.691  0.00  0.00    +0.000 N 
ATOM      4  H   UNL     1     102.102 126.576  80.749  0.00  0.00    +0.000 HD
ENDROOT
BRANCH   1   9
ATOM      5  C   UNL     1     105.264 122.993  80.488  0.00  0.00    +0.000 A 
ATOM      6  C   UNL     1     105.826 123.791  79.493  0.00  0.00    +0.000 A 
ATOM      7  C   UNL     1     105.422 125.119  79.361  0.00  0.00    +0.000 A 
ATOM      8  C   UNL     1     104.458 125.641  80.224  0.00  0.00    +0.000 A 
ATOM      9  C   UNL     1     103.883 124.857  81.227  0.00  0.00    +0.000 A 
ATOM     10  C   UNL     1     104.300 123.522  81.351  0.00  0.00    +0.000 A 
ATOM     11  F   UNL     1     104.102 126.924  80.058  0.00  0.00    +0.000 F 
ENDBRANCH   1   9
BRANCH   3  12
ATOM     12  C   UNL     1     100.922 126.977  82.374  0.00  0.00    +0.000 A 
ATOM     13  C   UNL     1      99.589 126.560  82.311  0.00  0.00    +0.000 A 
ATOM     14  C   UNL     1      98.593 127.245  83.015  0.00  0.00    +0.000 A 
ATOM     15  C   UNL     1      98.912 128.358  83.790  0.00  0.00    +0.000 A 
ATOM     16  C   UNL     1     100.234 128.789  83.864  0.00  0.00    +0.000 A 
ATOM     17  C   UNL     1     101.230 128.103  83.162  0.00  0.00    +0.000 A 
ATOM     18 CL   UNL     1     102.857 128.686  83.290  0.00  0.00    +0.000 Cl
ENDBRANCH   3  12
TORSDOF 2
ENDMDL
