REMARK  Name = *****
REMARK  3 active torsions:
REMARK  status: ('A' for Active; 'I' for Inactive)
REMARK    1  A    between atoms: C_4  and  C_6
REMARK    2  A    between atoms: C_6  and  S_7
REMARK    3  A    between atoms: S_7  and  C_8
REMARK                            x       y       z     vdW  Elec       q    Type
REMARK                         _______ _______ _______ _____ _____    ______ ____
ROOT
ATOM      1  S   UNL     1      -0.895   3.645   0.812  0.00  0.00    +0.000 S 
ENDROOT
BRANCH   1   2
ATOM      2  C   UNL     1      -2.172   4.856   0.531  0.00  0.00    +0.000 A 
ATOM      3  C   UNL     1      -3.468   4.682   1.028  0.00  0.00    +0.000 A 
ATOM      4  C   UNL     1      -4.447   5.652   0.800  0.00  0.00    +0.000 A 
ATOM      5  C   UNL     1      -4.134   6.804   0.081  0.00  0.00    +0.000 A 
ATOM      6  C   UNL     1      -2.841   6.991  -0.404  0.00  0.00    +0.000 A 
ATOM      7  C   UNL     1      -1.862   6.022  -0.176  0.00  0.00    +0.000 A 
ENDBRANCH   1   2
BRANCH   1   8
ATOM      8  C   UNL     1      -1.651   2.205  -0.006  0.00  0.00    +0.000 C 
BRANCH   8  12
ATOM      9  C   UNL     1       0.995  -0.354  -0.931  0.00  0.00    +0.000 C 
ATOM     10  C   UNL     1       0.417  -0.968   0.342  0.00  0.00    +0.000 C 
ATOM     11  C   UNL     1      -0.734  -0.069   0.649  0.00  0.00    +0.000 C 
ATOM     12  C   UNL     1      -0.679   1.072  -0.053  0.00  0.00    +0.000 C 
ATOM     13  C   UNL     1       0.516   1.097  -0.959  0.00  0.00    +0.000 C 
ENDBRANCH   8  12
ENDBRANCH   1   8
TORSDOF 3
