MODEL 1
REMARK VINA RESULT:      -4.4      0.000      0.000
REMARK  Name = *****
REMARK  5 active torsions:
REMARK  status: ('A' for Active; 'I' for Inactive)
REMARK    1  A    between atoms: C_1  and  O_2
REMARK    2  A    between atoms: O_2  and  C_3
REMARK    3  A    between atoms: C_8  and  S_9
REMARK    4  A    between atoms: S_9  and  C_10
REMARK    5  A    between atoms: C_10  and  C_12
REMARK                            x       y       z     vdW  Elec       q    Type
REMARK                         _______ _______ _______ _____ _____    ______ ____
ROOT
ATOM      1  S   UNL     1      88.963  69.331  86.340  0.00  0.00    +0.000 S 
ENDROOT
BRANCH   1   7
ATOM      2  C   UNL     1      89.322  66.581  86.840  0.00  0.00    +0.000 A 
ATOM      3  C   UNL     1      88.871  65.345  87.319  0.00  0.00    +0.000 A 
ATOM      4  C   UNL     1      87.576  65.212  87.822  0.00  0.00    +0.000 A 
ATOM      5  C   UNL     1      86.726  66.313  87.863  0.00  0.00    +0.000 A 
ATOM      6  C   UNL     1      87.172  67.553  87.403  0.00  0.00    +0.000 A 
ATOM      7  C   UNL     1      88.467  67.700  86.889  0.00  0.00    +0.000 A 
BRANCH   2   9
ATOM      8  C   UNL     1      91.020  65.857  85.367  0.00  0.00    +0.000 C 
ATOM      9  O   UNL     1      90.600  66.773  86.374  0.00  0.00    +0.000 OA
ENDBRANCH   2   9
ENDBRANCH   1   7
BRANCH   1  10
ATOM     10  C   UNL     1      88.235  70.322  87.600  0.00  0.00    +0.000 C 
ATOM     11  O   UNL     1      88.789  70.467  88.685  0.00  0.00    +0.000 OA
BRANCH  10  12
ATOM     12  C   UNL     1      86.951  71.029  87.303  0.00  0.00    +0.000 A 
ATOM     13  C   UNL     1      86.055  71.463  88.291  0.00  0.00    +0.000 A 
ATOM     14  C   UNL     1      84.876  72.129  87.935  0.00  0.00    +0.000 A 
ATOM     15  C   UNL     1      84.588  72.369  86.593  0.00  0.00    +0.000 A 
ATOM     16  C   UNL     1      85.470  71.951  85.601  0.00  0.00    +0.000 A 
ATOM     17  C   UNL     1      86.649  71.286  85.955  0.00  0.00    +0.000 A 
ATOM     18 CL   UNL     1      83.140  73.189  86.162  0.00  0.00    +0.000 Cl
ENDBRANCH  10  12
ENDBRANCH   1  10
TORSDOF 4
ENDMDL
