MODEL 1
REMARK VINA RESULT:      -4.1      0.000      0.000
REMARK  Name = *****
REMARK  4 active torsions:
REMARK  status: ('A' for Active; 'I' for Inactive)
REMARK    1  A    between atoms: C_4  and  C_6
REMARK    2  A    between atoms: C_6  and  C_7
REMARK    3  A    between atoms: C_7  and  C_8
REMARK    4  A    between atoms: C_8  and  C_9
REMARK                            x       y       z     vdW  Elec       q    Type
REMARK                         _______ _______ _______ _____ _____    ______ ____
ROOT
ATOM      1  C   UNL     1     103.649 128.318  82.189  0.00  0.00    +0.000 C 
ENDROOT
BRANCH   1   2
ATOM      2  C   UNL     1     103.608 127.706  80.786  0.00  0.00    +0.000 C 
BRANCH   2   6
ATOM      3  C   UNL     1     104.570 123.997  80.457  0.00  0.00    +0.000 C 
ATOM      4  C   UNL     1     106.019 124.461  80.589  0.00  0.00    +0.000 C 
ATOM      5  S   UNL     1     105.943 126.173  81.206  0.00  0.00    +0.000 S 
ATOM      6  C   UNL     1     104.282 126.368  80.728  0.00  0.00    +0.000 C 
ATOM      7  C   UNL     1     103.698 125.212  80.387  0.00  0.00    +0.000 C 
ENDBRANCH   2   6
ENDBRANCH   1   2
BRANCH   1   8
ATOM      8  C   UNL     1     102.873 127.456  83.187  0.00  0.00    +0.000 C 
BRANCH   8   9
ATOM      9  C   UNL     1     101.385 127.663  83.061  0.00  0.00    +0.000 A 
ATOM     10  C   UNL     1     100.786 128.834  83.544  0.00  0.00    +0.000 A 
ATOM     11  C   UNL     1      99.405 129.017  83.443  0.00  0.00    +0.000 A 
ATOM     12  C   UNL     1      98.611 128.030  82.862  0.00  0.00    +0.000 A 
ATOM     13  C   UNL     1      99.196 126.858  82.385  0.00  0.00    +0.000 A 
ATOM     14  C   UNL     1     100.576 126.673  82.486  0.00  0.00    +0.000 A 
ENDBRANCH   8   9
ENDBRANCH   1   8
TORSDOF 4
ENDMDL
