MODEL 1
REMARK VINA RESULT:      -4.7      0.000      0.000
REMARK  Name = *****
REMARK  4 active torsions:
REMARK  status: ('A' for Active; 'I' for Inactive)
REMARK    1  A    between atoms: C_4  and  C_7
REMARK    2  A    between atoms: C_8  and  C_9
REMARK    3  A    between atoms: C_12  and  C_15
REMARK    4  A    between atoms: C_15  and  N_17
REMARK                            x       y       z     vdW  Elec       q    Type
REMARK                         _______ _______ _______ _____ _____    ______ ____
ROOT
ATOM      1  C   UNL     1     103.808 124.591  81.732  0.00  0.00    +0.000 A 
ATOM      2  C   UNL     1     104.354 123.751  82.706  0.00  0.00    +0.000 A 
ATOM      3  C   UNL     1     105.393 122.876  82.376  0.00  0.00    +0.000 A 
ATOM      4  C   UNL     1     105.892 122.839  81.067  0.00  0.00    +0.000 A 
ATOM      5  C   UNL     1     105.339 123.682  80.093  0.00  0.00    +0.000 A 
ATOM      6  C   UNL     1     104.299 124.555  80.426  0.00  0.00    +0.000 A 
ENDROOT
BRANCH   1   8
ATOM      7  C   UNL     1     101.857 126.243  82.359  0.00  0.00    +0.000 C 
ATOM      8  C   UNL     1     102.747 125.487  82.074  0.00  0.00    +0.000 C 
BRANCH   7  12
ATOM      9  C   UNL     1      98.743 128.915  83.357  0.00  0.00    +0.000 A 
ATOM     10  C   UNL     1      98.451 127.718  82.704  0.00  0.00    +0.000 A 
ATOM     11  C   UNL     1      99.480 126.833  82.375  0.00  0.00    +0.000 A 
ATOM     12  C   UNL     1     100.802 127.147  82.698  0.00  0.00    +0.000 A 
ATOM     13  C   UNL     1     101.092 128.347  83.351  0.00  0.00    +0.000 A 
ATOM     14  C   UNL     1     100.063 129.231  83.680  0.00  0.00    +0.000 A 
ENDBRANCH   7  12
ENDBRANCH   1   8
BRANCH   4  15
ATOM     15  C   UNL     1     107.002 121.924  80.701  0.00  0.00    +0.000 C 
ATOM     16  S   UNL     1     107.279 120.424  81.379  0.00  0.00    +0.000 S 
BRANCH  15  17
ATOM     17  N   UNL     1     107.858 122.376  79.728  0.00  0.00    +0.000 N 
ATOM     18  H   UNL     1     108.244 123.280  79.793  0.00  0.00    +0.000 HD
ATOM     19  H   UNL     1     108.086 121.797  78.966  0.00  0.00    +0.000 HD
ENDBRANCH  15  17
ENDBRANCH   4  15
TORSDOF 4
ENDMDL
