MODEL 1
REMARK VINA RESULT:      -5.1      0.000      0.000
REMARK  Name = *****
REMARK  2 active torsions:
REMARK  status: ('A' for Active; 'I' for Inactive)
REMARK    1  A    between atoms: C_6  and  C_7
REMARK    2  A    between atoms: C_8  and  C_9
REMARK                            x       y       z     vdW  Elec       q    Type
REMARK                         _______ _______ _______ _____ _____    ______ ____
ROOT
ATOM      1  C   UNL     1     102.892 126.164  81.555  0.00  0.00    +0.000 C 
ATOM      2  C   UNL     1     101.889 126.078  82.445  0.00  0.00    +0.000 C 
ENDROOT
BRANCH   2   3
ATOM      3  C   UNL     1     100.957 127.172  82.769  0.00  0.00    +0.000 A 
ATOM      4  C   UNL     1      99.596 127.033  82.451  0.00  0.00    +0.000 A 
ATOM      5  C   UNL     1      98.666 128.027  82.759  0.00  0.00    +0.000 A 
ATOM      6  C   UNL     1      99.086 129.184  83.409  0.00  0.00    +0.000 A 
ATOM      7  C   UNL     1     100.428 129.325  83.745  0.00  0.00    +0.000 A 
ATOM      8  C   UNL     1     101.360 128.334  83.440  0.00  0.00    +0.000 A 
ATOM      9  F   UNL     1     100.832 130.432  84.383  0.00  0.00    +0.000 F 
ATOM     10  F   UNL     1      99.158 125.926  81.832  0.00  0.00    +0.000 F 
ENDBRANCH   2   3
BRANCH   1  16
ATOM     11  C   UNL     1     104.475 124.963  80.008  0.00  0.00    +0.000 A 
ATOM     12  C   UNL     1     105.301 123.871  79.730  0.00  0.00    +0.000 A 
ATOM     13  C   UNL     1     105.443 122.861  80.673  0.00  0.00    +0.000 A 
ATOM     14  C   UNL     1     104.771 122.918  81.887  0.00  0.00    +0.000 A 
ATOM     15  C   UNL     1     103.945 124.010  82.166  0.00  0.00    +0.000 A 
ATOM     16  C   UNL     1     103.799 125.050  81.235  0.00  0.00    +0.000 A 
ATOM     17  F   UNL     1     106.233 121.813  80.405  0.00  0.00    +0.000 F 
ENDBRANCH   1  16
TORSDOF 2
ENDMDL
