MODEL 1
REMARK VINA RESULT:      -3.4      0.000      0.000
REMARK  Name = *****
REMARK  0 active torsions:
REMARK  status: ('A' for Active; 'I' for Inactive)
REMARK                            x       y       z     vdW  Elec       q    Type
REMARK                         _______ _______ _______ _____ _____    ______ ____
ROOT
ATOM      1  C   UNL     1      84.144  62.256  89.618  0.00  0.00    +0.000 C 
ATOM      2  C   UNL     1      85.394  61.410  89.741  0.00  0.00    +0.000 C 
ATOM      3  S   UNL     1      86.610  62.067  88.566  0.00  0.00    +0.000 S 
ATOM      4  C   UNL     1      86.165  63.764  88.752  0.00  0.00    +0.000 C 
ATOM      5  C   UNL     1      86.905  64.788  88.255  0.00  0.00    +0.000 C 
ATOM      6  S   UNL     1      88.409  64.529  87.360  0.00  0.00    +0.000 S 
ATOM      7  C   UNL     1      88.739  66.245  87.062  0.00  0.00    +0.000 A 
ATOM      8  C   UNL     1      89.854  66.692  86.357  0.00  0.00    +0.000 A 
ATOM      9  C   UNL     1      90.042  68.062  86.164  0.00  0.00    +0.000 A 
ATOM     10  C   UNL     1      89.118  68.976  86.676  0.00  0.00    +0.000 A 
ATOM     11  C   UNL     1      88.002  68.525  87.382  0.00  0.00    +0.000 A 
ATOM     12  C   UNL     1      87.817  67.157  87.573  0.00  0.00    +0.000 A 
ATOM     13  S   UNL     1      86.435  66.482  88.454  0.00  0.00    +0.000 S 
ATOM     14  S   UNL     1      84.663  63.993  89.646  0.00  0.00    +0.000 S 
ENDROOT
TORSDOF 0
ENDMDL
