MODEL 1
REMARK VINA RESULT:      -3.9      0.000      0.000
REMARK  Name = *****
REMARK  3 active torsions:
REMARK  status: ('A' for Active; 'I' for Inactive)
REMARK    1  A    between atoms: C_4  and  C_7
REMARK    2  A    between atoms: C_8  and  C_9
REMARK    3  A    between atoms: C_9  and  C_11
REMARK                            x       y       z     vdW  Elec       q    Type
REMARK                         _______ _______ _______ _____ _____    ______ ____
ROOT
ATOM      1  C   UNL     1      89.356  69.920  86.987  0.00  0.00    +0.000 C 
ATOM      2  C   UNL     1      89.615  68.658  86.612  0.00  0.00    +0.000 C 
ENDROOT
BRANCH   1   6
ATOM      3  C   UNL     1      85.556  71.841  87.143  0.00  0.00    +0.000 A 
ATOM      4  C   UNL     1      86.181  71.444  88.323  0.00  0.00    +0.000 A 
ATOM      5  C   UNL     1      87.424  70.808  88.277  0.00  0.00    +0.000 A 
ATOM      6  C   UNL     1      88.044  70.563  87.048  0.00  0.00    +0.000 A 
ATOM      7  C   UNL     1      87.410  70.963  85.865  0.00  0.00    +0.000 A 
ATOM      8  C   UNL     1      86.169  71.600  85.913  0.00  0.00    +0.000 A 
ENDBRANCH   1   6
BRANCH   2   9
ATOM      9  C   UNL     1      88.599  67.625  86.230  0.00  0.00    +0.000 C 
ATOM     10  O   UNL     1      88.234  67.539  85.059  0.00  0.00    +0.000 OA
BRANCH   9  11
ATOM     11  C   UNL     1      88.003  66.794  87.275  0.00  0.00    +0.000 A 
ATOM     12  C   UNL     1      86.963  67.162  88.113  0.00  0.00    +0.000 A 
ATOM     13  C   UNL     1      86.593  66.132  89.024  0.00  0.00    +0.000 A 
ATOM     14  C   UNL     1      87.352  64.998  88.848  0.00  0.00    +0.000 A 
ATOM     15  S   UNL     1      88.493  65.182  87.590  0.00  0.00    +0.000 S 
ENDBRANCH   9  11
ENDBRANCH   2   9
TORSDOF 3
ENDMDL
