MODEL 1
REMARK VINA RESULT:      -4.9      0.000      0.000
REMARK  Name = *****
REMARK  4 active torsions:
REMARK  status: ('A' for Active; 'I' for Inactive)
REMARK    1  A    between atoms: C_4  and  C_7
REMARK    2  A    between atoms: C_7  and  C_8
REMARK    3  A    between atoms: C_8  and  C_9
REMARK    4  A    between atoms: C_9  and  C_11
REMARK                            x       y       z     vdW  Elec       q    Type
REMARK                         _______ _______ _______ _____ _____    ______ ____
ROOT
ATOM      1  C   UNL     1     104.179 125.095  83.037  0.00  0.00    +0.000 C 
ATOM      2  O   UNL     1     105.180 125.783  83.221  0.00  0.00    +0.000 OA
ENDROOT
BRANCH   1   3
ATOM      3  C   UNL     1     104.364 123.715  82.543  0.00  0.00    +0.000 A 
ATOM      4  C   UNL     1     104.535 123.403  81.188  0.00  0.00    +0.000 A 
ATOM      5  C   UNL     1     104.698 122.071  80.802  0.00  0.00    +0.000 A 
ATOM      6  C   UNL     1     104.700 121.069  81.767  0.00  0.00    +0.000 A 
ATOM      7  C   UNL     1     104.552 121.369  83.116  0.00  0.00    +0.000 A 
ATOM      8  C   UNL     1     104.389 122.697  83.509  0.00  0.00    +0.000 A 
ATOM      9  F   UNL     1     104.858 119.794  81.392  0.00  0.00    +0.000 F 
ATOM     10 CL   UNL     1     104.602 124.603  79.953  0.00  0.00    +0.000 Cl
ENDBRANCH   1   3
BRANCH   1  11
ATOM     11  C   UNL     1     102.786 125.504  83.478  0.00  0.00    +0.000 C 
BRANCH  11  12
ATOM     12  C   UNL     1     101.896 125.923  82.307  0.00  0.00    +0.000 C 
BRANCH  12  16
ATOM     13  C   UNL     1      99.042 128.984  83.343  0.00  0.00    +0.000 A 
ATOM     14  C   UNL     1     100.388 129.151  83.658  0.00  0.00    +0.000 A 
ATOM     15  C   UNL     1     101.312 128.158  83.330  0.00  0.00    +0.000 A 
ATOM     16  C   UNL     1     100.895 126.986  82.684  0.00  0.00    +0.000 A 
ATOM     17  C   UNL     1      99.538 126.829  82.370  0.00  0.00    +0.000 A 
ATOM     18  C   UNL     1      98.617 127.824  82.700  0.00  0.00    +0.000 A 
ENDBRANCH  12  16
ENDBRANCH  11  12
ENDBRANCH   1  11
TORSDOF 4
ENDMDL
