MODEL 1
REMARK VINA RESULT:      -4.5      0.000      0.000
REMARK  Name = *****
REMARK  0 active torsions:
REMARK  status: ('A' for Active; 'I' for Inactive)
REMARK                            x       y       z     vdW  Elec       q    Type
REMARK                         _______ _______ _______ _____ _____    ______ ____
ROOT
ATOM      1  C   UNL     1     104.688 123.889  80.512  0.00  0.00    +0.000 A 
ATOM      2  C   UNL     1     104.992 123.251  81.712  0.00  0.00    +0.000 A 
ATOM      3  C   UNL     1     104.424 123.702  82.907  0.00  0.00    +0.000 A 
ATOM      4  C   UNL     1     103.542 124.796  82.925  0.00  0.00    +0.000 A 
ATOM      5  C   UNL     1     103.225 125.409  81.701  0.00  0.00    +0.000 A 
ATOM      6  C   UNL     1     103.810 124.970  80.508  0.00  0.00    +0.000 A 
ATOM      7  O   UNL     1     102.385 126.491  81.580  0.00  0.00    +0.000 OA
ATOM      8  O   UNL     1     101.109 126.096  82.163  0.00  0.00    +0.000 OA
ATOM      9  C   UNL     1     100.644 127.183  82.863  0.00  0.00    +0.000 A 
ATOM     10  C   UNL     1      99.360 127.616  82.511  0.00  0.00    +0.000 A 
ATOM     11  C   UNL     1      98.781 128.702  83.163  0.00  0.00    +0.000 A 
ATOM     12  C   UNL     1      99.481 129.351  84.176  0.00  0.00    +0.000 A 
ATOM     13  C   UNL     1     100.755 128.908  84.541  0.00  0.00    +0.000 A 
ATOM     14  C   UNL     1     101.353 127.809  83.901  0.00  0.00    +0.000 A 
ATOM     15  S   UNL     1     102.976 127.334  84.492  0.00  0.00    +0.000 S 
ATOM     16  S   UNL     1     102.914 125.282  84.531  0.00  0.00    +0.000 S 
ENDROOT
TORSDOF 0
ENDMDL
