MODEL 1
REMARK VINA RESULT:      -4.6      0.000      0.000
REMARK  Name = *****
REMARK  5 active torsions:
REMARK  status: ('A' for Active; 'I' for Inactive)
REMARK    1  A    between atoms: C_1  and  O_2
REMARK    2  A    between atoms: O_2  and  C_3
REMARK    3  A    between atoms: C_6  and  C_9
REMARK    4  A    between atoms: C_10  and  C_11
REMARK    5  A    between atoms: C_14  and  C_16
REMARK                            x       y       z     vdW  Elec       q    Type
REMARK                         _______ _______ _______ _____ _____    ______ ____
ROOT
ATOM      1  C   UNL     1      88.586  68.351  85.568  0.00  0.00    +0.000 C 
ATOM      2  C   UNL     1      89.547  67.571  86.087  0.00  0.00    +0.000 C 
ENDROOT
BRANCH   1   6
ATOM      3  C   UNL     1      89.370  72.335  84.184  0.00  0.00    +0.000 A 
ATOM      4  C   UNL     1      88.066  71.958  84.501  0.00  0.00    +0.000 A 
ATOM      5  C   UNL     1      87.797  70.657  84.947  0.00  0.00    +0.000 A 
ATOM      6  C   UNL     1      88.825  69.714  85.072  0.00  0.00    +0.000 A 
ATOM      7  C   UNL     1      90.133  70.105  84.768  0.00  0.00    +0.000 A 
ATOM      8  C   UNL     1      90.400  71.403  84.323  0.00  0.00    +0.000 A 
BRANCH   3  10
ATOM      9  C   UNL     1      91.001  73.627  83.034  0.00  0.00    +0.000 C 
ATOM     10  O   UNL     1      89.768  73.565  83.741  0.00  0.00    +0.000 OA
ENDBRANCH   3  10
ENDBRANCH   1   6
BRANCH   2  11
ATOM     11  C   UNL     1      89.273  66.260  86.560  0.00  0.00    +0.000 A 
ATOM     12  N   UNL     1      89.625  65.131  85.965  0.00  0.00    +0.000 NA
ATOM     13  N   UNL     1      89.173  64.081  86.731  0.00  0.00    +0.000 NA
ATOM     14  C   UNL     1      88.559  64.611  87.769  0.00  0.00    +0.000 A 
ATOM     15  O   UNL     1      88.583  65.985  87.729  0.00  0.00    +0.000 OA
BRANCH  14  16
ATOM     16  C   UNL     1      87.877  63.962  88.928  0.00  0.00    +0.000 C 
ATOM     17 CL   UNL     1      87.153  62.387  88.475  0.00  0.00    +0.000 Cl
ATOM     18 CL   UNL     1      89.054  63.678  90.253  0.00  0.00    +0.000 Cl
ATOM     19 CL   UNL     1      86.565  65.021  89.545  0.00  0.00    +0.000 Cl
ENDBRANCH  14  16
ENDBRANCH   2  11
TORSDOF 4
ENDMDL
