MODEL 1
REMARK VINA RESULT:      -4.8      0.000      0.000
REMARK  Name = *****
REMARK  3 active torsions:
REMARK  status: ('A' for Active; 'I' for Inactive)
REMARK    1  A    between atoms: C_1  and  C_2
REMARK    2  A    between atoms: C_7  and  C_8
REMARK    3  A    between atoms: C_9  and  C_10
REMARK                            x       y       z     vdW  Elec       q    Type
REMARK                         _______ _______ _______ _____ _____    ______ ____
ROOT
ATOM      1  C   UNL     1     101.950 126.183  82.452  0.00  0.00    +0.000 C 
ATOM      2  C   UNL     1     102.814 125.384  82.209  0.00  0.00    +0.000 C 
ENDROOT
BRANCH   1   9
ATOM      3  C   UNL     1     102.614 128.743  83.742  0.00  0.00    +0.000 C 
ATOM      4  C   UNL     1     101.210 128.365  83.358  0.00  0.00    +0.000 A 
ATOM      5  C   UNL     1     100.158 129.258  83.619  0.00  0.00    +0.000 A 
ATOM      6  C   UNL     1      98.845 128.934  83.274  0.00  0.00    +0.000 A 
ATOM      7  C   UNL     1      98.566 127.715  82.663  0.00  0.00    +0.000 A 
ATOM      8  C   UNL     1      99.600 126.818  82.398  0.00  0.00    +0.000 A 
ATOM      9  C   UNL     1     100.920 127.136  82.742  0.00  0.00    +0.000 A 
ENDBRANCH   1   9
BRANCH   2  10
ATOM     10  C   UNL     1     103.845 124.433  81.927  0.00  0.00    +0.000 A 
ATOM     11  C   UNL     1     104.380 123.656  82.958  0.00  0.00    +0.000 A 
ATOM     12  C   UNL     1     105.387 122.727  82.684  0.00  0.00    +0.000 A 
ATOM     13  C   UNL     1     105.854 122.580  81.379  0.00  0.00    +0.000 A 
ATOM     14  C   UNL     1     105.324 123.352  80.345  0.00  0.00    +0.000 A 
ATOM     15  C   UNL     1     104.316 124.280  80.621  0.00  0.00    +0.000 A 
ATOM     16 BR   UNL     1     107.217 121.324  81.006  0.00  0.00    +0.000 Br
ENDBRANCH   2  10
TORSDOF 2
ENDMDL
