REMARK  Name = *****
REMARK  2 active torsions:
REMARK  status: ('A' for Active; 'I' for Inactive)
REMARK    1  A    between atoms: C_3  and  S_11
REMARK    2  A    between atoms: S_11  and  C_12
REMARK                            x       y       z     vdW  Elec       q    Type
REMARK                         _______ _______ _______ _____ _____    ______ ____
ROOT
ATOM      1  C   UNL     1       1.529   1.125   0.009  0.00  0.00    +0.000 C 
ATOM      2  C   UNL     1       2.523   0.062  -0.476  0.00  0.00    +0.000 C 
ATOM      3  C   UNL     1       2.211  -1.320   0.053  0.00  0.00    +0.000 C 
ATOM      4  C   UNL     1       0.956  -1.671   0.386  0.00  0.00    +0.000 C 
ATOM      5  C   UNL     1      -0.158  -0.732   0.204  0.00  0.00    +0.000 A 
ATOM      6  C   UNL     1      -1.481  -1.182   0.259  0.00  0.00    +0.000 A 
ATOM      7  C   UNL     1      -2.537  -0.283   0.098  0.00  0.00    +0.000 A 
ATOM      8  C   UNL     1      -2.276   1.071  -0.109  0.00  0.00    +0.000 A 
ATOM      9  C   UNL     1      -0.960   1.531  -0.154  0.00  0.00    +0.000 A 
ATOM     10  C   UNL     1       0.104   0.633  -0.008  0.00  0.00    +0.000 A 
ENDROOT
BRANCH   3  11
ATOM     11  S   UNL     1       3.507  -2.465   0.278  0.00  0.00    +0.000 S 
BRANCH  11  12
ATOM     12  C   UNL     1       4.179  -2.495  -1.375  0.00  0.00    +0.000 A 
ATOM     13  C   UNL     1       3.422  -2.963  -2.454  0.00  0.00    +0.000 A 
ATOM     14  C   UNL     1       3.967  -2.987  -3.740  0.00  0.00    +0.000 A 
ATOM     15  C   UNL     1       5.274  -2.551  -3.952  0.00  0.00    +0.000 A 
ATOM     16  C   UNL     1       6.038  -2.094  -2.879  0.00  0.00    +0.000 A 
ATOM     17  C   UNL     1       5.493  -2.069  -1.593  0.00  0.00    +0.000 A 
ENDBRANCH  11  12
ENDBRANCH   3  11
TORSDOF 2
