MODEL 1
REMARK VINA RESULT:      -4.5      0.000      0.000
REMARK  Name = *****
REMARK  4 active torsions:
REMARK  status: ('A' for Active; 'I' for Inactive)
REMARK    1  A    between atoms: C_4  and  C_7
REMARK    2  A    between atoms: C_7  and  C_8
REMARK    3  A    between atoms: C_8  and  O_9
REMARK    4  A    between atoms: O_9  and  C_10
REMARK                            x       y       z     vdW  Elec       q    Type
REMARK                         _______ _______ _______ _____ _____    ______ ____
ROOT
ATOM      1  C   UNL     1     102.927 125.992  82.240  0.00  0.00    +0.000 C 
ENDROOT
BRANCH   1   2
ATOM      2  C   UNL     1     103.363 126.179  80.788  0.00  0.00    +0.000 C 
BRANCH   2   6
ATOM      3  C   UNL     1     106.406 123.112  80.043  0.00  0.00    +0.000 C 
ATOM      4  C   UNL     1     105.080 122.663  80.646  0.00  0.00    +0.000 C 
ATOM      5  C   UNL     1     104.293 123.838  81.225  0.00  0.00    +0.000 C 
ATOM      6  C   UNL     1     104.080 124.955  80.190  0.00  0.00    +0.000 C 
ATOM      7  C   UNL     1     105.426 125.389  79.583  0.00  0.00    +0.000 C 
ATOM      8  C   UNL     1     106.201 124.209  79.005  0.00  0.00    +0.000 C 
ENDBRANCH   2   6
ENDBRANCH   1   2
BRANCH   1   9
ATOM      9  O   UNL     1     101.505 125.856  82.252  0.00  0.00    +0.000 OA
BRANCH   9  10
ATOM     10  C   UNL     1     100.779 126.942  82.656  0.00  0.00    +0.000 A 
ATOM     11  C   UNL     1     101.279 128.070  83.310  0.00  0.00    +0.000 A 
ATOM     12  C   UNL     1     100.419 129.112  83.669  0.00  0.00    +0.000 A 
ATOM     13  C   UNL     1      99.058 129.033  83.378  0.00  0.00    +0.000 A 
ATOM     14  C   UNL     1      98.554 127.909  82.727  0.00  0.00    +0.000 A 
ATOM     15  C   UNL     1      99.413 126.869  82.370  0.00  0.00    +0.000 A 
ENDBRANCH   9  10
ENDBRANCH   1   9
TORSDOF 4
ENDMDL
