MODEL 1
REMARK VINA RESULT:      -5.4      0.000      0.000
REMARK  Name = *****
REMARK  2 active torsions:
REMARK  status: ('A' for Active; 'I' for Inactive)
REMARK    1  A    between atoms: C_1  and  C_2
REMARK    2  A    between atoms: C_4  and  C_8
REMARK                            x       y       z     vdW  Elec       q    Type
REMARK                         _______ _______ _______ _____ _____    ______ ____
ROOT
ATOM      1  C   UNL     1     103.208 126.518  81.569  0.00  0.00    +0.000 C 
ATOM      2  C   UNL     1     101.940 126.190  81.868  0.00  0.00    +0.000 C 
ATOM      3  C   UNL     1     100.990 127.106  82.515  0.00  0.00    +0.000 A 
ATOM      4  C   UNL     1      99.619 126.822  82.465  0.00  0.00    +0.000 A 
ATOM      5  C   UNL     1      98.695 127.670  83.080  0.00  0.00    +0.000 A 
ATOM      6  C   UNL     1      99.136 128.803  83.758  0.00  0.00    +0.000 A 
ATOM      7  C   UNL     1     100.499 129.090  83.824  0.00  0.00    +0.000 A 
ATOM      8  C   UNL     1     101.437 128.252  83.197  0.00  0.00    +0.000 A 
ATOM      9  C   UNL     1     102.909 128.539  83.343  0.00  0.00    +0.000 C 
ATOM     10  S   UNL     1     103.890 128.076  81.890  0.00  0.00    +0.000 S 
ENDROOT
BRANCH   1  14
ATOM     11  C   UNL     1     104.807 121.807  80.932  0.00  0.00    +0.000 C 
ATOM     12  C   UNL     1     104.866 123.261  80.571  0.00  0.00    +0.000 A 
ATOM     13  C   UNL     1     104.022 124.185  81.205  0.00  0.00    +0.000 A 
ATOM     14  C   UNL     1     104.087 125.551  80.893  0.00  0.00    +0.000 A 
ATOM     15  C   UNL     1     105.023 125.991  79.948  0.00  0.00    +0.000 A 
ATOM     16  C   UNL     1     105.877 125.080  79.324  0.00  0.00    +0.000 A 
ATOM     17  C   UNL     1     105.802 123.723  79.639  0.00  0.00    +0.000 A 
ENDBRANCH   1  14
TORSDOF 1
ENDMDL
