MODEL 1
REMARK VINA RESULT:      -4.7      0.000      0.000
REMARK  Name = *****
REMARK  6 active torsions:
REMARK  status: ('A' for Active; 'I' for Inactive)
REMARK    1  A    between atoms: C_1  and  C_2
REMARK    2  A    between atoms: C_5  and  C_8
REMARK    3  A    between atoms: C_8  and  S_10
REMARK    4  A    between atoms: S_10  and  C_11
REMARK    5  A    between atoms: C_15  and  O_17
REMARK    6  A    between atoms: O_17  and  C_18
REMARK                            x       y       z     vdW  Elec       q    Type
REMARK                         _______ _______ _______ _____ _____    ______ ____
ROOT
ATOM      1  C   UNL     1      87.830  70.693  85.672  0.00  0.00    +0.000 C 
ATOM      2  O   UNL     1      87.804  70.444  84.472  0.00  0.00    +0.000 OA
ENDROOT
BRANCH   1   7
ATOM      3  C   UNL     1      83.105  73.049  88.115  0.00  0.00    +0.000 C 
ATOM      4  C   UNL     1      84.320  72.414  87.503  0.00  0.00    +0.000 A 
ATOM      5  C   UNL     1      85.327  71.881  88.315  0.00  0.00    +0.000 A 
ATOM      6  C   UNL     1      86.475  71.314  87.749  0.00  0.00    +0.000 A 
ATOM      7  C   UNL     1      86.639  71.280  86.358  0.00  0.00    +0.000 A 
ATOM      8  C   UNL     1      85.635  71.833  85.549  0.00  0.00    +0.000 A 
ATOM      9  C   UNL     1      84.488  72.399  86.115  0.00  0.00    +0.000 A 
ENDBRANCH   1   7
BRANCH   1  10
ATOM     10  S   UNL     1      89.259  70.319  86.632  0.00  0.00    +0.000 S 
BRANCH  10  11
ATOM     11  C   UNL     1      89.182  68.539  86.649  0.00  0.00    +0.000 A 
ATOM     12  C   UNL     1      88.118  67.866  87.254  0.00  0.00    +0.000 A 
ATOM     13  C   UNL     1      88.088  66.470  87.270  0.00  0.00    +0.000 A 
ATOM     14  C   UNL     1      89.127  65.737  86.690  0.00  0.00    +0.000 A 
ATOM     15  C   UNL     1      90.200  66.400  86.094  0.00  0.00    +0.000 A 
ATOM     16  C   UNL     1      90.223  67.799  86.079  0.00  0.00    +0.000 A 
BRANCH  15  17
ATOM     17  O   UNL     1      91.279  65.806  85.497  0.00  0.00    +0.000 OA
ATOM     18  C   UNL     1      91.222  64.396  85.323  0.00  0.00    +0.000 C 
ENDBRANCH  15  17
ENDBRANCH  10  11
ENDBRANCH   1  10
TORSDOF 4
ENDMDL
