MODEL 1
REMARK VINA RESULT:      -4.6      0.000      0.000
REMARK  Name = *****
REMARK  6 active torsions:
REMARK  status: ('A' for Active; 'I' for Inactive)
REMARK    1  A    between atoms: C_1  and  C_2
REMARK    2  A    between atoms: C_5  and  C_8
REMARK    3  A    between atoms: C_8  and  C_9
REMARK    4  A    between atoms: C_9  and  C_11
REMARK    5  A    between atoms: C_11  and  C_12
REMARK    6  A    between atoms: C_15  and  C_18
REMARK                            x       y       z     vdW  Elec       q    Type
REMARK                         _______ _______ _______ _____ _____    ______ ____
ROOT
ATOM      1  C   UNL     1      89.631  67.977  86.281  0.00  0.00    +0.000 C 
ATOM      2  O   UNL     1      90.686  67.392  86.527  0.00  0.00    +0.000 OA
ENDROOT
BRANCH   1   3
ATOM      3  C   UNL     1      89.522  69.489  86.137  0.00  0.00    +0.000 C 
BRANCH   3   8
ATOM      4  C   UNL     1      85.695  71.994  89.746  0.00  0.00    +0.000 C 
ATOM      5  C   UNL     1      86.669  71.328  88.823  0.00  0.00    +0.000 A 
ATOM      6  C   UNL     1      87.868  70.799  89.314  0.00  0.00    +0.000 A 
ATOM      7  C   UNL     1      88.789  70.202  88.450  0.00  0.00    +0.000 A 
ATOM      8  C   UNL     1      88.533  70.138  87.074  0.00  0.00    +0.000 A 
ATOM      9  C   UNL     1      87.334  70.671  86.582  0.00  0.00    +0.000 A 
ATOM     10  C   UNL     1      86.415  71.268  87.448  0.00  0.00    +0.000 A 
ENDBRANCH   3   8
ENDBRANCH   1   3
BRANCH   1  11
ATOM     11  C   UNL     1      88.356  67.187  86.042  0.00  0.00    +0.000 C 
BRANCH  11  12
ATOM     12  C   UNL     1      87.856  66.492  87.282  0.00  0.00    +0.000 A 
ATOM     13  C   UNL     1      86.835  67.056  88.056  0.00  0.00    +0.000 A 
ATOM     14  C   UNL     1      86.383  66.411  89.210  0.00  0.00    +0.000 A 
ATOM     15  C   UNL     1      86.934  65.187  89.602  0.00  0.00    +0.000 A 
ATOM     16  C   UNL     1      87.962  64.628  88.835  0.00  0.00    +0.000 A 
ATOM     17  C   UNL     1      88.415  65.271  87.681  0.00  0.00    +0.000 A 
ATOM     18  C   UNL     1      86.472  64.512  90.859  0.00  0.00    +0.000 C 
ENDBRANCH  11  12
ENDBRANCH   1  11
TORSDOF 4
ENDMDL
