MODEL 1
REMARK VINA RESULT:      -4.2      0.000      0.000
REMARK  Name = *****
REMARK  3 active torsions:
REMARK  status: ('A' for Active; 'I' for Inactive)
REMARK    1  A    between atoms: C_4  and  C_8
REMARK    2  A    between atoms: C_8  and  O_9
REMARK    3  A    between atoms: O_9  and  C_10
REMARK                            x       y       z     vdW  Elec       q    Type
REMARK                         _______ _______ _______ _____ _____    ______ ____
ROOT
ATOM      1  C   UNL     1     102.772 125.609  83.209  0.00  0.00    +0.000 C 
ENDROOT
BRANCH   1   5
ATOM      2  C   UNL     1     103.395 126.705  80.284  0.00  0.00    +0.000 C 
ATOM      3  C   UNL     1     104.854 127.002  80.638  0.00  0.00    +0.000 C 
ATOM      4  C   UNL     1     104.866 126.671  82.147  0.00  0.00    +0.000 C 
ATOM      5  C   UNL     1     103.936 125.417  82.234  0.00  0.00    +0.000 C 
ATOM      6  C   UNL     1     103.470 125.251  80.765  0.00  0.00    +0.000 C 
ATOM      7  C   UNL     1     104.676 124.812  79.964  0.00  0.00    +0.000 C 
ATOM      8  C   UNL     1     105.511 125.860  79.897  0.00  0.00    +0.000 C 
ENDBRANCH   1   5
BRANCH   1   9
ATOM      9  O   UNL     1     102.602 127.010  83.431  0.00  0.00    +0.000 OA
BRANCH   9  10
ATOM     10  C   UNL     1     101.340 127.515  83.287  0.00  0.00    +0.000 A 
ATOM     11  C   UNL     1     100.900 128.767  83.721  0.00  0.00    +0.000 A 
ATOM     12  C   UNL     1      99.574 129.158  83.505  0.00  0.00    +0.000 A 
ATOM     13  C   UNL     1      98.685 128.304  82.856  0.00  0.00    +0.000 A 
ATOM     14  C   UNL     1      99.119 127.055  82.420  0.00  0.00    +0.000 A 
ATOM     15  C   UNL     1     100.443 126.665  82.635  0.00  0.00    +0.000 A 
ENDBRANCH   9  10
ENDBRANCH   1   9
TORSDOF 3
ENDMDL
