MODEL 1
REMARK VINA RESULT:      -4.4      0.000      0.000
REMARK  Name = *****
REMARK  3 active torsions:
REMARK  status: ('A' for Active; 'I' for Inactive)
REMARK    1  A    between atoms: C_4  and  C_7
REMARK    2  A    between atoms: C_7  and  S_8
REMARK    3  A    between atoms: S_8  and  C_10
REMARK                            x       y       z     vdW  Elec       q    Type
REMARK                         _______ _______ _______ _____ _____    ______ ____
ROOT
ATOM      1  S   UNL     1     103.437 127.468  81.350  0.00  0.00    +0.000 S 
ATOM      2  O   UNL     1     104.738 128.219  81.332  0.00  0.00    +0.000 OA
ENDROOT
BRANCH   1   3
ATOM      3  C   UNL     1     103.892 125.720  81.469  0.00  0.00    +0.000 A 
ATOM      4  C   UNL     1     104.322 125.040  80.323  0.00  0.00    +0.000 A 
ATOM      5  C   UNL     1     104.679 123.690  80.401  0.00  0.00    +0.000 A 
ATOM      6  C   UNL     1     104.613 123.024  81.624  0.00  0.00    +0.000 A 
ATOM      7  C   UNL     1     104.196 123.697  82.772  0.00  0.00    +0.000 A 
ATOM      8  C   UNL     1     103.839 125.045  82.693  0.00  0.00    +0.000 A 
ATOM      9 CL   UNL     1     105.052 121.365  81.718  0.00  0.00    +0.000 Cl
ENDBRANCH   1   3
BRANCH   1  10
ATOM     10  C   UNL     1     102.732 127.623  83.029  0.00  0.00    +0.000 C 
BRANCH  10  14
ATOM     11  C   UNL     1      98.430 127.924  82.951  0.00  0.00    +0.000 A 
ATOM     12  C   UNL     1      99.189 128.945  83.521  0.00  0.00    +0.000 A 
ATOM     13  C   UNL     1     100.582 128.850  83.546  0.00  0.00    +0.000 A 
ATOM     14  C   UNL     1     101.229 127.734  82.998  0.00  0.00    +0.000 A 
ATOM     15  C   UNL     1     100.453 126.710  82.433  0.00  0.00    +0.000 A 
ATOM     16  C   UNL     1      99.061 126.807  82.408  0.00  0.00    +0.000 A 
ENDBRANCH  10  14
ENDBRANCH   1  10
TORSDOF 3
ENDMDL
