REMARK  Name = *****
REMARK  1 active torsions:
REMARK  status: ('A' for Active; 'I' for Inactive)
REMARK    1  A    between atoms: C_8  and  C_10
REMARK                            x       y       z     vdW  Elec       q    Type
REMARK                         _______ _______ _______ _____ _____    ______ ____
ROOT
ATOM      1  C   UNL     1      -2.494   0.710   0.480  0.00  0.00    +0.000 C 
ATOM      2  C   UNL     1      -2.528  -0.739  -0.013  0.00  0.00    +0.000 C 
ATOM      3  C   UNL     1      -1.215  -1.480   0.265  0.00  0.00    +0.000 C 
ATOM      4  C   UNL     1      -0.039  -0.691  -0.307  0.00  0.00    +0.000 C 
ATOM      5  C   UNL     1       0.006   0.710   0.295  0.00  0.00    +0.000 C 
ATOM      6  C   UNL     1      -1.273   1.475  -0.041  0.00  0.00    +0.000 C 
ATOM      7  S   UNL     1       1.496   1.508  -0.361  0.00  0.00    +0.000 S 
ATOM      8  C   UNL     1       2.577   0.036  -0.235  0.00  0.00    +0.000 C 
ATOM      9  S   UNL     1       1.564  -1.463   0.048  0.00  0.00    +0.000 S 
ENDROOT
BRANCH   8  10
ATOM     10  C   UNL     1       3.497  -0.112  -1.430  0.00  0.00    +0.000 A 
ATOM     11  C   UNL     1       4.890  -0.129  -1.237  0.00  0.00    +0.000 A 
ATOM     12  C   UNL     1       5.762  -0.270  -2.319  0.00  0.00    +0.000 A 
ATOM     13  C   UNL     1       5.258  -0.399  -3.610  0.00  0.00    +0.000 A 
ATOM     14  C   UNL     1       3.882  -0.387  -3.822  0.00  0.00    +0.000 A 
ATOM     15  C   UNL     1       3.008  -0.246  -2.742  0.00  0.00    +0.000 A 
ENDBRANCH   8  10
TORSDOF 1
