REMARK  Name = *****
REMARK  3 active torsions:
REMARK  status: ('A' for Active; 'I' for Inactive)
REMARK    1  A    between atoms: C_1  and  C_2
REMARK    2  A    between atoms: C_7  and  C_8
REMARK    3  A    between atoms: C_9  and  C_10
REMARK                            x       y       z     vdW  Elec       q    Type
REMARK                         _______ _______ _______ _____ _____    ______ ____
ROOT
ATOM      1  C   UNL     1       2.518  -2.560  -0.168  0.00  0.00    +0.000 C 
ATOM      2  C   UNL     1       1.952  -3.618  -0.233  0.00  0.00    +0.000 C 
ENDROOT
BRANCH   1   9
ATOM      3  C   UNL     1       0.980  -0.068   0.119  0.00  0.00    +0.000 C 
ATOM      4  C   UNL     1       2.482  -0.093   0.045  0.00  0.00    +0.000 A 
ATOM      5  C   UNL     1       3.198   1.113   0.114  0.00  0.00    +0.000 A 
ATOM      6  C   UNL     1       4.592   1.120   0.048  0.00  0.00    +0.000 A 
ATOM      7  C   UNL     1       5.289  -0.078  -0.086  0.00  0.00    +0.000 A 
ATOM      8  C   UNL     1       4.592  -1.283  -0.156  0.00  0.00    +0.000 A 
ATOM      9  C   UNL     1       3.193  -1.298  -0.091  0.00  0.00    +0.000 A 
ENDBRANCH   1   9
BRANCH   2  10
ATOM     10  C   UNL     1       1.273  -4.874  -0.314  0.00  0.00    +0.000 A 
ATOM     11  C   UNL     1       1.946  -6.055   0.010  0.00  0.00    +0.000 A 
ATOM     12  C   UNL     1       1.284  -7.283  -0.069  0.00  0.00    +0.000 A 
ATOM     13  C   UNL     1      -0.050  -7.323  -0.473  0.00  0.00    +0.000 A 
ATOM     14  C   UNL     1      -0.728  -6.148  -0.798  0.00  0.00    +0.000 A 
ATOM     15  C   UNL     1      -0.064  -4.921  -0.717  0.00  0.00    +0.000 A 
ATOM     16 BR   UNL     1      -0.947  -8.983  -0.582  0.00  0.00    +0.000 Br
ENDBRANCH   2  10
TORSDOF 2
