REMARK  Name = *****
REMARK  2 active torsions:
REMARK  status: ('A' for Active; 'I' for Inactive)
REMARK    1  A    between atoms: C_4  and  C_7
REMARK    2  A    between atoms: C_16  and  C_17
REMARK                            x       y       z     vdW  Elec       q    Type
REMARK                         _______ _______ _______ _____ _____    ______ ____
ROOT
ATOM      1  C   UNL     1      -2.707   0.106   0.081  0.00  0.00    +0.000 A 
ATOM      2  C   UNL     1      -3.347  -0.816   0.831  0.00  0.00    +0.000 A 
ATOM      3  C   UNL     1      -4.745  -0.422   0.894  0.00  0.00    +0.000 A 
ATOM      4  C   UNL     1      -5.672  -1.111   1.567  0.00  0.00    +0.000 A 
ATOM      5  C   UNL     1      -7.078  -0.812   1.703  0.00  0.00    +0.000 A 
ATOM      6  C   UNL     1      -7.784   0.203   1.190  0.00  0.00    +0.000 A 
ATOM      7  C   UNL     1      -7.351   1.293   0.351  0.00  0.00    +0.000 A 
ATOM      8  C   UNL     1      -6.125   1.568  -0.115  0.00  0.00    +0.000 A 
ATOM      9  C   UNL     1      -4.920   0.809   0.123  0.00  0.00    +0.000 A 
ATOM     10  C   UNL     1      -3.689   1.108  -0.354  0.00  0.00    +0.000 A 
ENDROOT
BRANCH   1  14
ATOM     11  C   UNL     1       1.478  -0.052  -0.741  0.00  0.00    +0.000 A 
ATOM     12  C   UNL     1       0.647  -1.091  -1.155  0.00  0.00    +0.000 A 
ATOM     13  C   UNL     1      -0.722  -1.041  -0.886  0.00  0.00    +0.000 A 
ATOM     14  C   UNL     1      -1.271   0.050  -0.199  0.00  0.00    +0.000 A 
ATOM     15  C   UNL     1      -0.427   1.089   0.213  0.00  0.00    +0.000 A 
ATOM     16  C   UNL     1       0.942   1.037  -0.057  0.00  0.00    +0.000 A 
ENDBRANCH   1  14
BRANCH  10  17
ATOM     17  C   UNL     1      -3.353   2.215  -1.175  0.00  0.00    +0.000 C 
ATOM     18  N   UNL     1      -3.097   3.133  -1.837  0.00  0.00    +0.000 NA
ENDBRANCH  10  17
TORSDOF 2
