MODEL 1
REMARK VINA RESULT:      -4.9      0.000      0.000
REMARK  Name = *****
REMARK  4 active torsions:
REMARK  status: ('A' for Active; 'I' for Inactive)
REMARK    1  A    between atoms: C_4  and  O_7
REMARK    2  A    between atoms: O_7  and  C_8
REMARK    3  A    between atoms: C_8  and  C_10
REMARK    4  A    between atoms: C_13  and  C_16
REMARK                            x       y       z     vdW  Elec       q    Type
REMARK                         _______ _______ _______ _____ _____    ______ ____
ROOT
ATOM      1  C   UNL     1     103.707 125.390  81.690  0.00  0.00    +0.000 A 
ATOM      2  C   UNL     1     103.745 124.614  82.856  0.00  0.00    +0.000 A 
ATOM      3  C   UNL     1     104.230 123.302  82.815  0.00  0.00    +0.000 A 
ATOM      4  C   UNL     1     104.690 122.745  81.612  0.00  0.00    +0.000 A 
ATOM      5  C   UNL     1     104.642 123.523  80.445  0.00  0.00    +0.000 A 
ATOM      6  C   UNL     1     104.160 124.834  80.485  0.00  0.00    +0.000 A 
ENDROOT
BRANCH   4   7
ATOM      7  C   UNL     1     105.190 121.320  81.571  0.00  0.00    +0.000 C 
ATOM      8  F   UNL     1     105.538 120.847  82.799  0.00  0.00    +0.000 F 
ATOM      9  F   UNL     1     104.253 120.459  81.088  0.00  0.00    +0.000 F 
ATOM     10  F   UNL     1     106.290 121.159  80.784  0.00  0.00    +0.000 F 
ENDBRANCH   4   7
BRANCH   1  11
ATOM     11  C   UNL     1     103.204 126.793  81.669  0.00  0.00    +0.000 C 
ATOM     12  O   UNL     1     103.233 127.495  80.670  0.00  0.00    +0.000 OA
BRANCH  11  13
ATOM     13  O   UNL     1     102.725 127.134  82.920  0.00  0.00    +0.000 OA
BRANCH  13  17
ATOM     14  C   UNL     1      98.700 128.252  82.993  0.00  0.00    +0.000 A 
ATOM     15  C   UNL     1      99.655 129.113  83.540  0.00  0.00    +0.000 A 
ATOM     16  C   UNL     1     101.003 128.753  83.538  0.00  0.00    +0.000 A 
ATOM     17  C   UNL     1     101.379 127.522  83.004  0.00  0.00    +0.000 A 
ATOM     18  C   UNL     1     100.436 126.666  82.437  0.00  0.00    +0.000 A 
ATOM     19  C   UNL     1      99.090 127.032  82.439  0.00  0.00    +0.000 A 
ENDBRANCH  13  17
ENDBRANCH  11  13
ENDBRANCH   1  11
TORSDOF 4
ENDMDL
