MODEL 1
REMARK VINA RESULT:      -5.1      0.000      0.000
REMARK  Name = *****
REMARK  4 active torsions:
REMARK  status: ('A' for Active; 'I' for Inactive)
REMARK    1  A    between atoms: C_5  and  C_7
REMARK    2  A    between atoms: C_7  and  C_8
REMARK    3  A    between atoms: C_8  and  C_10
REMARK    4  A    between atoms: C_10  and  C_11
REMARK                            x       y       z     vdW  Elec       q    Type
REMARK                         _______ _______ _______ _____ _____    ______ ____
ROOT
ATOM      1  C   UNL     1     102.674 125.435  83.243  0.00  0.00    +0.000 C 
ATOM      2  O   UNL     1     102.218 125.174  84.361  0.00  0.00    +0.000 OA
ENDROOT
BRANCH   1   3
ATOM      3  C   UNL     1     104.130 125.173  82.913  0.00  0.00    +0.000 C 
BRANCH   3   8
ATOM      4  C   UNL     1     104.678 121.402  82.841  0.00  0.00    +0.000 A 
ATOM      5  C   UNL     1     104.780 121.161  81.471  0.00  0.00    +0.000 A 
ATOM      6  C   UNL     1     104.677 122.219  80.571  0.00  0.00    +0.000 A 
ATOM      7  C   UNL     1     104.472 123.511  81.047  0.00  0.00    +0.000 A 
ATOM      8  C   UNL     1     104.362 123.772  82.415  0.00  0.00    +0.000 A 
ATOM      9  C   UNL     1     104.471 122.700  83.313  0.00  0.00    +0.000 A 
ATOM     10  F   UNL     1     104.375 124.515  80.166  0.00  0.00    +0.000 F 
ENDBRANCH   3   8
ENDBRANCH   1   3
BRANCH   1  11
ATOM     11  C   UNL     1     101.795 126.029  82.161  0.00  0.00    +0.000 C 
BRANCH  11  12
ATOM     12  C   UNL     1     100.928 127.144  82.674  0.00  0.00    +0.000 A 
ATOM     13  C   UNL     1     101.494 128.249  83.328  0.00  0.00    +0.000 A 
ATOM     14  C   UNL     1     100.681 129.287  83.792  0.00  0.00    +0.000 A 
ATOM     15  C   UNL     1      99.300 129.234  83.609  0.00  0.00    +0.000 A 
ATOM     16  C   UNL     1      98.729 128.140  82.960  0.00  0.00    +0.000 A 
ATOM     17  C   UNL     1      99.542 127.109  82.501  0.00  0.00    +0.000 A 
ATOM     18  F   UNL     1      98.975 126.067  81.877  0.00  0.00    +0.000 F 
ENDBRANCH  11  12
ENDBRANCH   1  11
TORSDOF 4
ENDMDL
