MODEL 1
REMARK VINA RESULT:      -5.0      0.000      0.000
REMARK  Name = *****
REMARK  4 active torsions:
REMARK  status: ('A' for Active; 'I' for Inactive)
REMARK    1  A    between atoms: C_1  and  C_2
REMARK    2  A    between atoms: C_5  and  N_8
REMARK    3  A    between atoms: C_9  and  O_18
REMARK    4  A    between atoms: O_18  and  O_19
REMARK                            x       y       z     vdW  Elec       q    Type
REMARK                         _______ _______ _______ _____ _____    ______ ____
ROOT
ATOM      1  N   UNL     1     102.249 127.015  83.247  0.00  0.00    +0.000 N 
ATOM      2  C   UNL     1     100.942 127.489  82.784  0.00  0.00    +0.000 C 
ATOM      3  C   UNL     1     100.692 128.775  83.508  0.00  0.00    +0.000 C 
ATOM      4  C   UNL     1     101.655 129.150  84.356  0.00  0.00    +0.000 C 
ATOM      5  S   UNL     1     103.026 128.026  84.348  0.00  0.00    +0.000 S 
ATOM      6  O   UNL     1     103.026 127.388  85.704  0.00  0.00    +0.000 OA
ATOM      7  C   UNL     1     101.604 130.384  85.195  0.00  0.00    +0.000 C 
ATOM      8  C   UNL     1     100.510 131.352  84.727  0.00  0.00    +0.000 C 
ATOM      9  C   UNL     1      99.213 130.614  84.389  0.00  0.00    +0.000 C 
ATOM     10  C   UNL     1      99.427 129.551  83.304  0.00  0.00    +0.000 C 
ENDROOT
BRANCH   1  15
ATOM     11  C   UNL     1     105.026 122.816  80.418  0.00  0.00    +0.000 C 
ATOM     12  C   UNL     1     104.339 123.925  81.156  0.00  0.00    +0.000 A 
ATOM     13  C   UNL     1     103.776 124.998  80.467  0.00  0.00    +0.000 A 
ATOM     14  C   UNL     1     103.092 126.010  81.157  0.00  0.00    +0.000 A 
ATOM     15  C   UNL     1     102.942 125.996  82.557  0.00  0.00    +0.000 A 
ATOM     16  C   UNL     1     103.493 124.884  83.220  0.00  0.00    +0.000 A 
ATOM     17  C   UNL     1     104.178 123.867  82.538  0.00  0.00    +0.000 A 
ENDBRANCH   1  15
BRANCH   2  18
ATOM     18  O   UNL     1      99.830 126.623  83.109  0.00  0.00    +0.000 OA
BRANCH  18  19
ATOM     19  O   UNL     1      99.230 126.074  81.887  0.00  0.00    +0.000 OA
ATOM     20  H   UNL     1      98.304 126.355  81.826  0.00  0.00    +0.000 HD
ENDBRANCH  18  19
ENDBRANCH   2  18
TORSDOF 3
ENDMDL
