MODEL 1
REMARK VINA RESULT:      -4.1      0.000      0.000
REMARK  Name = *****
REMARK  4 active torsions:
REMARK  status: ('A' for Active; 'I' for Inactive)
REMARK    1  A    between atoms: C_4  and  S_7
REMARK    2  A    between atoms: S_7  and  C_8
REMARK    3  A    between atoms: C_8  and  C_10
REMARK    4  A    between atoms: C_10  and  C_11
REMARK                            x       y       z     vdW  Elec       q    Type
REMARK                         _______ _______ _______ _____ _____    ______ ____
ROOT
ATOM      1  C   UNL     1      89.721  67.829  85.979  0.00  0.00    +0.000 C 
ATOM      2  O   UNL     1      90.725  67.307  86.456  0.00  0.00    +0.000 OA
ENDROOT
BRANCH   1   3
ATOM      3  S   UNL     1      89.668  69.534  85.558  0.00  0.00    +0.000 S 
BRANCH   3   7
ATOM      4  C   UNL     1      86.853  71.331  88.719  0.00  0.00    +0.000 A 
ATOM      5  C   UNL     1      86.438  71.312  87.390  0.00  0.00    +0.000 A 
ATOM      6  C   UNL     1      87.269  70.778  86.399  0.00  0.00    +0.000 A 
ATOM      7  C   UNL     1      88.527  70.259  86.725  0.00  0.00    +0.000 A 
ATOM      8  C   UNL     1      88.930  70.284  88.068  0.00  0.00    +0.000 A 
ATOM      9  C   UNL     1      88.101  70.816  89.059  0.00  0.00    +0.000 A 
ENDBRANCH   3   7
ENDBRANCH   1   3
BRANCH   1  10
ATOM     10  C   UNL     1      88.427  67.074  85.770  0.00  0.00    +0.000 C 
BRANCH  10  11
ATOM     11  C   UNL     1      87.916  66.430  87.038  0.00  0.00    +0.000 A 
ATOM     12  C   UNL     1      87.017  67.156  87.841  0.00  0.00    +0.000 A 
ATOM     13  C   UNL     1      86.494  66.606  89.013  0.00  0.00    +0.000 A 
ATOM     14  C   UNL     1      86.860  65.322  89.403  0.00  0.00    +0.000 A 
ATOM     15  C   UNL     1      87.749  64.587  88.619  0.00  0.00    +0.000 A 
ATOM     16  C   UNL     1      88.273  65.134  87.442  0.00  0.00    +0.000 A 
ATOM     17 CL   UNL     1      89.362  64.152  86.529  0.00  0.00    +0.000 Cl
ENDBRANCH  10  11
ENDBRANCH   1  10
TORSDOF 4
ENDMDL
