REMARK  Name = *****
REMARK  5 active torsions:
REMARK  status: ('A' for Active; 'I' for Inactive)
REMARK    1  A    between atoms: C_1  and  C_2
REMARK    2  A    between atoms: C_4  and  O_17
REMARK    3  A    between atoms: C_5  and  C_9
REMARK    4  A    between atoms: C_10  and  C_11
REMARK    5  A    between atoms: O_17  and  C_18
REMARK                            x       y       z     vdW  Elec       q    Type
REMARK                         _______ _______ _______ _____ _____    ______ ____
ROOT
ATOM      1  C   UNL     1       2.413  -1.291   0.019  0.00  0.00    +0.000 C 
ATOM      2  C   UNL     1       1.284  -0.313   0.020  0.00  0.00    +0.000 A 
ATOM      3  C   UNL     1       1.383   0.959   0.416  0.00  0.00    +0.000 A 
ATOM      4  C   UNL     1       0.224   1.812   0.379  0.00  0.00    +0.000 A 
ATOM      5  C   UNL     1      -0.984   1.341   0.012  0.00  0.00    +0.000 A 
ATOM      6  C   UNL     1      -1.092  -0.095  -0.404  0.00  0.00    +0.000 A 
ATOM      7  O   UNL     1      -2.168  -0.590  -0.731  0.00  0.00    +0.000 OA
ATOM      8  O   UNL     1       0.054  -0.844  -0.418  0.00  0.00    +0.000 OA
ENDROOT
BRANCH   5   9
ATOM      9  C   UNL     1      -2.221   2.116   0.062  0.00  0.00    +0.000 C 
ATOM     10  C   UNL     1      -2.389   3.358  -0.422  0.00  0.00    +0.000 C 
BRANCH  10  11
ATOM     11  C   UNL     1      -3.664   4.089  -0.377  0.00  0.00    +0.000 A 
ATOM     12  C   UNL     1      -4.516   4.038   0.734  0.00  0.00    +0.000 A 
ATOM     13  C   UNL     1      -5.704   4.773   0.753  0.00  0.00    +0.000 A 
ATOM     14  C   UNL     1      -6.046   5.576  -0.333  0.00  0.00    +0.000 A 
ATOM     15  C   UNL     1      -5.199   5.648  -1.437  0.00  0.00    +0.000 A 
ATOM     16  C   UNL     1      -4.011   4.913  -1.456  0.00  0.00    +0.000 A 
ENDBRANCH  10  11
ENDBRANCH   5   9
BRANCH   4  17
ATOM     17  O   UNL     1       0.407   3.091   0.871  0.00  0.00    +0.000 OA
ATOM     18  C   UNL     1       1.239   3.893   0.031  0.00  0.00    +0.000 C 
ENDBRANCH   4  17
TORSDOF 3
