MODEL 1
REMARK VINA RESULT:      -4.7      0.000      0.000
REMARK  Name = *****
REMARK  1 active torsions:
REMARK  status: ('A' for Active; 'I' for Inactive)
REMARK    1  A    between atoms: C_6  and  C_7
REMARK                            x       y       z     vdW  Elec       q    Type
REMARK                         _______ _______ _______ _____ _____    ______ ____
ROOT
ATOM      1  C   UNL     1      97.714 126.966  84.779  0.00  0.00    +0.000 C 
ATOM      2  C   UNL     1      97.543 126.979  83.262  0.00  0.00    +0.000 C 
ATOM      3  C   UNL     1      98.765 127.709  82.727  0.00  0.00    +0.000 C 
ATOM      4  C   UNL     1     100.040 126.865  82.663  0.00  0.00    +0.000 C 
ATOM      5  C   UNL     1     101.125 127.855  83.003  0.00  0.00    +0.000 C 
ATOM      6  C   UNL     1     102.441 127.704  82.784  0.00  0.00    +0.000 C 
ATOM      7  C   UNL     1     100.530 129.102  83.611  0.00  0.00    +0.000 C 
ATOM      8  C   UNL     1      99.054 128.765  83.790  0.00  0.00    +0.000 C 
ATOM      9  C   UNL     1      98.700 128.087  85.119  0.00  0.00    +0.000 C 
ENDROOT
BRANCH   6  10
ATOM     10  C   UNL     1     103.028 126.511  82.176  0.00  0.00    +0.000 A 
ATOM     11  C   UNL     1     103.354 125.407  82.972  0.00  0.00    +0.000 A 
ATOM     12  C   UNL     1     103.921 124.269  82.396  0.00  0.00    +0.000 A 
ATOM     13  C   UNL     1     104.165 124.230  81.023  0.00  0.00    +0.000 A 
ATOM     14  C   UNL     1     103.843 125.329  80.226  0.00  0.00    +0.000 A 
ATOM     15  C   UNL     1     103.277 126.468  80.801  0.00  0.00    +0.000 A 
ENDBRANCH   6  10
TORSDOF 1
ENDMDL
