REMARK  Name = *****
REMARK  3 active torsions:
REMARK  status: ('A' for Active; 'I' for Inactive)
REMARK    1  A    between atoms: C_7  and  O_18
REMARK    2  A    between atoms: N_8  and  C_11
REMARK    3  A    between atoms: O_18  and  O_19
REMARK                            x       y       z     vdW  Elec       q    Type
REMARK                         _______ _______ _______ _____ _____    ______ ____
ROOT
ATOM      1  C   UNL     1      -2.201  -0.804   0.279  0.00  0.00    +0.000 C 
ATOM      2  C   UNL     1      -2.313   0.619  -0.269  0.00  0.00    +0.000 C 
ATOM      3  C   UNL     1      -1.141   1.494   0.192  0.00  0.00    +0.000 C 
ATOM      4  C   UNL     1       0.162   0.773   0.093  0.00  0.00    +0.000 C 
ATOM      5  C   UNL     1       0.278  -0.550  -0.072  0.00  0.00    +0.000 C 
ATOM      6  C   UNL     1      -0.891  -1.480  -0.147  0.00  0.00    +0.000 C 
ATOM      7  C   UNL     1       1.686  -1.049  -0.147  0.00  0.00    +0.000 C 
ATOM      8  N   UNL     1       2.544   0.098   0.161  0.00  0.00    +0.000 N 
ATOM      9  S   UNL     1       1.742   1.582   0.125  0.00  0.00    +0.000 S 
ATOM     10  O   UNL     1       1.840   2.266   1.453  0.00  0.00    +0.000 OA
ENDROOT
BRANCH   8  11
ATOM     11  C   UNL     1       3.946   0.007   0.093  0.00  0.00    +0.000 A 
ATOM     12  C   UNL     1       4.602  -1.114  -0.450  0.00  0.00    +0.000 A 
ATOM     13  C   UNL     1       6.000  -1.193  -0.521  0.00  0.00    +0.000 A 
ATOM     14  C   UNL     1       6.780  -0.154  -0.033  0.00  0.00    +0.000 A 
ATOM     15  C   UNL     1       6.172   0.960   0.528  0.00  0.00    +0.000 A 
ATOM     16  C   UNL     1       4.774   1.034   0.588  0.00  0.00    +0.000 A 
ATOM     17 CL   UNL     1       8.494  -0.250  -0.117  0.00  0.00    +0.000 Cl
ENDBRANCH   8  11
BRANCH   7  18
ATOM     18  O   UNL     1       1.905  -2.131   0.778  0.00  0.00    +0.000 OA
BRANCH  18  19
ATOM     19  O   UNL     1       1.644  -1.632   2.136  0.00  0.00    +0.000 OA
ATOM     20  H   UNL     1       1.786  -2.347   2.776  0.00  0.00    +0.000 HD
ENDBRANCH  18  19
ENDBRANCH   7  18
TORSDOF 3
