REMARK  Name = *****
REMARK  4 active torsions:
REMARK  status: ('A' for Active; 'I' for Inactive)
REMARK    1  A    between atoms: C_4  and  C_7
REMARK    2  A    between atoms: C_7  and  C_8
REMARK    3  A    between atoms: C_8  and  O_9
REMARK    4  A    between atoms: O_9  and  C_10
REMARK                            x       y       z     vdW  Elec       q    Type
REMARK                         _______ _______ _______ _____ _____    ______ ____
ROOT
ATOM      1  C   UNL     1       3.195  -2.193   0.131  0.00  0.00    +0.000 C 
ENDROOT
BRANCH   1   2
ATOM      2  C   UNL     1       2.726  -0.817  -0.340  0.00  0.00    +0.000 C 
BRANCH   2   6
ATOM      3  C   UNL     1      -1.433   0.562  -0.199  0.00  0.00    +0.000 C 
ATOM      4  C   UNL     1      -1.151  -0.881   0.200  0.00  0.00    +0.000 C 
ATOM      5  C   UNL     1       0.225  -1.344  -0.276  0.00  0.00    +0.000 C 
ATOM      6  C   UNL     1       1.346  -0.408   0.206  0.00  0.00    +0.000 C 
ATOM      7  C   UNL     1       1.042   1.046  -0.196  0.00  0.00    +0.000 C 
ATOM      8  C   UNL     1      -0.333   1.498   0.288  0.00  0.00    +0.000 C 
ENDBRANCH   2   6
ENDBRANCH   1   2
BRANCH   1   9
ATOM      9  O   UNL     1       4.525  -2.387  -0.354  0.00  0.00    +0.000 OA
BRANCH   9  10
ATOM     10  C   UNL     1       5.132  -3.574  -0.048  0.00  0.00    +0.000 A 
ATOM     11  C   UNL     1       4.584  -4.606   0.716  0.00  0.00    +0.000 A 
ATOM     12  C   UNL     1       5.320  -5.771   0.953  0.00  0.00    +0.000 A 
ATOM     13  C   UNL     1       6.604  -5.910   0.429  0.00  0.00    +0.000 A 
ATOM     14  C   UNL     1       7.156  -4.883  -0.333  0.00  0.00    +0.000 A 
ATOM     15  C   UNL     1       6.421  -3.720  -0.568  0.00  0.00    +0.000 A 
ENDBRANCH   9  10
ENDBRANCH   1   9
TORSDOF 4
