MODEL 1
REMARK VINA RESULT:      -5.6      0.000      0.000
REMARK  Name = *****
REMARK  2 active torsions:
REMARK  status: ('A' for Active; 'I' for Inactive)
REMARK    1  A    between atoms: C_1  and  C_2
REMARK    2  A    between atoms: C_9  and  C_11
REMARK                            x       y       z     vdW  Elec       q    Type
REMARK                         _______ _______ _______ _____ _____    ______ ____
ROOT
ATOM      1  C   UNL     1      99.177 130.498  84.649  0.00  0.00    +0.000 C 
ATOM      2  C   UNL     1      99.644 129.288  83.892  0.00  0.00    +0.000 A 
ATOM      3  C   UNL     1     101.024 129.031  83.761  0.00  0.00    +0.000 A 
ATOM      4  C   UNL     1     101.429 127.878  83.079  0.00  0.00    +0.000 A 
ATOM      5  C   UNL     1     100.463 127.027  82.569  0.00  0.00    +0.000 A 
ATOM      6  C   UNL     1      99.094 127.224  82.683  0.00  0.00    +0.000 A 
ATOM      7  C   UNL     1      98.703 128.382  83.367  0.00  0.00    +0.000 A 
ATOM      8  O   UNL     1     101.103 125.990  81.958  0.00  0.00    +0.000 OA
ATOM      9  C   UNL     1     102.433 126.268  82.131  0.00  0.00    +0.000 A 
ATOM     10  N   UNL     1     102.677 127.384  82.795  0.00  0.00    +0.000 NA
ENDROOT
BRANCH   9  11
ATOM     11  C   UNL     1     103.396 125.323  81.575  0.00  0.00    +0.000 A 
ATOM     12  C   UNL     1     103.728 124.176  82.317  0.00  0.00    +0.000 A 
ATOM     13  C   UNL     1     104.644 123.251  81.819  0.00  0.00    +0.000 A 
ATOM     14  C   UNL     1     105.241 123.446  80.581  0.00  0.00    +0.000 A 
ATOM     15  C   UNL     1     104.922 124.570  79.838  0.00  0.00    +0.000 A 
ATOM     16  C   UNL     1     104.009 125.503  80.327  0.00  0.00    +0.000 A 
ATOM     17  F   UNL     1     103.732 126.574  79.569  0.00  0.00    +0.000 F 
ATOM     18  F   UNL     1     105.496 124.764  78.641  0.00  0.00    +0.000 F 
ATOM     19  F   UNL     1     106.119 122.550  80.110  0.00  0.00    +0.000 F 
ATOM     20  F   UNL     1     104.942 122.168  82.548  0.00  0.00    +0.000 F 
ENDBRANCH   9  11
TORSDOF 1
ENDMDL
