MODEL 1
REMARK VINA RESULT:      -5.1      0.000      0.000
REMARK  Name = *****
REMARK  1 active torsions:
REMARK  status: ('A' for Active; 'I' for Inactive)
REMARK    1  A    between atoms: C_10  and  C_12
REMARK                            x       y       z     vdW  Elec       q    Type
REMARK                         _______ _______ _______ _____ _____    ______ ____
ROOT
ATOM      1  C   UNL     1      88.625  68.079  85.521  0.00  0.00    +0.000 C 
ATOM      2  C   UNL     1      89.407  68.486  84.309  0.00  0.00    +0.000 C 
ATOM      3  C   UNL     1      90.034  69.664  84.202  0.00  0.00    +0.000 C 
ATOM      4  C   UNL     1      90.011  70.707  85.278  0.00  0.00    +0.000 C 
ATOM      5  C   UNL     1      88.975  70.459  86.398  0.00  0.00    +0.000 C 
ATOM      6  C   UNL     1      88.883  68.959  86.764  0.00  0.00    +0.000 C 
ATOM      7  C   UNL     1      87.848  68.603  87.863  0.00  0.00    +0.000 C 
ATOM      8  C   UNL     1      87.420  69.704  88.795  0.00  0.00    +0.000 C 
ATOM      9  C   UNL     1      86.867  70.864  88.400  0.00  0.00    +0.000 C 
ATOM     10  C   UNL     1      86.660  71.247  87.010  0.00  0.00    +0.000 C 
ATOM     11  C   UNL     1      87.617  71.054  86.079  0.00  0.00    +0.000 C 
ENDROOT
BRANCH  10  12
ATOM     12  C   UNL     1      85.410  71.901  86.576  0.00  0.00    +0.000 A 
ATOM     13  C   UNL     1      84.466  72.306  87.528  0.00  0.00    +0.000 A 
ATOM     14  C   UNL     1      83.285  72.932  87.125  0.00  0.00    +0.000 A 
ATOM     15  C   UNL     1      83.044  73.162  85.771  0.00  0.00    +0.000 A 
ATOM     16  C   UNL     1      83.982  72.767  84.818  0.00  0.00    +0.000 A 
ATOM     17  C   UNL     1      85.162  72.138  85.218  0.00  0.00    +0.000 A 
ENDBRANCH  10  12
TORSDOF 1
ENDMDL
