MODEL 1
REMARK VINA RESULT:      -4.2      0.000      0.000
REMARK  Name = *****
REMARK  4 active torsions:
REMARK  status: ('A' for Active; 'I' for Inactive)
REMARK    1  A    between atoms: C_1  and  C_2
REMARK    2  A    between atoms: C_6  and  C_8
REMARK    3  A    between atoms: C_6  and  C_9
REMARK    4  A    between atoms: C_10  and  C_11
REMARK                            x       y       z     vdW  Elec       q    Type
REMARK                         _______ _______ _______ _____ _____    ______ ____
ROOT
ATOM      1  C   UNL     1      88.268  71.465  90.111  0.00  0.00    +0.000 C 
ATOM      2  C   UNL     1      87.922  70.727  88.824  0.00  0.00    +0.000 C 
ATOM      3  C   UNL     1      86.589  71.215  88.259  0.00  0.00    +0.000 C 
ATOM      4  C   UNL     1      86.302  70.547  86.922  0.00  0.00    +0.000 C 
ATOM      5  C   UNL     1      87.488  70.725  85.979  0.00  0.00    +0.000 C 
ATOM      6  C   UNL     1      88.832  70.312  86.620  0.00  0.00    +0.000 C 
ATOM      7  O   UNL     1      88.984  70.967  87.893  0.00  0.00    +0.000 OA
ATOM      8  C   UNL     1      89.976  70.843  85.741  0.00  0.00    +0.000 C 
ENDROOT
BRANCH   6   9
ATOM      9  C   UNL     1      89.078  68.826  86.821  0.00  0.00    +0.000 C 
ATOM     10  C   UNL     1      89.939  68.031  86.161  0.00  0.00    +0.000 C 
BRANCH  10  11
ATOM     11  C   UNL     1      90.091  66.551  86.441  0.00  0.00    +0.000 C 
ATOM     12  C   UNL     1      90.897  65.850  85.336  0.00  0.00    +0.000 C 
ATOM     13  C   UNL     1      90.115  65.674  84.033  0.00  0.00    +0.000 C 
ATOM     14  C   UNL     1      88.773  64.988  84.267  0.00  0.00    +0.000 C 
ATOM     15  C   UNL     1      87.943  65.709  85.326  0.00  0.00    +0.000 C 
ATOM     16  C   UNL     1      88.721  65.879  86.631  0.00  0.00    +0.000 C 
ENDBRANCH  10  11
ENDBRANCH   6   9
TORSDOF 2
ENDMDL
