MODEL 1
REMARK VINA RESULT:      -4.8      0.000      0.000
REMARK  Name = *****
REMARK  5 active torsions:
REMARK  status: ('A' for Active; 'I' for Inactive)
REMARK    1  A    between atoms: C_1  and  C_2
REMARK    2  A    between atoms: C_2  and  C_3
REMARK    3  A    between atoms: C_2  and  O_9
REMARK    4  A    between atoms: O_9  and  C_10
REMARK    5  A    between atoms: C_10  and  C_12
REMARK                            x       y       z     vdW  Elec       q    Type
REMARK                         _______ _______ _______ _____ _____    ______ ____
ROOT
ATOM      1  O   UNL     1     102.482 125.879  81.663  0.00  0.00    +0.000 OA
ENDROOT
BRANCH   1   3
ATOM      2  C   UNL     1     102.507 125.563  84.071  0.00  0.00    +0.000 C 
ATOM      3  C   UNL     1     102.428 126.565  82.918  0.00  0.00    +0.000 C 
BRANCH   3   4
ATOM      4  C   UNL     1     101.114 127.328  82.990  0.00  0.00    +0.000 A 
ATOM      5  C   UNL     1     101.044 128.613  83.553  0.00  0.00    +0.000 A 
ATOM      6  C   UNL     1      99.836 129.310  83.592  0.00  0.00    +0.000 A 
ATOM      7  C   UNL     1      98.682 128.736  83.065  0.00  0.00    +0.000 A 
ATOM      8  C   UNL     1      98.734 127.465  82.498  0.00  0.00    +0.000 A 
ATOM      9  C   UNL     1      99.942 126.766  82.458  0.00  0.00    +0.000 A 
ENDBRANCH   3   4
ENDBRANCH   1   3
BRANCH   1  10
ATOM     10  C   UNL     1     103.434 126.196  80.724  0.00  0.00    +0.000 C 
ATOM     11  C   UNL     1     103.567 127.361  80.070  0.00  0.00    +0.000 C 
BRANCH  10  12
ATOM     12  C   UNL     1     104.353 125.074  80.436  0.00  0.00    +0.000 A 
ATOM     13  C   UNL     1     105.365 125.180  79.471  0.00  0.00    +0.000 A 
ATOM     14  C   UNL     1     106.231 124.110  79.223  0.00  0.00    +0.000 A 
ATOM     15  C   UNL     1     106.098 122.924  79.942  0.00  0.00    +0.000 A 
ATOM     16  C   UNL     1     105.105 122.808  80.912  0.00  0.00    +0.000 A 
ATOM     17  C   UNL     1     104.240 123.878  81.159  0.00  0.00    +0.000 A 
ENDBRANCH  10  12
ENDBRANCH   1  10
TORSDOF 4
ENDMDL
