MODEL 1
REMARK VINA RESULT:      -4.9      0.000      0.000
REMARK  Name = *****
REMARK  6 active torsions:
REMARK  status: ('A' for Active; 'I' for Inactive)
REMARK    1  A    between atoms: C_1  and  C_2
REMARK    2  A    between atoms: C_3  and  C_19
REMARK    3  A    between atoms: C_5  and  C_8
REMARK    4  A    between atoms: C_8  and  C_10
REMARK    5  A    between atoms: C_10  and  C_11
REMARK    6  A    between atoms: C_11  and  C_12
REMARK                            x       y       z     vdW  Elec       q    Type
REMARK                         _______ _______ _______ _____ _____    ______ ____
ROOT
ATOM      1  C   UNL     1      89.471  69.882  86.344  0.00  0.00    +0.000 C 
ATOM      2  O   UNL     1      90.064  70.630  85.568  0.00  0.00    +0.000 OA
ENDROOT
BRANCH   1   7
ATOM      3  C   UNL     1      85.272  72.082  89.720  0.00  0.00    +0.000 C 
ATOM      4  C   UNL     1      86.347  71.515  88.835  0.00  0.00    +0.000 A 
ATOM      5  C   UNL     1      86.212  71.498  87.433  0.00  0.00    +0.000 A 
ATOM      6  C   UNL     1      87.245  70.956  86.649  0.00  0.00    +0.000 A 
ATOM      7  C   UNL     1      88.410  70.443  87.237  0.00  0.00    +0.000 A 
ATOM      8  C   UNL     1      88.541  70.472  88.626  0.00  0.00    +0.000 A 
ATOM      9  C   UNL     1      87.518  71.004  89.416  0.00  0.00    +0.000 A 
ATOM     10  C   UNL     1      84.980  72.033  86.755  0.00  0.00    +0.000 C 
ENDBRANCH   1   7
BRANCH   1  11
ATOM     11  C   UNL     1      89.781  68.398  86.426  0.00  0.00    +0.000 C 
BRANCH  11  12
ATOM     12  C   UNL     1      88.597  67.547  85.967  0.00  0.00    +0.000 C 
BRANCH  12  13
ATOM     13  C   UNL     1      87.974  66.803  87.122  0.00  0.00    +0.000 A 
ATOM     14  C   UNL     1      88.565  65.630  87.612  0.00  0.00    +0.000 A 
ATOM     15  C   UNL     1      87.996  64.959  88.695  0.00  0.00    +0.000 A 
ATOM     16  C   UNL     1      86.841  65.446  89.303  0.00  0.00    +0.000 A 
ATOM     17  C   UNL     1      86.250  66.614  88.823  0.00  0.00    +0.000 A 
ATOM     18  C   UNL     1      86.815  67.291  87.740  0.00  0.00    +0.000 A 
ATOM     19 CL   UNL     1      88.731  63.520  89.289  0.00  0.00    +0.000 Cl
ENDBRANCH  12  13
ENDBRANCH  11  12
ENDBRANCH   1  11
TORSDOF 4
ENDMDL
