MODEL 1
REMARK VINA RESULT:      -4.5      0.000      0.000
REMARK  Name = *****
REMARK  1 active torsions:
REMARK  status: ('A' for Active; 'I' for Inactive)
REMARK    1  A    between atoms: C_4  and  C_6
REMARK                            x       y       z     vdW  Elec       q    Type
REMARK                         _______ _______ _______ _____ _____    ______ ____
ROOT
ATOM      1  C   UNL     1      88.694  70.362  86.519  0.00  0.00    +0.000 A 
ATOM      2  C   UNL     1      87.509  70.912  85.996  0.00  0.00    +0.000 A 
ATOM      3  C   UNL     1      86.481  71.378  86.835  0.00  0.00    +0.000 A 
ATOM      4  C   UNL     1      85.299  71.927  86.309  0.00  0.00    +0.000 A 
ATOM      5  C   UNL     1      84.287  72.386  87.155  0.00  0.00    +0.000 A 
ATOM      6  C   UNL     1      84.442  72.301  88.535  0.00  0.00    +0.000 A 
ATOM      7  C   UNL     1      85.611  71.759  89.073  0.00  0.00    +0.000 A 
ATOM      8  C   UNL     1      86.637  71.293  88.235  0.00  0.00    +0.000 A 
ATOM      9  C   UNL     1      87.818  70.747  88.760  0.00  0.00    +0.000 A 
ATOM     10  C   UNL     1      88.831  70.289  87.914  0.00  0.00    +0.000 A 
ENDROOT
BRANCH   1  14
ATOM     11  C   UNL     1      89.337  69.173  82.984  0.00  0.00    +0.000 C 
ATOM     12  C   UNL     1      90.504  70.138  82.977  0.00  0.00    +0.000 C 
ATOM     13  S   UNL     1      90.351  71.188  84.441  0.00  0.00    +0.000 S 
ATOM     14  C   UNL     1      89.777  69.879  85.574  0.00  0.00    +0.000 C 
ATOM     15  S   UNL     1      89.260  68.409  84.624  0.00  0.00    +0.000 S 
ENDBRANCH   1  14
TORSDOF 1
ENDMDL
