MODEL 1
REMARK VINA RESULT:      -4.6      0.000      0.000
REMARK  Name = *****
REMARK  4 active torsions:
REMARK  status: ('A' for Active; 'I' for Inactive)
REMARK    1  A    between atoms: C_1  and  C_2
REMARK    2  A    between atoms: C_4  and  C_8
REMARK    3  A    between atoms: C_8  and  O_9
REMARK    4  A    between atoms: O_9  and  C_10
REMARK                            x       y       z     vdW  Elec       q    Type
REMARK                         _______ _______ _______ _____ _____    ______ ____
ROOT
ATOM      1  C   UNL     1     102.678 126.920  83.221  0.00  0.00    +0.000 C 
ENDROOT
BRANCH   1   5
ATOM      2  C   UNL     1      99.386 130.685  84.012  0.00  0.00    +0.000 C 
ATOM      3  C   UNL     1      99.693 129.306  83.508  0.00  0.00    +0.000 A 
ATOM      4  C   UNL     1     100.986 128.775  83.607  0.00  0.00    +0.000 A 
ATOM      5  C   UNL     1     101.273 127.476  83.155  0.00  0.00    +0.000 A 
ATOM      6  C   UNL     1     100.243 126.721  82.576  0.00  0.00    +0.000 A 
ATOM      7  C   UNL     1      98.953 127.242  82.475  0.00  0.00    +0.000 A 
ATOM      8  C   UNL     1      98.678 128.527  82.942  0.00  0.00    +0.000 A 
ENDBRANCH   1   5
BRANCH   1   9
ATOM      9  O   UNL     1     102.636 125.493  83.276  0.00  0.00    +0.000 OA
BRANCH   9  10
ATOM     10  C   UNL     1     103.440 124.813  82.404  0.00  0.00    +0.000 A 
ATOM     11  C   UNL     1     104.200 123.680  82.697  0.00  0.00    +0.000 A 
ATOM     12  C   UNL     1     104.983 123.083  81.703  0.00  0.00    +0.000 A 
ATOM     13  C   UNL     1     105.009 123.616  80.415  0.00  0.00    +0.000 A 
ATOM     14  C   UNL     1     104.254 124.748  80.119  0.00  0.00    +0.000 A 
ATOM     15  C   UNL     1     103.474 125.343  81.111  0.00  0.00    +0.000 A 
ENDBRANCH   9  10
ENDBRANCH   1   9
TORSDOF 3
ENDMDL
