MODEL 1
REMARK VINA RESULT:      -4.8      0.000      0.000
REMARK  Name = *****
REMARK  6 active torsions:
REMARK  status: ('A' for Active; 'I' for Inactive)
REMARK    1  A    between atoms: C_1  and  C_2
REMARK    2  A    between atoms: C_4  and  C_5
REMARK    3  A    between atoms: C_6  and  C_7
REMARK    4  A    between atoms: C_8  and  C_13
REMARK    5  A    between atoms: C_10  and  C_12
REMARK    6  A    between atoms: C_14  and  C_16
REMARK                            x       y       z     vdW  Elec       q    Type
REMARK                         _______ _______ _______ _____ _____    ______ ____
ROOT
ATOM      1  C   UNL     1     102.789 126.580  81.506  0.00  0.00    +0.000 C 
ATOM      2  C   UNL     1     103.302 125.222  81.559  0.00  0.00    +0.000 C 
ENDROOT
BRANCH   1   6
ATOM      3  C   UNL     1      98.439 127.450  83.771  0.00  0.00    +0.000 C 
ATOM      4  C   UNL     1      99.848 127.471  83.307  0.00  0.00    +0.000 C 
ATOM      5  C   UNL     1     100.440 126.675  82.393  0.00  0.00    +0.000 C 
ATOM      6  C   UNL     1     101.831 127.096  82.294  0.00  0.00    +0.000 C 
ATOM      7  C   UNL     1     102.014 128.208  83.225  0.00  0.00    +0.000 C 
ATOM      8  C   UNL     1     100.825 128.418  83.819  0.00  0.00    +0.000 C 
ATOM      9  C   UNL     1     103.281 128.950  83.454  0.00  0.00    +0.000 C 
ENDBRANCH   1   6
BRANCH   2  10
ATOM     10  C   UNL     1     104.260 124.704  80.774  0.00  0.00    +0.000 C 
ATOM     11  C   UNL     1     104.878 123.390  80.949  0.00  0.00    +0.000 C 
ATOM     12  C   UNL     1     105.785 123.252  79.962  0.00  0.00    +0.000 C 
ATOM     13  C   UNL     1     105.784 124.446  79.132  0.00  0.00    +0.000 C 
ATOM     14  C   UNL     1     104.878 125.317  79.609  0.00  0.00    +0.000 C 
ATOM     15  C   UNL     1     106.678 124.599  77.958  0.00  0.00    +0.000 C 
ATOM     16  C   UNL     1     104.551 122.414  82.018  0.00  0.00    +0.000 C 
ENDBRANCH   2  10
TORSDOF 2
ENDMDL
