MODEL 1
REMARK VINA RESULT:      -4.3      0.000      0.000
REMARK  Name = *****
REMARK  4 active torsions:
REMARK  status: ('A' for Active; 'I' for Inactive)
REMARK    1  A    between atoms: C_4  and  S_7
REMARK    2  A    between atoms: S_7  and  C_8
REMARK    3  A    between atoms: C_8  and  C_9
REMARK    4  A    between atoms: C_9  and  C_11
REMARK                            x       y       z     vdW  Elec       q    Type
REMARK                         _______ _______ _______ _____ _____    ______ ____
ROOT
ATOM      1  C   UNL     1     102.958 127.568  83.123  0.00  0.00    +0.000 C 
ATOM      2  O   UNL     1     103.402 126.783  83.960  0.00  0.00    +0.000 OA
ENDROOT
BRANCH   1   3
ATOM      3  C   UNL     1     101.485 127.767  83.076  0.00  0.00    +0.000 A 
ATOM      4  C   UNL     1     100.948 128.944  83.617  0.00  0.00    +0.000 A 
ATOM      5  C   UNL     1      99.569 129.170  83.588  0.00  0.00    +0.000 A 
ATOM      6  C   UNL     1      98.719 128.226  83.014  0.00  0.00    +0.000 A 
ATOM      7  C   UNL     1      99.246 127.059  82.462  0.00  0.00    +0.000 A 
ATOM      8  C   UNL     1     100.622 126.838  82.493  0.00  0.00    +0.000 A 
ATOM      9  F   UNL     1     101.091 125.717  81.925  0.00  0.00    +0.000 F 
ENDBRANCH   1   3
BRANCH   1  10
ATOM     10  C   UNL     1     103.826 128.369  82.162  0.00  0.00    +0.000 C 
BRANCH  10  11
ATOM     11  S   UNL     1     103.790 127.670  80.479  0.00  0.00    +0.000 S 
BRANCH  11  15
ATOM     12  C   UNL     1     105.904 123.602  79.759  0.00  0.00    +0.000 C 
ATOM     13  C   UNL     1     106.791 124.804  80.065  0.00  0.00    +0.000 C 
ATOM     14  C   UNL     1     106.033 126.123  79.907  0.00  0.00    +0.000 C 
ATOM     15  C   UNL     1     104.758 126.139  80.757  0.00  0.00    +0.000 C 
ATOM     16  C   UNL     1     103.867 124.932  80.434  0.00  0.00    +0.000 C 
ATOM     17  C   UNL     1     104.630 123.618  80.598  0.00  0.00    +0.000 C 
ENDBRANCH  11  15
ENDBRANCH  10  11
ENDBRANCH   1  10
TORSDOF 4
ENDMDL
