MODEL 1
REMARK VINA RESULT:      -4.5      0.000      0.000
REMARK  Name = *****
REMARK  4 active torsions:
REMARK  status: ('A' for Active; 'I' for Inactive)
REMARK    1  A    between atoms: C_4  and  C_7
REMARK    2  A    between atoms: C_7  and  C_8
REMARK    3  A    between atoms: C_8  and  C_9
REMARK    4  A    between atoms: C_9  and  C_11
REMARK                            x       y       z     vdW  Elec       q    Type
REMARK                         _______ _______ _______ _____ _____    ______ ____
ROOT
ATOM      1  C   UNL     1      97.257 116.562  80.021  0.00  0.00    +0.000 C 
ATOM      2  O   UNL     1      96.809 115.634  80.690  0.00  0.00    +0.000 OA
ENDROOT
BRANCH   1   3
ATOM      3  C   UNL     1      97.157 117.957  80.553  0.00  0.00    +0.000 A 
ATOM      4  C   UNL     1      95.880 118.480  80.817  0.00  0.00    +0.000 A 
ATOM      5  C   UNL     1      95.735 119.777  81.311  0.00  0.00    +0.000 A 
ATOM      6  C   UNL     1      96.865 120.551  81.542  0.00  0.00    +0.000 A 
ATOM      7  C   UNL     1      98.136 120.052  81.287  0.00  0.00    +0.000 A 
ATOM      8  C   UNL     1      98.287 118.752  80.792  0.00  0.00    +0.000 A 
ATOM      9  F   UNL     1      96.728 121.796  82.016  0.00  0.00    +0.000 F 
ENDBRANCH   1   3
BRANCH   1  10
ATOM     10  C   UNL     1      97.912 116.345  78.670  0.00  0.00    +0.000 C 
BRANCH  10  11
ATOM     11  C   UNL     1      96.984 115.612  77.701  0.00  0.00    +0.000 C 
BRANCH  11  15
ATOM     12  C   UNL     1      94.917 118.422  75.167  0.00  0.00    +0.000 A 
ATOM     13  C   UNL     1      96.030 117.735  74.685  0.00  0.00    +0.000 A 
ATOM     14  C   UNL     1      96.696 116.820  75.502  0.00  0.00    +0.000 A 
ATOM     15  C   UNL     1      96.250 116.581  76.808  0.00  0.00    +0.000 A 
ATOM     16  C   UNL     1      95.134 117.280  77.286  0.00  0.00    +0.000 A 
ATOM     17  C   UNL     1      94.470 118.195  76.466  0.00  0.00    +0.000 A 
ENDBRANCH  11  15
ENDBRANCH  10  11
ENDBRANCH   1  10
TORSDOF 4
ENDMDL
