MODEL 1
REMARK VINA RESULT:      -4.6      0.000      0.000
REMARK  Name = *****
REMARK  3 active torsions:
REMARK  status: ('A' for Active; 'I' for Inactive)
REMARK    1  A    between atoms: C_5  and  O_7
REMARK    2  A    between atoms: O_7  and  C_8
REMARK    3  A    between atoms: C_8  and  C_9
REMARK                            x       y       z     vdW  Elec       q    Type
REMARK                         _______ _______ _______ _____ _____    ______ ____
ROOT
ATOM      1  O   UNL     1     101.532 126.009  82.185  0.00  0.00    +0.000 OA
ENDROOT
BRANCH   1   6
ATOM      2  C   UNL     1     100.658 129.155  83.764  0.00  0.00    +0.000 A 
ATOM      3  C   UNL     1      99.271 129.203  83.637  0.00  0.00    +0.000 A 
ATOM      4  C   UNL     1      98.600 128.158  83.006  0.00  0.00    +0.000 A 
ATOM      5  C   UNL     1      99.315 127.070  82.506  0.00  0.00    +0.000 A 
ATOM      6  C   UNL     1     100.705 127.007  82.625  0.00  0.00    +0.000 A 
ATOM      7  C   UNL     1     101.369 128.063  83.259  0.00  0.00    +0.000 A 
ATOM      8  F   UNL     1      98.617 126.094  81.906  0.00  0.00    +0.000 F 
ENDBRANCH   1   6
BRANCH   1   9
ATOM      9  C   UNL     1     102.571 125.585  83.066  0.00  0.00    +0.000 C 
BRANCH   9  10
ATOM     10  C   UNL     1     103.549 124.725  82.292  0.00  0.00    +0.000 A 
ATOM     11  C   UNL     1     103.764 124.951  80.924  0.00  0.00    +0.000 A 
ATOM     12  C   UNL     1     104.644 124.140  80.205  0.00  0.00    +0.000 A 
ATOM     13  C   UNL     1     105.303 123.100  80.849  0.00  0.00    +0.000 A 
ATOM     14  C   UNL     1     105.096 122.852  82.201  0.00  0.00    +0.000 A 
ATOM     15  C   UNL     1     104.218 123.661  82.921  0.00  0.00    +0.000 A 
ATOM     16  F   UNL     1     106.145 122.322  80.157  0.00  0.00    +0.000 F 
ENDBRANCH   9  10
ENDBRANCH   1   9
TORSDOF 3
ENDMDL
