MODEL 1
REMARK VINA RESULT:      -4.5      0.000      0.000
REMARK  Name = *****
REMARK  4 active torsions:
REMARK  status: ('A' for Active; 'I' for Inactive)
REMARK    1  A    between atoms: C_1  and  C_2
REMARK    2  A    between atoms: C_5  and  O_8
REMARK    3  A    between atoms: O_8  and  P_9
REMARK    4  A    between atoms: P_9  and  C_10
REMARK                            x       y       z     vdW  Elec       q    Type
REMARK                         _______ _______ _______ _____ _____    ______ ____
ROOT
ATOM      1  O   UNL     1      87.624  70.702  85.808  0.00  0.00    +0.000 OA
ENDROOT
BRANCH   1   6
ATOM      2  C   UNL     1      83.127  73.096  88.313  0.00  0.00    +0.000 C 
ATOM      3  C   UNL     1      84.290  72.441  87.627  0.00  0.00    +0.000 A 
ATOM      4  C   UNL     1      85.335  71.888  88.375  0.00  0.00    +0.000 A 
ATOM      5  C   UNL     1      86.432  71.308  87.734  0.00  0.00    +0.000 A 
ATOM      6  C   UNL     1      86.496  71.273  86.339  0.00  0.00    +0.000 A 
ATOM      7  C   UNL     1      85.474  71.852  85.587  0.00  0.00    +0.000 A 
ATOM      8  C   UNL     1      84.376  72.434  86.229  0.00  0.00    +0.000 A 
ENDBRANCH   1   6
BRANCH   1   9
ATOM      9  P   UNL     1      89.011  70.476  86.610  0.00  0.00    +0.000 P 
ATOM     10 CL   UNL     1      90.359  70.766  85.022  0.00  0.00    +0.000 Cl
BRANCH   9  11
ATOM     11  C   UNL     1      89.036  68.646  86.728  0.00  0.00    +0.000 A 
ATOM     12  C   UNL     1      87.959  67.972  87.331  0.00  0.00    +0.000 A 
ATOM     13  C   UNL     1      87.936  66.577  87.412  0.00  0.00    +0.000 A 
ATOM     14  C   UNL     1      88.985  65.831  86.885  0.00  0.00    +0.000 A 
ATOM     15  C   UNL     1      90.057  66.478  86.275  0.00  0.00    +0.000 A 
ATOM     16  C   UNL     1      90.081  67.874  86.193  0.00  0.00    +0.000 A 
ENDBRANCH   9  11
ENDBRANCH   1   9
TORSDOF 3
ENDMDL
