MODEL 1
REMARK VINA RESULT:      -5.0      0.000      0.000
REMARK  Name = *****
REMARK  3 active torsions:
REMARK  status: ('A' for Active; 'I' for Inactive)
REMARK    1  A    between atoms: C_1  and  C_2
REMARK    2  A    between atoms: C_5  and  C_8
REMARK    3  A    between atoms: C_9  and  C_10
REMARK                            x       y       z     vdW  Elec       q    Type
REMARK                         _______ _______ _______ _____ _____    ______ ____
ROOT
ATOM      1  C   UNL     1     102.796 125.610  81.196  0.00  0.00    +0.000 C 
ATOM      2  C   UNL     1     102.521 126.158  82.390  0.00  0.00    +0.000 C 
ENDROOT
BRANCH   1   7
ATOM      3  C   UNL     1     107.435 122.238  80.403  0.00  0.00    +0.000 C 
ATOM      4  C   UNL     1     106.216 123.093  80.581  0.00  0.00    +0.000 A 
ATOM      5  C   UNL     1     105.890 124.073  79.637  0.00  0.00    +0.000 A 
ATOM      6  C   UNL     1     104.772 124.892  79.821  0.00  0.00    +0.000 A 
ATOM      7  C   UNL     1     103.961 124.745  80.953  0.00  0.00    +0.000 A 
ATOM      8  C   UNL     1     104.306 123.786  81.911  0.00  0.00    +0.000 A 
ATOM      9  C   UNL     1     105.424 122.966  81.727  0.00  0.00    +0.000 A 
ENDBRANCH   1   7
BRANCH   2  10
ATOM     10  C   UNL     1     101.386 127.021  82.702  0.00  0.00    +0.000 C 
ATOM     11  C   UNL     1     100.150 126.629  82.343  0.00  0.00    +0.000 C 
ATOM     12  C   UNL     1      98.966 127.495  82.563  0.00  0.00    +0.000 C 
ATOM     13  O   UNL     1      97.856 127.097  82.216  0.00  0.00    +0.000 OA
ATOM     14  C   UNL     1      99.183 128.879  83.124  0.00  0.00    +0.000 C 
ATOM     15  C   UNL     1     100.361 128.887  84.083  0.00  0.00    +0.000 C 
ATOM     16  C   UNL     1     101.625 128.329  83.427  0.00  0.00    +0.000 C 
ENDBRANCH   2  10
TORSDOF 2
ENDMDL
