MODEL 1
REMARK VINA RESULT:      -4.1      0.000      0.000
REMARK  Name = *****
REMARK  3 active torsions:
REMARK  status: ('A' for Active; 'I' for Inactive)
REMARK    1  A    between atoms: C_4  and  C_6
REMARK    2  A    between atoms: C_6  and  C_7
REMARK    3  A    between atoms: C_7  and  C_8
REMARK                            x       y       z     vdW  Elec       q    Type
REMARK                         _______ _______ _______ _____ _____    ______ ____
ROOT
ATOM      1  C   UNL     1      88.491  70.337  88.200  0.00  0.00    +0.000 C 
ENDROOT
BRANCH   1   2
ATOM      2  C   UNL     1      87.206  71.005  87.769  0.00  0.00    +0.000 A 
ATOM      3  C   UNL     1      86.283  71.454  88.724  0.00  0.00    +0.000 A 
ATOM      4  C   UNL     1      85.091  72.061  88.326  0.00  0.00    +0.000 A 
ATOM      5  C   UNL     1      84.817  72.223  86.970  0.00  0.00    +0.000 A 
ATOM      6  C   UNL     1      85.724  71.782  86.009  0.00  0.00    +0.000 A 
ATOM      7  C   UNL     1      86.915  71.173  86.408  0.00  0.00    +0.000 A 
ATOM      8 CL   UNL     1      83.347  72.972  86.478  0.00  0.00    +0.000 Cl
ENDBRANCH   1   2
BRANCH   1   9
ATOM      9  C   UNL     1      89.339  69.900  87.004  0.00  0.00    +0.000 C 
BRANCH   9  13
ATOM     10  C   UNL     1      88.833  66.248  86.579  0.00  0.00    +0.000 A 
ATOM     11  C   UNL     1      90.159  66.491  86.309  0.00  0.00    +0.000 A 
ATOM     12  O   UNL     1      90.437  67.813  86.444  0.00  0.00    +0.000 OA
ATOM     13  C   UNL     1      89.275  68.429  86.800  0.00  0.00    +0.000 A 
ATOM     14  C   UNL     1      88.259  67.502  86.898  0.00  0.00    +0.000 A 
ENDBRANCH   9  13
ENDBRANCH   1   9
TORSDOF 3
ENDMDL
