REMARK  Name = *****
REMARK  6 active torsions:
REMARK  status: ('A' for Active; 'I' for Inactive)
REMARK    1  A    between atoms: C_1  and  O_2
REMARK    2  A    between atoms: O_2  and  C_3
REMARK    3  A    between atoms: C_5  and  C_11
REMARK    4  A    between atoms: C_6  and  O_9
REMARK    5  A    between atoms: O_9  and  C_10
REMARK    6  A    between atoms: C_12  and  C_13
REMARK                            x       y       z     vdW  Elec       q    Type
REMARK                         _______ _______ _______ _____ _____    ______ ____
ROOT
ATOM      1  C   UNL     1       3.215  -0.856  -0.784  0.00  0.00    +0.000 A 
ATOM      2  C   UNL     1       2.745  -0.730  -2.095  0.00  0.00    +0.000 A 
ATOM      3  C   UNL     1       3.420  -1.343  -3.167  0.00  0.00    +0.000 A 
ATOM      4  C   UNL     1       4.556  -2.121  -2.887  0.00  0.00    +0.000 A 
ATOM      5  C   UNL     1       5.044  -2.228  -1.584  0.00  0.00    +0.000 A 
ATOM      6  C   UNL     1       4.370  -1.601  -0.538  0.00  0.00    +0.000 A 
ENDROOT
BRANCH   1   8
ATOM      7  C   UNL     1       1.469   0.470   0.140  0.00  0.00    +0.000 C 
ATOM      8  O   UNL     1       2.648  -0.302   0.331  0.00  0.00    +0.000 OA
ENDBRANCH   1   8
BRANCH   4   9
ATOM      9  O   UNL     1       5.258  -2.755  -3.881  0.00  0.00    +0.000 OA
ATOM     10  C   UNL     1       4.762  -4.082  -4.059  0.00  0.00    +0.000 C 
ENDBRANCH   4   9
BRANCH   3  11
ATOM     11  C   UNL     1       2.856  -1.165  -4.516  0.00  0.00    +0.000 C 
ATOM     12  C   UNL     1       3.597  -0.861  -5.593  0.00  0.00    +0.000 C 
BRANCH  12  13
ATOM     13  C   UNL     1       3.038  -0.697  -6.941  0.00  0.00    +0.000 A 
ATOM     14  C   UNL     1       3.723  -1.251  -8.029  0.00  0.00    +0.000 A 
ATOM     15  C   UNL     1       3.226  -1.093  -9.323  0.00  0.00    +0.000 A 
ATOM     16  C   UNL     1       2.055  -0.373  -9.550  0.00  0.00    +0.000 A 
ATOM     17  C   UNL     1       1.376   0.196  -8.474  0.00  0.00    +0.000 A 
ATOM     18  C   UNL     1       1.868   0.038  -7.175  0.00  0.00    +0.000 A 
ATOM     19 CL   UNL     1       4.068  -1.792 -10.652  0.00  0.00    +0.000 Cl
ENDBRANCH  12  13
ENDBRANCH   3  11
TORSDOF 4
