MODEL 1
REMARK VINA RESULT:      -4.6      0.000      0.000
REMARK  Name = *****
REMARK  5 active torsions:
REMARK  status: ('A' for Active; 'I' for Inactive)
REMARK    1  A    between atoms: C_1  and  C_2
REMARK    2  A    between atoms: C_5  and  C_8
REMARK    3  A    between atoms: C_8  and  C_9
REMARK    4  A    between atoms: C_8  and  S_10
REMARK    5  A    between atoms: S_10  and  C_11
REMARK                            x       y       z     vdW  Elec       q    Type
REMARK                         _______ _______ _______ _____ _____    ______ ____
ROOT
ATOM      1  C   UNL     1      87.792  70.771  85.610  0.00  0.00    +0.000 C 
ATOM      2  C   UNL     1      88.350  71.692  84.523  0.00  0.00    +0.000 C 
ENDROOT
BRANCH   1   7
ATOM      3  C   UNL     1      83.096  73.047  88.245  0.00  0.00    +0.000 C 
ATOM      4  C   UNL     1      84.283  72.435  87.560  0.00  0.00    +0.000 A 
ATOM      5  C   UNL     1      85.326  71.884  88.309  0.00  0.00    +0.000 A 
ATOM      6  C   UNL     1      86.448  71.345  87.673  0.00  0.00    +0.000 A 
ATOM      7  C   UNL     1      86.555  71.354  86.273  0.00  0.00    +0.000 A 
ATOM      8  C   UNL     1      85.512  71.927  85.530  0.00  0.00    +0.000 A 
ATOM      9  C   UNL     1      84.391  72.465  86.166  0.00  0.00    +0.000 A 
ENDBRANCH   1   7
BRANCH   1  10
ATOM     10  S   UNL     1      89.124  70.411  86.826  0.00  0.00    +0.000 S 
BRANCH  10  11
ATOM     11  C   UNL     1      89.029  68.631  86.851  0.00  0.00    +0.000 A 
ATOM     12  C   UNL     1      87.923  67.993  87.417  0.00  0.00    +0.000 A 
ATOM     13  C   UNL     1      87.851  66.597  87.435  0.00  0.00    +0.000 A 
ATOM     14  C   UNL     1      88.882  65.838  86.886  0.00  0.00    +0.000 A 
ATOM     15  C   UNL     1      89.984  66.472  86.312  0.00  0.00    +0.000 A 
ATOM     16  C   UNL     1      90.056  67.865  86.291  0.00  0.00    +0.000 A 
ENDBRANCH  10  11
ENDBRANCH   1  10
TORSDOF 3
ENDMDL
