MODEL 1
REMARK VINA RESULT:      -5.1      0.000      0.000
REMARK  Name = *****
REMARK  4 active torsions:
REMARK  status: ('A' for Active; 'I' for Inactive)
REMARK    1  A    between atoms: C_1  and  C_2
REMARK    2  A    between atoms: C_4  and  C_11
REMARK    3  A    between atoms: C_6  and  C_10
REMARK    4  A    between atoms: C_12  and  C_13
REMARK                            x       y       z     vdW  Elec       q    Type
REMARK                         _______ _______ _______ _____ _____    ______ ____
ROOT
ATOM      1  C   UNL     1     106.553 124.582  78.150  0.00  0.00    +0.000 C 
ATOM      2  C   UNL     1     105.929 124.537  79.537  0.00  0.00    +0.000 C 
ATOM      3  C   UNL     1     104.778 125.568  79.715  0.00  0.00    +0.000 C 
ATOM      4  C   UNL     1     103.875 125.232  80.908  0.00  0.00    +0.000 C 
ATOM      5  C   UNL     1     104.101 124.090  81.598  0.00  0.00    +0.000 C 
ATOM      6  C   UNL     1     105.234 123.163  81.201  0.00  0.00    +0.000 C 
ATOM      7  O   UNL     1     105.339 123.231  79.754  0.00  0.00    +0.000 OA
ATOM      8  C   UNL     1     106.550 123.757  81.615  0.00  0.00    +0.000 C 
ATOM      9  C   UNL     1     106.950 124.587  80.642  0.00  0.00    +0.000 C 
ATOM     10  C   UNL     1     105.030 121.712  81.604  0.00  0.00    +0.000 C 
ENDROOT
BRANCH   4  11
ATOM     11  C   UNL     1     102.798 126.130  81.294  0.00  0.00    +0.000 C 
ATOM     12  C   UNL     1     102.078 126.052  82.426  0.00  0.00    +0.000 C 
BRANCH  12  13
ATOM     13  C   UNL     1     100.995 126.986  82.768  0.00  0.00    +0.000 A 
ATOM     14  C   UNL     1      99.666 126.760  82.384  0.00  0.00    +0.000 A 
ATOM     15  C   UNL     1      98.669 127.687  82.699  0.00  0.00    +0.000 A 
ATOM     16  C   UNL     1      98.991 128.852  83.392  0.00  0.00    +0.000 A 
ATOM     17  C   UNL     1     100.311 129.095  83.763  0.00  0.00    +0.000 A 
ATOM     18  C   UNL     1     101.309 128.170  83.448  0.00  0.00    +0.000 A 
ENDBRANCH  12  13
ENDBRANCH   4  11
TORSDOF 2
ENDMDL
