MODEL 1
REMARK VINA RESULT:      -4.7      0.000      0.000
REMARK  Name = *****
REMARK  2 active torsions:
REMARK  status: ('A' for Active; 'I' for Inactive)
REMARK    1  A    between atoms: C_1  and  C_2
REMARK    2  A    between atoms: C_3  and  C_7
REMARK                            x       y       z     vdW  Elec       q    Type
REMARK                         _______ _______ _______ _____ _____    ______ ____
ROOT
ATOM      1  C   UNL     1      89.350  70.086  87.559  0.00  0.00    +0.000 C 
ATOM      2  C   UNL     1      88.140  70.512  87.955  0.00  0.00    +0.000 C 
ATOM      3  C   UNL     1      86.827  70.416  87.205  0.00  0.00    +0.000 C 
ATOM      4  C   UNL     1      85.853  71.364  87.918  0.00  0.00    +0.000 C 
ATOM      5  C   UNL     1      86.538  71.641  89.218  0.00  0.00    +0.000 A 
ATOM      6  C   UNL     1      86.004  72.315  90.307  0.00  0.00    +0.000 A 
ATOM      7  C   UNL     1      86.809  72.516  91.428  0.00  0.00    +0.000 A 
ATOM      8  C   UNL     1      88.131  72.050  91.445  0.00  0.00    +0.000 A 
ATOM      9  C   UNL     1      88.662  71.379  90.340  0.00  0.00    +0.000 A 
ATOM     10  C   UNL     1      87.857  71.180  89.227  0.00  0.00    +0.000 A 
ENDROOT
BRANCH   1  13
ATOM     11  C   UNL     1      89.740  71.483  84.752  0.00  0.00    +0.000 C 
ATOM     12  C   UNL     1      89.729  70.017  85.043  0.00  0.00    +0.000 A 
ATOM     13  C   UNL     1      89.548  69.453  86.301  0.00  0.00    +0.000 A 
ATOM     14  S   UNL     1      89.636  67.737  86.245  0.00  0.00    +0.000 S 
ATOM     15  C   UNL     1      89.867  67.733  84.555  0.00  0.00    +0.000 A 
ATOM     16  C   UNL     1      89.899  69.007  84.039  0.00  0.00    +0.000 A 
ENDBRANCH   1  13
TORSDOF 1
ENDMDL
