MODEL 1
REMARK VINA RESULT:      -5.0      0.000      0.000
REMARK  Name = *****
REMARK  2 active torsions:
REMARK  status: ('A' for Active; 'I' for Inactive)
REMARK    1  A    between atoms: C_1  and  C_2
REMARK    2  A    between atoms: C_9  and  C_11
REMARK                            x       y       z     vdW  Elec       q    Type
REMARK                         _______ _______ _______ _____ _____    ______ ____
ROOT
ATOM      1  C   UNL     1     106.072 123.808  79.165  0.00  0.00    +0.000 C 
ATOM      2  C   UNL     1     105.158 124.226  80.282  0.00  0.00    +0.000 A 
ATOM      3  C   UNL     1     104.291 125.318  80.103  0.00  0.00    +0.000 A 
ATOM      4  C   UNL     1     103.457 125.618  81.174  0.00  0.00    +0.000 A 
ATOM      5  C   UNL     1     103.422 124.921  82.368  0.00  0.00    +0.000 A 
ATOM      6  C   UNL     1     104.276 123.825  82.537  0.00  0.00    +0.000 A 
ATOM      7  C   UNL     1     105.137 123.487  81.480  0.00  0.00    +0.000 A 
ATOM      8  N   UNL     1     102.489 125.478  83.205  0.00  0.00    +0.000 NA
ATOM      9  C   UNL     1     101.993 126.484  82.501  0.00  0.00    +0.000 A 
ATOM     10  O   UNL     1     102.541 126.623  81.251  0.00  0.00    +0.000 OA
ENDROOT
BRANCH   9  11
ATOM     11  C   UNL     1     100.957 127.436  82.890  0.00  0.00    +0.000 A 
ATOM     12  C   UNL     1     101.323 128.587  83.610  0.00  0.00    +0.000 A 
ATOM     13  C   UNL     1     100.366 129.528  84.003  0.00  0.00    +0.000 A 
ATOM     14  C   UNL     1      99.025 129.333  83.683  0.00  0.00    +0.000 A 
ATOM     15  C   UNL     1      98.644 128.198  82.971  0.00  0.00    +0.000 A 
ATOM     16  C   UNL     1      99.605 127.262  82.580  0.00  0.00    +0.000 A 
ATOM     17  F   UNL     1      99.179 126.189  81.897  0.00  0.00    +0.000 F 
ENDBRANCH   9  11
TORSDOF 1
ENDMDL
