MODEL 1
REMARK VINA RESULT:      -4.6      0.000      0.000
REMARK  Name = *****
REMARK  5 active torsions:
REMARK  status: ('A' for Active; 'I' for Inactive)
REMARK    1  A    between atoms: C_1  and  C_2
REMARK    2  A    between atoms: C_2  and  O_3
REMARK    3  A    between atoms: O_3  and  C_4
REMARK    4  A    between atoms: C_10  and  C_11
REMARK    5  A    between atoms: C_12  and  C_13
REMARK                            x       y       z     vdW  Elec       q    Type
REMARK                         _______ _______ _______ _____ _____    ______ ____
ROOT
ATOM      1  C   UNL     1     105.070 123.989  80.828  0.00  0.00    +0.000 C 
ATOM      2  C   UNL     1     105.614 124.224  82.219  0.00  0.00    +0.000 C 
ATOM      3  C   UNL     1     107.137 124.386  82.172  0.00  0.00    +0.000 C 
ATOM      4  C   UNL     1     107.618 125.414  81.132  0.00  0.00    +0.000 C 
ATOM      5  C   UNL     1     106.479 126.055  80.333  0.00  0.00    +0.000 C 
ATOM      6  C   UNL     1     105.563 124.988  79.808  0.00  0.00    +0.000 C 
ATOM      7  C   UNL     1     104.084 124.885  80.092  0.00  0.00    +0.000 C 
ENDROOT
BRANCH   7   8
ATOM      8  C   UNL     1     103.320 125.942  80.771  0.00  0.00    +0.000 C 
ATOM      9  C   UNL     1     102.461 125.750  81.788  0.00  0.00    +0.000 C 
ATOM     10 CL   UNL     1     103.482 127.497  80.002  0.00  0.00    +0.000 Cl
BRANCH   9  11
ATOM     11  C   UNL     1     101.648 126.769  82.460  0.00  0.00    +0.000 A 
ATOM     12  C   UNL     1     102.282 127.813  83.142  0.00  0.00    +0.000 A 
ATOM     13  C   UNL     1     101.526 128.809  83.765  0.00  0.00    +0.000 A 
ATOM     14  C   UNL     1     100.133 128.769  83.704  0.00  0.00    +0.000 A 
ATOM     15  C   UNL     1      99.496 127.737  83.017  0.00  0.00    +0.000 A 
ATOM     16  C   UNL     1     100.251 126.742  82.393  0.00  0.00    +0.000 A 
ENDBRANCH   9  11
ENDBRANCH   7   8
BRANCH   1  17
ATOM     17  O   UNL     1     105.157 122.614  80.381  0.00  0.00    +0.000 OA
BRANCH  17  19
ATOM     18  C   UNL     1     105.881 120.694  81.598  0.00  0.00    +0.000 C 
ATOM     19  C   UNL     1     104.739 121.662  81.357  0.00  0.00    +0.000 C 
ENDBRANCH  17  19
ENDBRANCH   1  17
TORSDOF 4
ENDMDL
