MODEL 1
REMARK VINA RESULT:      -4.7      0.000      0.000
REMARK  Name = *****
REMARK  2 active torsions:
REMARK  status: ('A' for Active; 'I' for Inactive)
REMARK    1  A    between atoms: C_4  and  C_7
REMARK    2  A    between atoms: N_9  and  C_10
REMARK                            x       y       z     vdW  Elec       q    Type
REMARK                         _______ _______ _______ _____ _____    ______ ____
ROOT
ATOM      1  C   UNL     1     103.287 126.399  82.550  0.00  0.00    +0.000 C 
ATOM      2  C   UNL     1     104.142 126.661  81.328  0.00  0.00    +0.000 C 
ATOM      3  N   UNL     1     103.415 125.401  81.480  0.00  0.00    +0.000 N 
ATOM      4 CL   UNL     1     103.558 127.678  80.014  0.00  0.00    +0.000 Cl
ATOM      5 CL   UNL     1     105.881 126.763  81.549  0.00  0.00    +0.000 Cl
ENDROOT
BRANCH   1   9
ATOM      6  C   UNL     1      99.409 128.245  83.162  0.00  0.00    +0.000 A 
ATOM      7  C   UNL     1      99.498 127.005  82.536  0.00  0.00    +0.000 A 
ATOM      8  C   UNL     1     100.748 126.413  82.335  0.00  0.00    +0.000 A 
ATOM      9  C   UNL     1     101.935 127.044  82.745  0.00  0.00    +0.000 A 
ATOM     10  C   UNL     1     101.814 128.291  83.384  0.00  0.00    +0.000 A 
ATOM     11  C   UNL     1     100.568 128.888  83.588  0.00  0.00    +0.000 A 
ENDBRANCH   1   9
BRANCH   3  12
ATOM     12  C   UNL     1     104.074 124.164  81.670  0.00  0.00    +0.000 A 
ATOM     13  C   UNL     1     104.230 123.486  82.885  0.00  0.00    +0.000 A 
ATOM     14  C   UNL     1     104.883 122.249  82.941  0.00  0.00    +0.000 A 
ATOM     15  C   UNL     1     105.383 121.664  81.782  0.00  0.00    +0.000 A 
ATOM     16  C   UNL     1     105.230 122.314  80.562  0.00  0.00    +0.000 A 
ATOM     17  C   UNL     1     104.579 123.549  80.510  0.00  0.00    +0.000 A 
ENDBRANCH   3  12
TORSDOF 2
ENDMDL
