MODEL 1
REMARK VINA RESULT:      -4.7      0.000      0.000
REMARK  Name = *****
REMARK  3 active torsions:
REMARK  status: ('A' for Active; 'I' for Inactive)
REMARK    1  A    between atoms: C_1  and  C_2
REMARK    2  A    between atoms: C_5  and  C_8
REMARK    3  A    between atoms: C_9  and  C_10
REMARK                            x       y       z     vdW  Elec       q    Type
REMARK                         _______ _______ _______ _____ _____    ______ ____
ROOT
ATOM      1  C   UNL     1     102.908 125.327  82.136  0.00  0.00    +0.000 C 
ATOM      2  C   UNL     1     102.059 126.132  82.405  0.00  0.00    +0.000 C 
ENDROOT
BRANCH   1   7
ATOM      3  C   UNL     1     106.984 121.497  80.856  0.00  0.00    +0.000 C 
ATOM      4  C   UNL     1     105.898 122.479  81.183  0.00  0.00    +0.000 A 
ATOM      5  C   UNL     1     105.397 123.338  80.197  0.00  0.00    +0.000 A 
ATOM      6  C   UNL     1     104.409 124.275  80.511  0.00  0.00    +0.000 A 
ATOM      7  C   UNL     1     103.919 124.367  81.815  0.00  0.00    +0.000 A 
ATOM      8  C   UNL     1     104.425 123.525  82.806  0.00  0.00    +0.000 A 
ATOM      9  C   UNL     1     105.414 122.588  82.492  0.00  0.00    +0.000 A 
ENDBRANCH   1   7
BRANCH   2  10
ATOM     10  C   UNL     1     101.055 127.095  82.724  0.00  0.00    +0.000 C 
ATOM     11  C   UNL     1      99.770 126.819  82.442  0.00  0.00    +0.000 C 
ATOM     12  C   UNL     1      98.635 127.761  82.721  0.00  0.00    +0.000 C 
ATOM     13  C   UNL     1      99.096 129.177  83.073  0.00  0.00    +0.000 C 
ATOM     14  C   UNL     1     100.296 129.147  84.013  0.00  0.00    +0.000 C 
ATOM     15  C   UNL     1     101.468 128.386  83.387  0.00  0.00    +0.000 C 
ENDBRANCH   2  10
TORSDOF 2
ENDMDL
