MODEL 1
REMARK VINA RESULT:      -4.3      0.000      0.000
REMARK  Name = *****
REMARK  6 active torsions:
REMARK  status: ('A' for Active; 'I' for Inactive)
REMARK    1  A    between atoms: C_1  and  O_2
REMARK    2  A    between atoms: O_2  and  C_3
REMARK    3  A    between atoms: C_6  and  C_9
REMARK    4  A    between atoms: C_9  and  P_10
REMARK    5  A    between atoms: P_10  and  C_11
REMARK    6  A    between atoms: P_10  and  C_12
REMARK                            x       y       z     vdW  Elec       q    Type
REMARK                         _______ _______ _______ _____ _____    ______ ____
ROOT
ATOM      1  C   UNL     1      89.375  70.702  87.118  0.00  0.00    +0.000 C 
ENDROOT
BRANCH   1   5
ATOM      2  C   UNL     1      89.967  67.304  84.496  0.00  0.00    +0.000 A 
ATOM      3  C   UNL     1      89.873  67.116  85.874  0.00  0.00    +0.000 A 
ATOM      4  C   UNL     1      89.686  68.213  86.723  0.00  0.00    +0.000 A 
ATOM      5  C   UNL     1      89.600  69.518  86.212  0.00  0.00    +0.000 A 
ATOM      6  C   UNL     1      89.680  69.694  84.823  0.00  0.00    +0.000 A 
ATOM      7  C   UNL     1      89.865  68.596  83.977  0.00  0.00    +0.000 A 
BRANCH   2   9
ATOM      8  C   UNL     1      90.513  65.037  84.041  0.00  0.00    +0.000 C 
ATOM      9  O   UNL     1      90.149  66.324  83.559  0.00  0.00    +0.000 OA
ENDBRANCH   2   9
ENDBRANCH   1   5
BRANCH   1  10
ATOM     10  P   UNL     1      88.059  70.179  88.287  0.00  0.00    +0.000 P 
ATOM     11  C   UNL     1      88.532  71.106  89.794  0.00  0.00    +0.000 C 
BRANCH  10  12
ATOM     12  C   UNL     1      86.629  71.092  87.616  0.00  0.00    +0.000 A 
ATOM     13  C   UNL     1      86.522  71.246  86.223  0.00  0.00    +0.000 A 
ATOM     14  C   UNL     1      85.445  71.930  85.651  0.00  0.00    +0.000 A 
ATOM     15  C   UNL     1      84.448  72.461  86.462  0.00  0.00    +0.000 A 
ATOM     16  C   UNL     1      84.526  72.304  87.842  0.00  0.00    +0.000 A 
ATOM     17  C   UNL     1      85.605  71.620  88.413  0.00  0.00    +0.000 A 
ENDBRANCH  10  12
ENDBRANCH   1  10
TORSDOF 4
ENDMDL
