MODEL 1
REMARK VINA RESULT:      -4.8      0.000      0.000
REMARK  Name = *****
REMARK  3 active torsions:
REMARK  status: ('A' for Active; 'I' for Inactive)
REMARK    1  A    between atoms: C_2  and  C_3
REMARK    2  A    between atoms: C_8  and  C_9
REMARK    3  A    between atoms: C_10  and  C_11
REMARK                            x       y       z     vdW  Elec       q    Type
REMARK                         _______ _______ _______ _____ _____    ______ ____
ROOT
ATOM      1  C   UNL     1     101.384 128.239  83.242  0.00  0.00    +0.000 A 
ATOM      2  C   UNL     1     100.350 129.000  83.803  0.00  0.00    +0.000 A 
ATOM      3  C   UNL     1      99.019 128.611  83.643  0.00  0.00    +0.000 A 
ATOM      4  C   UNL     1      98.712 127.461  82.919  0.00  0.00    +0.000 A 
ATOM      5  C   UNL     1      99.736 126.697  82.356  0.00  0.00    +0.000 A 
ATOM      6  C   UNL     1     101.075 127.078  82.516  0.00  0.00    +0.000 A 
ENDROOT
BRANCH   1   8
ATOM      7  C   UNL     1     103.869 129.045  83.599  0.00  0.00    +0.000 C 
ATOM      8  C   UNL     1     102.738 128.676  83.436  0.00  0.00    +0.000 C 
ENDBRANCH   1   8
BRANCH   6   9
ATOM      9  C   UNL     1     102.094 126.247  81.942  0.00  0.00    +0.000 C 
ATOM     10  C   UNL     1     102.963 125.581  81.451  0.00  0.00    +0.000 C 
BRANCH  10  11
ATOM     11  C   UNL     1     104.014 124.824  80.844  0.00  0.00    +0.000 A 
ATOM     12  C   UNL     1     104.329 123.550  81.321  0.00  0.00    +0.000 A 
ATOM     13  C   UNL     1     105.375 122.827  80.744  0.00  0.00    +0.000 A 
ATOM     14  C   UNL     1     106.104 123.375  79.689  0.00  0.00    +0.000 A 
ATOM     15  C   UNL     1     105.786 124.645  79.206  0.00  0.00    +0.000 A 
ATOM     16  C   UNL     1     104.741 125.369  79.783  0.00  0.00    +0.000 A 
ENDBRANCH  10  11
ENDBRANCH   6   9
TORSDOF 3
ENDMDL
