MODEL 1
REMARK VINA RESULT:      -4.5      0.000      0.000
REMARK  Name = *****
REMARK  3 active torsions:
REMARK  status: ('A' for Active; 'I' for Inactive)
REMARK    1  A    between atoms: C_4  and  S_7
REMARK    2  A    between atoms: S_7  and  C_9
REMARK    3  A    between atoms: C_9  and  C_10
REMARK                            x       y       z     vdW  Elec       q    Type
REMARK                         _______ _______ _______ _____ _____    ______ ____
ROOT
ATOM      1  S   UNL     1      87.921  70.699  85.222  0.00  0.00    +0.000 S 
ATOM      2  O   UNL     1      88.664  71.886  84.679  0.00  0.00    +0.000 OA
ENDROOT
BRANCH   1   6
ATOM      3  C   UNL     1      84.303  72.416  87.499  0.00  0.00    +0.000 A 
ATOM      4  C   UNL     1      84.333  72.472  86.106  0.00  0.00    +0.000 A 
ATOM      5  C   UNL     1      85.426  71.953  85.409  0.00  0.00    +0.000 A 
ATOM      6  C   UNL     1      86.495  71.377  86.104  0.00  0.00    +0.000 A 
ATOM      7  C   UNL     1      86.454  71.313  87.502  0.00  0.00    +0.000 A 
ATOM      8  C   UNL     1      85.361  71.835  88.197  0.00  0.00    +0.000 A 
ENDBRANCH   1   6
BRANCH   1   9
ATOM      9  C   UNL     1      88.825  70.110  86.697  0.00  0.00    +0.000 C 
BRANCH   9  10
ATOM     10  C   UNL     1      88.906  68.604  86.741  0.00  0.00    +0.000 A 
ATOM     11  C   UNL     1      89.983  67.929  86.149  0.00  0.00    +0.000 A 
ATOM     12  C   UNL     1      90.054  66.535  86.204  0.00  0.00    +0.000 A 
ATOM     13  C   UNL     1      89.060  65.800  86.847  0.00  0.00    +0.000 A 
ATOM     14  C   UNL     1      87.988  66.464  87.443  0.00  0.00    +0.000 A 
ATOM     15  C   UNL     1      87.912  67.857  87.391  0.00  0.00    +0.000 A 
ATOM     16 CL   UNL     1      91.380  65.720  85.469  0.00  0.00    +0.000 Cl
ENDBRANCH   9  10
ENDBRANCH   1   9
TORSDOF 3
ENDMDL
