MODEL 1
REMARK VINA RESULT:      -4.4      0.000      0.000
REMARK  Name = *****
REMARK  3 active torsions:
REMARK  status: ('A' for Active; 'I' for Inactive)
REMARK    1  A    between atoms: C_3  and  C_8
REMARK    2  A    between atoms: C_8  and  O_10
REMARK    3  A    between atoms: O_10  and  C_11
REMARK                            x       y       z     vdW  Elec       q    Type
REMARK                         _______ _______ _______ _____ _____    ______ ____
ROOT
ATOM      1  C   UNL     1      87.853  70.662  86.080  0.00  0.00    +0.000 C 
ATOM      2  O   UNL     1      88.105  70.730  84.886  0.00  0.00    +0.000 OA
ENDROOT
BRANCH   1   5
ATOM      3  C   UNL     1      85.405  71.805  88.715  0.00  0.00    +0.000 A 
ATOM      4  C   UNL     1      86.521  71.250  88.087  0.00  0.00    +0.000 A 
ATOM      5  C   UNL     1      86.638  71.272  86.688  0.00  0.00    +0.000 A 
ATOM      6  C   UNL     1      85.621  71.857  85.923  0.00  0.00    +0.000 A 
ATOM      7  C   UNL     1      84.509  72.410  86.558  0.00  0.00    +0.000 A 
ATOM      8  C   UNL     1      84.396  72.386  87.947  0.00  0.00    +0.000 A 
ATOM      9 CL   UNL     1      83.260  73.127  85.615  0.00  0.00    +0.000 Cl
ENDBRANCH   1   5
BRANCH   1  10
ATOM     10  O   UNL     1      88.604  70.040  87.060  0.00  0.00    +0.000 OA
BRANCH  10  11
ATOM     11  C   UNL     1      88.735  68.654  86.917  0.00  0.00    +0.000 A 
ATOM     12  C   UNL     1      87.766  67.786  87.423  0.00  0.00    +0.000 A 
ATOM     13  C   UNL     1      87.960  66.408  87.311  0.00  0.00    +0.000 A 
ATOM     14  C   UNL     1      89.123  65.918  86.715  0.00  0.00    +0.000 A 
ATOM     15  C   UNL     1      90.099  66.793  86.232  0.00  0.00    +0.000 A 
ATOM     16  C   UNL     1      89.909  68.170  86.340  0.00  0.00    +0.000 A 
ATOM     17 CL   UNL     1      89.362  64.219  86.583  0.00  0.00    +0.000 Cl
ENDBRANCH  10  11
ENDBRANCH   1  10
TORSDOF 3
ENDMDL
