MODEL 1
REMARK VINA RESULT:      -4.2      0.000      0.000
REMARK  Name = *****
REMARK  5 active torsions:
REMARK  status: ('A' for Active; 'I' for Inactive)
REMARK    1  A    between atoms: C_4  and  C_7
REMARK    2  A    between atoms: C_7  and  C_8
REMARK    3  A    between atoms: C_8  and  C_9
REMARK    4  A    between atoms: C_9  and  C_10
REMARK    5  A    between atoms: C_10  and  C_11
REMARK                            x       y       z     vdW  Elec       q    Type
REMARK                         _______ _______ _______ _____ _____    ______ ____
ROOT
ATOM      1  C   UNL     1     103.384 126.597  82.456  0.00  0.00    +0.000 C 
ENDROOT
BRANCH   1   2
ATOM      2  C   UNL     1     104.090 126.390  81.105  0.00  0.00    +0.000 C 
ATOM      3 CL   UNL     1     103.623 127.751  80.032  0.00  0.00    +0.000 Cl
BRANCH   2   4
ATOM      4  C   UNL     1     103.741 125.053  80.449  0.00  0.00    +0.000 C 
BRANCH   4   5
ATOM      5  C   UNL     1     104.960 124.210  80.147  0.00  0.00    +0.000 C 
ATOM      6  F   UNL     1     105.930 124.423  81.064  0.00  0.00    +0.000 F 
ATOM      7  F   UNL     1     104.635 122.897  80.203  0.00  0.00    +0.000 F 
ATOM      8  F   UNL     1     105.475 124.443  78.927  0.00  0.00    +0.000 F 
ENDBRANCH   4   5
ENDBRANCH   2   4
ENDBRANCH   1   2
BRANCH   1   9
ATOM      9  C   UNL     1     101.989 125.963  82.511  0.00  0.00    +0.000 C 
BRANCH   9  13
ATOM     10  C   UNL     1      98.947 128.931  83.241  0.00  0.00    +0.000 A 
ATOM     11  C   UNL     1      98.613 127.729  82.620  0.00  0.00    +0.000 A 
ATOM     12  C   UNL     1      99.597 126.766  82.388  0.00  0.00    +0.000 A 
ATOM     13  C   UNL     1     100.922 126.996  82.779  0.00  0.00    +0.000 A 
ATOM     14  C   UNL     1     101.248 128.210  83.397  0.00  0.00    +0.000 A 
ATOM     15  C   UNL     1     100.264 129.172  83.628  0.00  0.00    +0.000 A 
ENDBRANCH   9  13
ENDBRANCH   1   9
TORSDOF 5
ENDMDL
