MODEL 1
REMARK VINA RESULT:      -4.6      0.000      0.000
REMARK  Name = *****
REMARK  1 active torsions:
REMARK  status: ('A' for Active; 'I' for Inactive)
REMARK    1  A    between atoms: C_10  and  C_11
REMARK                            x       y       z     vdW  Elec       q    Type
REMARK                         _______ _______ _______ _____ _____    ______ ____
ROOT
ATOM      1  C   UNL     1      89.024  70.848  85.472  0.00  0.00    +0.000 C 
ATOM      2  C   UNL     1      87.617  70.868  86.089  0.00  0.00    +0.000 C 
ATOM      3  C   UNL     1      87.641  69.655  87.042  0.00  0.00    +0.000 C 
ATOM      4  C   UNL     1      89.082  69.711  87.552  0.00  0.00    +0.000 C 
ATOM      5  C   UNL     1      89.682  69.628  86.147  0.00  0.00    +0.000 C 
ATOM      6  C   UNL     1      89.034  68.348  85.563  0.00  0.00    +0.000 C 
ATOM      7  C   UNL     1      87.622  68.367  86.181  0.00  0.00    +0.000 C 
ATOM      8  S   UNL     1      87.262  66.892  87.173  0.00  0.00    +0.000 S 
ATOM      9  C   UNL     1      88.759  66.057  86.930  0.00  0.00    +0.000 C 
ATOM     10  C   UNL     1      89.018  64.839  87.435  0.00  0.00    +0.000 C 
ATOM     11  S   UNL     1      89.977  66.856  85.987  0.00  0.00    +0.000 S 
ENDROOT
BRANCH  10  12
ATOM     12  C   UNL     1      88.111  64.026  88.251  0.00  0.00    +0.000 A 
ATOM     13  C   UNL     1      87.301  63.057  87.648  0.00  0.00    +0.000 A 
ATOM     14  C   UNL     1      86.441  62.280  88.425  0.00  0.00    +0.000 A 
ATOM     15  C   UNL     1      86.385  62.468  89.806  0.00  0.00    +0.000 A 
ATOM     16  C   UNL     1      87.188  63.433  90.411  0.00  0.00    +0.000 A 
ATOM     17  C   UNL     1      88.050  64.212  89.637  0.00  0.00    +0.000 A 
ENDBRANCH  10  12
TORSDOF 1
ENDMDL
