MODEL 1
REMARK VINA RESULT:      -5.0      0.000      0.000
REMARK  Name = *****
REMARK  4 active torsions:
REMARK  status: ('A' for Active; 'I' for Inactive)
REMARK    1  A    between atoms: C_1  and  C_2
REMARK    2  A    between atoms: C_5  and  C_8
REMARK    3  A    between atoms: C_8  and  C_16
REMARK    4  A    between atoms: C_9  and  C_10
REMARK                            x       y       z     vdW  Elec       q    Type
REMARK                         _______ _______ _______ _____ _____    ______ ____
ROOT
ATOM      1  C   UNL     1     102.914 125.966  81.667  0.00  0.00    +0.000 C 
ATOM      2  C   UNL     1     101.910 125.924  82.565  0.00  0.00    +0.000 C 
ENDROOT
BRANCH   1   7
ATOM      3  C   UNL     1     106.332 121.316  81.242  0.00  0.00    +0.000 C 
ATOM      4  C   UNL     1     105.428 122.509  81.340  0.00  0.00    +0.000 A 
ATOM      5  C   UNL     1     105.182 123.313  80.222  0.00  0.00    +0.000 A 
ATOM      6  C   UNL     1     104.365 124.442  80.327  0.00  0.00    +0.000 A 
ATOM      7  C   UNL     1     103.793 124.790  81.556  0.00  0.00    +0.000 A 
ATOM      8  C   UNL     1     104.052 123.996  82.679  0.00  0.00    +0.000 A 
ATOM      9  C   UNL     1     104.866 122.865  82.572  0.00  0.00    +0.000 A 
ENDBRANCH   1   7
BRANCH   2  10
ATOM     10  C   UNL     1     100.952 126.999  82.830  0.00  0.00    +0.000 A 
ATOM     11  C   UNL     1     101.357 128.141  83.527  0.00  0.00    +0.000 A 
ATOM     12  C   UNL     1     100.440 129.159  83.793  0.00  0.00    +0.000 A 
ATOM     13  C   UNL     1      99.118 129.039  83.366  0.00  0.00    +0.000 A 
ATOM     14  C   UNL     1      98.711 127.901  82.668  0.00  0.00    +0.000 A 
ATOM     15  C   UNL     1      99.626 126.881  82.400  0.00  0.00    +0.000 A 
ENDBRANCH   2  10
BRANCH   1  16
ATOM     16  C   UNL     1     103.155 127.164  80.808  0.00  0.00    +0.000 C 
ATOM     17  O   UNL     1     103.944 128.054  81.105  0.00  0.00    +0.000 OA
ENDBRANCH   1  16
TORSDOF 3
ENDMDL
