MODEL 1
REMARK VINA RESULT:      -3.9      0.000      0.000
REMARK  Name = *****
REMARK  2 active torsions:
REMARK  status: ('A' for Active; 'I' for Inactive)
REMARK    1  A    between atoms: C_5  and  C_6
REMARK    2  A    between atoms: C_6  and  C_7
REMARK                            x       y       z     vdW  Elec       q    Type
REMARK                         _______ _______ _______ _____ _____    ______ ____
ROOT
ATOM      1  C   UNL     1      89.027  64.572  86.522  0.00  0.00    +0.000 C 
ATOM      2  C   UNL     1      88.608  65.418  87.718  0.00  0.00    +0.000 C 
ATOM      3  S   UNL     1      87.806  66.973  87.241  0.00  0.00    +0.000 S 
ATOM      4  C   UNL     1      89.046  67.653  86.235  0.00  0.00    +0.000 C 
ATOM      5  C   UNL     1      89.557  68.878  86.441  0.00  0.00    +0.000 C 
ATOM      6  S   UNL     1      89.599  66.738  84.860  0.00  0.00    +0.000 S 
ATOM      7  C   UNL     1      90.131  65.216  85.690  0.00  0.00    +0.000 C 
ENDROOT
BRANCH   5   8
ATOM      8  C   UNL     1      89.214  69.863  87.523  0.00  0.00    +0.000 C 
BRANCH   8   9
ATOM      9  C   UNL     1      87.903  70.564  87.253  0.00  0.00    +0.000 A 
ATOM     10  C   UNL     1      87.537  70.921  85.948  0.00  0.00    +0.000 A 
ATOM     11  C   UNL     1      86.335  71.590  85.708  0.00  0.00    +0.000 A 
ATOM     12  C   UNL     1      85.490  71.910  86.769  0.00  0.00    +0.000 A 
ATOM     13  C   UNL     1      85.846  71.566  88.071  0.00  0.00    +0.000 A 
ATOM     14  C   UNL     1      87.048  70.899  88.314  0.00  0.00    +0.000 A 
ENDBRANCH   8   9
ENDBRANCH   5   8
TORSDOF 2
ENDMDL
