MODEL 1
REMARK VINA RESULT:      -4.5      0.000      0.000
REMARK  Name = *****
REMARK  3 active torsions:
REMARK  status: ('A' for Active; 'I' for Inactive)
REMARK    1  A    between atoms: C_1  and  C_2
REMARK    2  A    between atoms: C_2  and  C_11
REMARK    3  A    between atoms: N_3  and  C_4
REMARK                            x       y       z     vdW  Elec       q    Type
REMARK                         _______ _______ _______ _____ _____    ______ ____
ROOT
ATOM      1  C   UNL     1     103.097 127.295  80.948  0.00  0.00    +0.000 C 
ATOM      2  C   UNL     1     102.843 126.074  81.817  0.00  0.00    +0.000 C 
ATOM      3  N   UNL     1     101.912 126.003  82.726  0.00  0.00    +0.000 NA
ENDROOT
BRANCH   3   4
ATOM      4  C   UNL     1     101.018 127.063  82.935  0.00  0.00    +0.000 A 
ATOM      5  C   UNL     1     101.442 128.174  83.669  0.00  0.00    +0.000 A 
ATOM      6  C   UNL     1     100.566 129.234  83.927  0.00  0.00    +0.000 A 
ATOM      7  C   UNL     1      99.251 129.184  83.461  0.00  0.00    +0.000 A 
ATOM      8  C   UNL     1      98.809 128.075  82.743  0.00  0.00    +0.000 A 
ATOM      9  C   UNL     1      99.688 127.023  82.492  0.00  0.00    +0.000 A 
ATOM     10  F   UNL     1      99.244 125.968  81.792  0.00  0.00    +0.000 F 
ENDBRANCH   3   4
BRANCH   2  11
ATOM     11  C   UNL     1     103.668 124.879  81.632  0.00  0.00    +0.000 A 
ATOM     12  C   UNL     1     104.206 124.409  80.444  0.00  0.00    +0.000 A 
ATOM     13  C   UNL     1     104.973 123.221  80.612  0.00  0.00    +0.000 A 
ATOM     14  C   UNL     1     105.010 122.818  81.926  0.00  0.00    +0.000 A 
ATOM     15  S   UNL     1     104.126 123.870  82.941  0.00  0.00    +0.000 S 
ENDBRANCH   2  11
TORSDOF 2
ENDMDL
