MODEL 1
REMARK VINA RESULT:      -4.0      0.000      0.000
REMARK  Name = *****
REMARK  3 active torsions:
REMARK  status: ('A' for Active; 'I' for Inactive)
REMARK    1  A    between atoms: C_4  and  S_7
REMARK    2  A    between atoms: S_7  and  C_8
REMARK    3  A    between atoms: C_9  and  C_10
REMARK                            x       y       z     vdW  Elec       q    Type
REMARK                         _______ _______ _______ _____ _____    ______ ____
ROOT
ATOM      1  S   UNL     1      87.984  70.632  88.581  0.00  0.00    +0.000 S 
ENDROOT
BRANCH   1   5
ATOM      2  C   UNL     1      84.406  72.360  86.302  0.00  0.00    +0.000 A 
ATOM      3  C   UNL     1      85.516  71.892  85.602  0.00  0.00    +0.000 A 
ATOM      4  C   UNL     1      86.608  71.365  86.295  0.00  0.00    +0.000 A 
ATOM      5  C   UNL     1      86.595  71.310  87.692  0.00  0.00    +0.000 A 
ATOM      6  C   UNL     1      85.475  71.775  88.389  0.00  0.00    +0.000 A 
ATOM      7  C   UNL     1      84.383  72.301  87.695  0.00  0.00    +0.000 A 
ENDBRANCH   1   5
BRANCH   1   8
ATOM      8  C   UNL     1      88.336  69.281  87.552  0.00  0.00    +0.000 C 
ATOM      9  C   UNL     1      89.539  69.150  86.975  0.00  0.00    +0.000 C 
BRANCH   9  10
ATOM     10  C   UNL     1      89.831  68.042  86.133  0.00  0.00    +0.000 A 
ATOM     11  C   UNL     1      89.358  67.780  84.852  0.00  0.00    +0.000 A 
ATOM     12  C   UNL     1      89.927  66.561  84.414  0.00  0.00    +0.000 A 
ATOM     13  C   UNL     1      90.722  66.130  85.444  0.00  0.00    +0.000 A 
ATOM     14  O   UNL     1      90.673  67.005  86.477  0.00  0.00    +0.000 OA
ENDBRANCH   9  10
ENDBRANCH   1   8
TORSDOF 3
ENDMDL
