MODEL 1
REMARK VINA RESULT:      -4.6      0.000      0.000
REMARK  Name = *****
REMARK  3 active torsions:
REMARK  status: ('A' for Active; 'I' for Inactive)
REMARK    1  A    between atoms: C_1  and  C_2
REMARK    2  A    between atoms: C_2  and  C_3
REMARK    3  A    between atoms: C_2  and  N_9
REMARK                            x       y       z     vdW  Elec       q    Type
REMARK                         _______ _______ _______ _____ _____    ______ ____
ROOT
ATOM      1  N   UNL     1      88.466  65.278  86.885  0.00  0.00    +0.000 N 
ATOM      2  C   UNL     1      89.512  64.814  86.104  0.00  0.00    +0.000 A 
ATOM      3  P   UNL     1      90.575  65.946  85.473  0.00  0.00    +0.000 P 
ATOM      4  C   UNL     1      89.650  67.114  86.253  0.00  0.00    +0.000 A 
ATOM      5  C   UNL     1      89.960  68.483  86.189  0.00  0.00    +0.000 A 
ATOM      6  C   UNL     1      89.140  69.392  86.868  0.00  0.00    +0.000 A 
ATOM      7  C   UNL     1      88.034  68.951  87.587  0.00  0.00    +0.000 A 
ATOM      8  C   UNL     1      87.711  67.592  87.660  0.00  0.00    +0.000 A 
ATOM      9  C   UNL     1      88.533  66.670  86.988  0.00  0.00    +0.000 A 
ENDROOT
BRANCH   1  11
ATOM     10  C   UNL     1      87.427  63.037  86.792  0.00  0.00    +0.000 C 
ATOM     11  C   UNL     1      87.488  64.381  87.527  0.00  0.00    +0.000 C 
BRANCH  11  12
ATOM     12  C   UNL     1      87.667  64.336  89.040  0.00  0.00    +0.000 A 
ATOM     13  C   UNL     1      86.668  64.747  89.939  0.00  0.00    +0.000 A 
ATOM     14  C   UNL     1      86.885  64.707  91.319  0.00  0.00    +0.000 A 
ATOM     15  C   UNL     1      88.102  64.261  91.825  0.00  0.00    +0.000 A 
ATOM     16  C   UNL     1      89.107  63.857  90.953  0.00  0.00    +0.000 A 
ATOM     17  C   UNL     1      88.893  63.895  89.573  0.00  0.00    +0.000 A 
ENDBRANCH  11  12
ENDBRANCH   1  11
TORSDOF 2
ENDMDL
