MODEL 1
REMARK VINA RESULT:      -4.4      0.000      0.000
REMARK  Name = *****
REMARK  6 active torsions:
REMARK  status: ('A' for Active; 'I' for Inactive)
REMARK    1  A    between atoms: C_1  and  O_2
REMARK    2  A    between atoms: O_2  and  C_3
REMARK    3  A    between atoms: C_3  and  C_5
REMARK    4  A    between atoms: C_6  and  C_12
REMARK    5  A    between atoms: C_10  and  S_11
REMARK    6  A    between atoms: C_13  and  C_14
REMARK                            x       y       z     vdW  Elec       q    Type
REMARK                         _______ _______ _______ _____ _____    ______ ____
ROOT
ATOM      1  C   UNL     1     101.517 128.083  83.455  0.00  0.00    +0.000 A 
ATOM      2  C   UNL     1     101.210 126.911  82.731  0.00  0.00    +0.000 A 
ATOM      3  C   UNL     1      99.879 126.692  82.344  0.00  0.00    +0.000 A 
ATOM      4  C   UNL     1      98.886 127.625  82.640  0.00  0.00    +0.000 A 
ATOM      5  C   UNL     1      99.205 128.789  83.337  0.00  0.00    +0.000 A 
ATOM      6  C   UNL     1     100.519 129.030  83.759  0.00  0.00    +0.000 A 
ENDROOT
BRANCH   1   7
ATOM      7  C   UNL     1     102.914 128.326  83.862  0.00  0.00    +0.000 C 
ATOM      8  O   UNL     1     103.386 128.019  84.942  0.00  0.00    +0.000 OA
BRANCH   7  10
ATOM      9  C   UNL     1     104.896 128.625  82.676  0.00  0.00    +0.000 C 
ATOM     10  O   UNL     1     103.531 129.004  82.861  0.00  0.00    +0.000 OA
ENDBRANCH   7  10
ENDBRANCH   1   7
BRANCH   6  11
ATOM     11  S   UNL     1     100.821 130.554  84.644  0.00  0.00    +0.000 S 
ATOM     12  H   UNL     1     100.505 130.388  85.956  0.00  0.00    +0.000 HD
ENDBRANCH   6  11
BRANCH   2  13
ATOM     13  C   UNL     1     102.229 125.889  82.434  0.00  0.00    +0.000 C 
ATOM     14  C   UNL     1     102.859 125.798  81.252  0.00  0.00    +0.000 C 
BRANCH  14  15
ATOM     15  C   UNL     1     103.891 124.792  80.971  0.00  0.00    +0.000 A 
ATOM     16  C   UNL     1     104.705 124.947  79.842  0.00  0.00    +0.000 A 
ATOM     17  C   UNL     1     105.714 124.022  79.561  0.00  0.00    +0.000 A 
ATOM     18  C   UNL     1     105.925 122.941  80.415  0.00  0.00    +0.000 A 
ATOM     19  C   UNL     1     105.133 122.786  81.551  0.00  0.00    +0.000 A 
ATOM     20  C   UNL     1     104.123 123.711  81.831  0.00  0.00    +0.000 A 
ENDBRANCH  14  15
ENDBRANCH   2  13
TORSDOF 5
ENDMDL
