MODEL 1
REMARK VINA RESULT:      -5.3      0.000      0.000
REMARK  Name = *****
REMARK  3 active torsions:
REMARK  status: ('A' for Active; 'I' for Inactive)
REMARK    1  A    between atoms: C_1  and  C_2
REMARK    2  A    between atoms: C_9  and  C_11
REMARK    3  A    between atoms: C_13  and  C_17
REMARK                            x       y       z     vdW  Elec       q    Type
REMARK                         _______ _______ _______ _____ _____    ______ ____
ROOT
ATOM      1  C   UNL     1      99.053 130.328  84.849  0.00  0.00    +0.000 C 
ATOM      2  C   UNL     1      99.579 129.171  84.048  0.00  0.00    +0.000 A 
ATOM      3  C   UNL     1     100.956 129.065  83.775  0.00  0.00    +0.000 A 
ATOM      4  C   UNL     1     101.408 127.969  83.028  0.00  0.00    +0.000 A 
ATOM      5  C   UNL     1     100.489 127.034  82.587  0.00  0.00    +0.000 A 
ATOM      6  C   UNL     1      99.123 127.092  82.827  0.00  0.00    +0.000 A 
ATOM      7  C   UNL     1      98.685 128.193  83.575  0.00  0.00    +0.000 A 
ATOM      8  O   UNL     1     101.168 126.074  81.895  0.00  0.00    +0.000 OA
ATOM      9  C   UNL     1     102.477 126.485  81.957  0.00  0.00    +0.000 A 
ATOM     10  N   UNL     1     102.669 127.612  82.621  0.00  0.00    +0.000 NA
ENDROOT
BRANCH   9  11
ATOM     11  C   UNL     1     103.463 125.633  81.293  0.00  0.00    +0.000 A 
ATOM     12  C   UNL     1     103.667 124.296  81.671  0.00  0.00    +0.000 A 
ATOM     13  C   UNL     1     104.622 123.493  81.023  0.00  0.00    +0.000 A 
ATOM     14  C   UNL     1     105.380 124.046  79.980  0.00  0.00    +0.000 A 
ATOM     15  C   UNL     1     105.187 125.371  79.594  0.00  0.00    +0.000 A 
ATOM     16  C   UNL     1     104.236 126.157  80.246  0.00  0.00    +0.000 A 
BRANCH  13  17
ATOM     17  C   UNL     1     104.844 122.057  81.432  0.00  0.00    +0.000 C 
ATOM     18  F   UNL     1     104.176 121.158  80.656  0.00  0.00    +0.000 F 
ATOM     19  F   UNL     1     106.156 121.695  81.373  0.00  0.00    +0.000 F 
ATOM     20  F   UNL     1     104.446 121.813  82.711  0.00  0.00    +0.000 F 
ENDBRANCH  13  17
ENDBRANCH   9  11
TORSDOF 2
ENDMDL
