MODEL 1
REMARK VINA RESULT:      -4.4      0.000      0.000
REMARK  Name = *****
REMARK  3 active torsions:
REMARK  status: ('A' for Active; 'I' for Inactive)
REMARK    1  A    between atoms: C_4  and  C_7
REMARK    2  A    between atoms: C_8  and  C_9
REMARK    3  A    between atoms: C_8  and  C_11
REMARK                            x       y       z     vdW  Elec       q    Type
REMARK                         _______ _______ _______ _____ _____    ______ ____
ROOT
ATOM      1  C   UNL     1     102.124 125.700  82.524  0.00  0.00    +0.000 C 
ATOM      2  C   UNL     1     103.108 125.679  81.597  0.00  0.00    +0.000 C 
ENDROOT
BRANCH   1   6
ATOM      3  C   UNL     1      99.453 128.937  83.302  0.00  0.00    +0.000 A 
ATOM      4  C   UNL     1      98.978 127.786  82.674  0.00  0.00    +0.000 A 
ATOM      5  C   UNL     1      99.845 126.723  82.414  0.00  0.00    +0.000 A 
ATOM      6  C   UNL     1     101.194 126.810  82.772  0.00  0.00    +0.000 A 
ATOM      7  C   UNL     1     101.663 127.964  83.410  0.00  0.00    +0.000 A 
ATOM      8  C   UNL     1     100.794 129.025  83.671  0.00  0.00    +0.000 A 
ENDBRANCH   1   6
BRANCH   2   9
ATOM      9  C   UNL     1     103.986 124.543  81.418  0.00  0.00    +0.000 A 
ATOM     10  C   UNL     1     104.279 123.628  82.412  0.00  0.00    +0.000 A 
ATOM     11  S   UNL     1     105.352 122.400  81.888  0.00  0.00    +0.000 S 
ATOM     12  C   UNL     1     105.450 123.080  80.325  0.00  0.00    +0.000 A 
ATOM     13  C   UNL     1     104.681 124.217  80.205  0.00  0.00    +0.000 A 
ENDBRANCH   2   9
BRANCH   2  14
ATOM     14  C   UNL     1     103.327 126.808  80.738  0.00  0.00    +0.000 C 
ATOM     15  N   UNL     1     103.524 127.705  80.026  0.00  0.00    +0.000 NA
ENDBRANCH   2  14
TORSDOF 3
ENDMDL
