REMARK  Name = *****
REMARK  6 active torsions:
REMARK  status: ('A' for Active; 'I' for Inactive)
REMARK    1  A    between atoms: C_1  and  C_2
REMARK    2  A    between atoms: C_2  and  N_17
REMARK    3  A    between atoms: C_6  and  C_7
REMARK    4  A    between atoms: C_6  and  O_8
REMARK    5  A    between atoms: O_8  and  C_9
REMARK    6  A    between atoms: C_9  and  C_11
REMARK                            x       y       z     vdW  Elec       q    Type
REMARK                         _______ _______ _______ _____ _____    ______ ____
ROOT
ATOM      1  C   UNL     1       1.397  -0.041  -0.792  0.00  0.00    +0.000 C 
ATOM      2  C   UNL     1       2.753  -0.133  -0.082  0.00  0.00    +0.000 C 
ATOM      3  C   UNL     1       2.671  -0.969   1.212  0.00  0.00    +0.000 C 
ATOM      4  C   UNL     1       3.835  -0.495   2.089  0.00  0.00    +0.000 C 
ATOM      5  C   UNL     1       4.370   0.793   1.455  0.00  0.00    +0.000 C 
ATOM      6  C   UNL     1       3.278   1.241   0.465  0.00  0.00    +0.000 C 
ATOM      7  C   UNL     1       3.781   2.190  -0.629  0.00  0.00    +0.000 C 
ENDROOT
BRANCH   2   8
ATOM      8  N   UNL     1       3.768  -0.751  -1.033  0.00  0.00    +0.000 NA
ATOM      9  O   UNL     1       3.479  -1.905  -1.370  0.00  0.00    +0.000 OA
ENDBRANCH   2   8
BRANCH   6  10
ATOM     10  O   UNL     1       2.164   1.860   1.185  0.00  0.00    +0.000 OA
BRANCH  10  11
ATOM     11  C   UNL     1       2.332   3.011   1.879  0.00  0.00    +0.000 C 
ATOM     12  O   UNL     1       3.366   3.648   1.987  0.00  0.00    +0.000 OA
BRANCH  11  13
ATOM     13  C   UNL     1       1.050   3.425   2.513  0.00  0.00    +0.000 A 
ATOM     14  C   UNL     1       1.009   4.661   3.172  0.00  0.00    +0.000 A 
ATOM     15  C   UNL     1      -0.169   5.095   3.784  0.00  0.00    +0.000 A 
ATOM     16  C   UNL     1      -1.311   4.297   3.743  0.00  0.00    +0.000 A 
ATOM     17  C   UNL     1      -1.278   3.064   3.092  0.00  0.00    +0.000 A 
ATOM     18  C   UNL     1      -0.102   2.626   2.478  0.00  0.00    +0.000 A 
ENDBRANCH  11  13
ENDBRANCH  10  11
ENDBRANCH   6  10
TORSDOF 4
