MODEL 1
REMARK VINA RESULT:      -4.4      0.000      0.000
REMARK  Name = *****
REMARK  4 active torsions:
REMARK  status: ('A' for Active; 'I' for Inactive)
REMARK    1  A    between atoms: C_1  and  C_2
REMARK    2  A    between atoms: C_1  and  C_9
REMARK    3  A    between atoms: C_2  and  C_3
REMARK    4  A    between atoms: C_9  and  C_10
REMARK                            x       y       z     vdW  Elec       q    Type
REMARK                         _______ _______ _______ _____ _____    ______ ____
ROOT
ATOM      1  C   UNL     1      87.379  70.023  88.453  0.00  0.00    +0.000 C 
ENDROOT
BRANCH   1   2
ATOM      2  C   UNL     1      88.887  70.209  88.270  0.00  0.00    +0.000 C 
BRANCH   2   3
ATOM      3  C   UNL     1      89.329  69.844  86.876  0.00  0.00    +0.000 A 
ATOM      4  C   UNL     1      89.662  70.843  85.951  0.00  0.00    +0.000 A 
ATOM      5  C   UNL     1      90.055  70.505  84.655  0.00  0.00    +0.000 A 
ATOM      6  C   UNL     1      90.115  69.167  84.271  0.00  0.00    +0.000 A 
ATOM      7  C   UNL     1      89.780  68.166  85.181  0.00  0.00    +0.000 A 
ATOM      8  C   UNL     1      89.387  68.502  86.476  0.00  0.00    +0.000 A 
ENDBRANCH   2   3
ENDBRANCH   1   2
BRANCH   1   9
ATOM      9  C   UNL     1      86.695  71.359  88.750  0.00  0.00    +0.000 C 
BRANCH   9  10
ATOM     10  C   UNL     1      85.743  71.757  87.649  0.00  0.00    +0.000 A 
ATOM     11  C   UNL     1      86.103  71.595  86.304  0.00  0.00    +0.000 A 
ATOM     12  C   UNL     1      85.229  71.979  85.287  0.00  0.00    +0.000 A 
ATOM     13  C   UNL     1      83.990  72.532  85.603  0.00  0.00    +0.000 A 
ATOM     14  C   UNL     1      83.624  72.705  86.937  0.00  0.00    +0.000 A 
ATOM     15  C   UNL     1      84.498  72.321  87.956  0.00  0.00    +0.000 A 
ENDBRANCH   9  10
ENDBRANCH   1   9
TORSDOF 4
ENDMDL
