MODEL 1
REMARK VINA RESULT:      -4.2      0.000      0.000
REMARK  Name = *****
REMARK  3 active torsions:
REMARK  status: ('A' for Active; 'I' for Inactive)
REMARK    1  A    between atoms: C_4  and  C_7
REMARK    2  A    between atoms: C_7  and  O_8
REMARK    3  A    between atoms: O_8  and  C_9
REMARK                            x       y       z     vdW  Elec       q    Type
REMARK                         _______ _______ _______ _____ _____    ______ ____
ROOT
ATOM      1  C   UNL     1     102.826 126.137  81.676  0.00  0.00    +0.000 C 
ENDROOT
BRANCH   1   5
ATOM      2  C   UNL     1     105.152 122.494  81.641  0.00  0.00    +0.000 A 
ATOM      3  C   UNL     1     104.603 122.954  82.835  0.00  0.00    +0.000 A 
ATOM      4  C   UNL     1     103.859 124.136  82.855  0.00  0.00    +0.000 A 
ATOM      5  C   UNL     1     103.667 124.879  81.679  0.00  0.00    +0.000 A 
ATOM      6  C   UNL     1     104.213 124.395  80.480  0.00  0.00    +0.000 A 
ATOM      7  C   UNL     1     104.956 123.212  80.464  0.00  0.00    +0.000 A 
ENDBRANCH   1   5
BRANCH   1   8
ATOM      8  O   UNL     1     101.550 125.876  82.260  0.00  0.00    +0.000 OA
BRANCH   8   9
ATOM      9  C   UNL     1     100.818 126.958  82.666  0.00  0.00    +0.000 A 
ATOM     10  C   UNL     1     101.313 128.091  83.312  0.00  0.00    +0.000 A 
ATOM     11  C   UNL     1     100.446 129.128  83.673  0.00  0.00    +0.000 A 
ATOM     12  C   UNL     1      99.083 129.035  83.392  0.00  0.00    +0.000 A 
ATOM     13  C   UNL     1      98.585 127.905  82.750  0.00  0.00    +0.000 A 
ATOM     14  C   UNL     1      99.451 126.871  82.390  0.00  0.00    +0.000 A 
ENDBRANCH   8   9
ENDBRANCH   1   8
TORSDOF 3
ENDMDL
