MODEL 1
REMARK VINA RESULT:      -5.1      0.000      0.000
REMARK  Name = *****
REMARK  6 active torsions:
REMARK  status: ('A' for Active; 'I' for Inactive)
REMARK    1  A    between atoms: C_1  and  C_2
REMARK    2  A    between atoms: C_4  and  O_9
REMARK    3  A    between atoms: C_5  and  C_8
REMARK    4  A    between atoms: O_9  and  C_10
REMARK    5  A    between atoms: C_10  and  C_12
REMARK    6  A    between atoms: C_12  and  C_13
REMARK                            x       y       z     vdW  Elec       q    Type
REMARK                         _______ _______ _______ _____ _____    ______ ____
ROOT
ATOM      1  O   UNL     1     104.107 125.162  82.769  0.00  0.00    +0.000 OA
ENDROOT
BRANCH   1   5
ATOM      2  C   UNL     1     104.602 120.352  83.689  0.00  0.00    +0.000 C 
ATOM      3  C   UNL     1     104.583 121.507  82.731  0.00  0.00    +0.000 A 
ATOM      4  C   UNL     1     104.327 122.803  83.190  0.00  0.00    +0.000 A 
ATOM      5  C   UNL     1     104.327 123.868  82.286  0.00  0.00    +0.000 A 
ATOM      6  C   UNL     1     104.628 123.687  80.931  0.00  0.00    +0.000 A 
ATOM      7  C   UNL     1     104.892 122.388  80.484  0.00  0.00    +0.000 A 
ATOM      8  C   UNL     1     104.875 121.311  81.376  0.00  0.00    +0.000 A 
ATOM      9  C   UNL     1     104.641 124.843  79.974  0.00  0.00    +0.000 C 
ENDBRANCH   1   5
BRANCH   1  10
ATOM     10  C   UNL     1     102.811 125.370  83.230  0.00  0.00    +0.000 C 
ATOM     11  O   UNL     1     102.384 125.149  84.357  0.00  0.00    +0.000 OA
BRANCH  10  12
ATOM     12  C   UNL     1     101.969 125.918  82.101  0.00  0.00    +0.000 C 
BRANCH  12  13
ATOM     13  C   UNL     1     101.005 126.978  82.569  0.00  0.00    +0.000 A 
ATOM     14  C   UNL     1     101.479 128.127  83.216  0.00  0.00    +0.000 A 
ATOM     15  C   UNL     1     100.588 129.097  83.677  0.00  0.00    +0.000 A 
ATOM     16  C   UNL     1      99.216 128.926  83.500  0.00  0.00    +0.000 A 
ATOM     17  C   UNL     1      98.734 127.784  82.862  0.00  0.00    +0.000 A 
ATOM     18  C   UNL     1      99.623 126.813  82.399  0.00  0.00    +0.000 A 
ENDBRANCH  12  13
ENDBRANCH  10  12
ENDBRANCH   1  10
TORSDOF 4
ENDMDL
