MODEL 1
REMARK VINA RESULT:      -4.7      0.000      0.000
REMARK  Name = *****
REMARK  4 active torsions:
REMARK  status: ('A' for Active; 'I' for Inactive)
REMARK    1  A    between atoms: C_4  and  C_7
REMARK    2  A    between atoms: C_7  and  O_9
REMARK    3  A    between atoms: O_9  and  C_10
REMARK    4  A    between atoms: C_10  and  C_11
REMARK                            x       y       z     vdW  Elec       q    Type
REMARK                         _______ _______ _______ _____ _____    ______ ____
ROOT
ATOM      1  O   UNL     1     103.410 125.208  80.120  0.00  0.00    +0.000 OA
ENDROOT
BRANCH   1   2
ATOM      2  C   UNL     1     104.569 124.510  80.066  0.00  0.00    +0.000 C 
ATOM      3  O   UNL     1     105.506 124.729  79.313  0.00  0.00    +0.000 OA
BRANCH   2   7
ATOM      4  C   UNL     1     104.556 121.291  82.896  0.00  0.00    +0.000 A 
ATOM      5  C   UNL     1     104.693 121.038  81.532  0.00  0.00    +0.000 A 
ATOM      6  C   UNL     1     104.695 122.098  80.623  0.00  0.00    +0.000 A 
ATOM      7  C   UNL     1     104.564 123.418  81.076  0.00  0.00    +0.000 A 
ATOM      8  C   UNL     1     104.424 123.664  82.448  0.00  0.00    +0.000 A 
ATOM      9  C   UNL     1     104.421 122.601  83.354  0.00  0.00    +0.000 A 
ENDBRANCH   2   7
ENDBRANCH   1   2
BRANCH   1  10
ATOM     10  C   UNL     1     103.538 126.621  80.317  0.00  0.00    +0.000 C 
BRANCH  10  11
ATOM     11  C   UNL     1     102.816 127.018  81.582  0.00  0.00    +0.000 A 
ATOM     12  C   UNL     1     103.209 128.114  82.366  0.00  0.00    +0.000 A 
ATOM     13  C   UNL     1     102.524 128.433  83.542  0.00  0.00    +0.000 A 
ATOM     14  C   UNL     1     101.448 127.649  83.949  0.00  0.00    +0.000 A 
ATOM     15  C   UNL     1     101.052 126.548  83.194  0.00  0.00    +0.000 A 
ATOM     16  C   UNL     1     101.736 126.232  82.019  0.00  0.00    +0.000 A 
ATOM     17 CL   UNL     1     100.605 128.039  85.397  0.00  0.00    +0.000 Cl
ATOM     18 CL   UNL     1     104.550 129.113  81.930  0.00  0.00    +0.000 Cl
ENDBRANCH  10  11
ENDBRANCH   1  10
TORSDOF 4
ENDMDL
