MODEL 1
REMARK VINA RESULT:      -4.8      0.000      0.000
REMARK  Name = *****
REMARK  4 active torsions:
REMARK  status: ('A' for Active; 'I' for Inactive)
REMARK    1  A    between atoms: C_1  and  C_2
REMARK    2  A    between atoms: C_5  and  C_8
REMARK    3  A    between atoms: C_8  and  O_10
REMARK    4  A    between atoms: O_10  and  C_11
REMARK                            x       y       z     vdW  Elec       q    Type
REMARK                         _______ _______ _______ _____ _____    ______ ____
ROOT
ATOM      1  C   UNL     1     103.150 126.736  81.841  0.00  0.00    +0.000 C 
ATOM      2  O   UNL     1     103.184 127.520  80.904  0.00  0.00    +0.000 OA
ENDROOT
BRANCH   1   7
ATOM      3  C   UNL     1     105.298 121.364  81.366  0.00  0.00    +0.000 C 
ATOM      4  C   UNL     1     104.769 122.760  81.509  0.00  0.00    +0.000 A 
ATOM      5  C   UNL     1     104.328 123.227  82.754  0.00  0.00    +0.000 A 
ATOM      6  C   UNL     1     103.803 124.516  82.886  0.00  0.00    +0.000 A 
ATOM      7  C   UNL     1     103.701 125.353  81.767  0.00  0.00    +0.000 A 
ATOM      8  C   UNL     1     104.128 124.881  80.519  0.00  0.00    +0.000 A 
ATOM      9  C   UNL     1     104.651 123.593  80.390  0.00  0.00    +0.000 A 
ENDBRANCH   1   7
BRANCH   1  10
ATOM     10  O   UNL     1     102.620 126.961  83.099  0.00  0.00    +0.000 OA
BRANCH  10  11
ATOM     11  C   UNL     1     101.301 127.421  83.083  0.00  0.00    +0.000 A 
ATOM     12  C   UNL     1     100.997 128.701  83.543  0.00  0.00    +0.000 A 
ATOM     13  C   UNL     1      99.680 129.146  83.463  0.00  0.00    +0.000 A 
ATOM     14  C   UNL     1      98.686 128.332  82.916  0.00  0.00    +0.000 A 
ATOM     15  C   UNL     1      99.010 127.058  82.441  0.00  0.00    +0.000 A 
ATOM     16  C   UNL     1     100.325 126.602  82.516  0.00  0.00    +0.000 A 
ATOM     17 CL   UNL     1      99.274 130.719  84.032  0.00  0.00    +0.000 Cl
ENDBRANCH  10  11
ENDBRANCH   1  10
TORSDOF 3
ENDMDL
