MODEL 1
REMARK VINA RESULT:      -4.8      0.000      0.000
REMARK  Name = *****
REMARK  3 active torsions:
REMARK  status: ('A' for Active; 'I' for Inactive)
REMARK    1  A    between atoms: C_4  and  C_7
REMARK    2  A    between atoms: C_8  and  C_9
REMARK    3  A    between atoms: C_11  and  C_15
REMARK                            x       y       z     vdW  Elec       q    Type
REMARK                         _______ _______ _______ _____ _____    ______ ____
ROOT
ATOM      1  C   UNL     1     102.042 126.220  82.076  0.00  0.00    +0.000 C 
ATOM      2  C   UNL     1     102.916 125.512  81.656  0.00  0.00    +0.000 C 
ENDROOT
BRANCH   1   6
ATOM      3  C   UNL     1      98.967 128.717  83.541  0.00  0.00    +0.000 A 
ATOM      4  C   UNL     1     100.302 129.048  83.771  0.00  0.00    +0.000 A 
ATOM      5  C   UNL     1     101.319 128.222  83.288  0.00  0.00    +0.000 A 
ATOM      6  C   UNL     1     101.001 127.065  82.573  0.00  0.00    +0.000 A 
ATOM      7  C   UNL     1      99.663 126.735  82.345  0.00  0.00    +0.000 A 
ATOM      8  C   UNL     1      98.647 127.562  82.828  0.00  0.00    +0.000 A 
ENDBRANCH   1   6
BRANCH   2   9
ATOM      9  C   UNL     1     103.957 124.670  81.152  0.00  0.00    +0.000 A 
ATOM     10  C   UNL     1     104.606 124.999  79.960  0.00  0.00    +0.000 A 
ATOM     11  C   UNL     1     105.622 124.173  79.466  0.00  0.00    +0.000 A 
ATOM     12  C   UNL     1     105.985 123.018  80.169  0.00  0.00    +0.000 A 
ATOM     13  C   UNL     1     105.335 122.691  81.360  0.00  0.00    +0.000 A 
ATOM     14  C   UNL     1     104.321 123.516  81.850  0.00  0.00    +0.000 A 
BRANCH  11  15
ATOM     15  C   UNL     1     106.289 124.509  78.242  0.00  0.00    +0.000 C 
ATOM     16  N   UNL     1     106.826 124.783  77.251  0.00  0.00    +0.000 NA
ENDBRANCH  11  15
ENDBRANCH   2   9
TORSDOF 3
ENDMDL
