MODEL 1
REMARK VINA RESULT:      -4.4      0.000      0.000
REMARK  Name = *****
REMARK  5 active torsions:
REMARK  status: ('A' for Active; 'I' for Inactive)
REMARK    1  A    between atoms: C_1  and  C_2
REMARK    2  A    between atoms: C_2  and  C_12
REMARK    3  A    between atoms: N_3  and  N_4
REMARK    4  A    between atoms: N_4  and  C_5
REMARK    5  A    between atoms: N_4  and  C_6
REMARK                            x       y       z     vdW  Elec       q    Type
REMARK                         _______ _______ _______ _____ _____    ______ ____
ROOT
ATOM      1  C   UNL     1      86.314  61.931  88.425  0.00  0.00    +0.000 C 
ATOM      2  C   UNL     1      86.957  63.298  88.487  0.00  0.00    +0.000 C 
ATOM      3  N   UNL     1      87.025  63.975  87.375  0.00  0.00    +0.000 NA
ENDROOT
BRANCH   2   4
ATOM      4  C   UNL     1      87.453  63.734  89.817  0.00  0.00    +0.000 A 
ATOM      5  C   UNL     1      88.818  63.643  90.108  0.00  0.00    +0.000 A 
ATOM      6  C   UNL     1      89.281  64.032  91.366  0.00  0.00    +0.000 A 
ATOM      7  C   UNL     1      88.383  64.505  92.325  0.00  0.00    +0.000 A 
ATOM      8  C   UNL     1      87.022  64.592  92.032  0.00  0.00    +0.000 A 
ATOM      9  C   UNL     1      86.554  64.205  90.777  0.00  0.00    +0.000 A 
ENDBRANCH   2   4
BRANCH   3  10
ATOM     10  N   UNL     1      87.679  65.183  87.420  0.00  0.00    +0.000 N 
ATOM     11  C   UNL     1      86.811  66.304  87.033  0.00  0.00    +0.000 C 
BRANCH  10  12
ATOM     12  C   UNL     1      88.919  65.263  86.712  0.00  0.00    +0.000 A 
ATOM     13  C   UNL     1      89.575  66.482  86.481  0.00  0.00    +0.000 A 
ATOM     14  C   UNL     1      90.777  66.530  85.769  0.00  0.00    +0.000 A 
ATOM     15  C   UNL     1      91.338  65.356  85.269  0.00  0.00    +0.000 A 
ATOM     16  C   UNL     1      90.697  64.138  85.478  0.00  0.00    +0.000 A 
ATOM     17  C   UNL     1      89.497  64.093  86.192  0.00  0.00    +0.000 A 
ENDBRANCH  10  12
ENDBRANCH   3  10
TORSDOF 3
ENDMDL
