MODEL 1
REMARK VINA RESULT:      -5.0      0.000      0.000
REMARK  Name = *****
REMARK  3 active torsions:
REMARK  status: ('A' for Active; 'I' for Inactive)
REMARK    1  A    between atoms: C_1  and  C_2
REMARK    2  A    between atoms: C_5  and  C_8
REMARK    3  A    between atoms: C_8  and  C_10
REMARK                            x       y       z     vdW  Elec       q    Type
REMARK                         _______ _______ _______ _____ _____    ______ ____
ROOT
ATOM      1  C   UNL     1      88.393  70.404  88.147  0.00  0.00    +0.000 C 
ATOM      2  O   UNL     1      88.638  70.428  89.348  0.00  0.00    +0.000 OA
ENDROOT
BRANCH   1   7
ATOM      3  C   UNL     1      83.480  72.854  86.266  0.00  0.00    +0.000 C 
ATOM      4  C   UNL     1      84.768  72.245  86.738  0.00  0.00    +0.000 A 
ATOM      5  C   UNL     1      85.731  71.816  85.818  0.00  0.00    +0.000 A 
ATOM      6  C   UNL     1      86.919  71.220  86.257  0.00  0.00    +0.000 A 
ATOM      7  C   UNL     1      87.145  71.029  87.625  0.00  0.00    +0.000 A 
ATOM      8  C   UNL     1      86.182  71.458  88.546  0.00  0.00    +0.000 A 
ATOM      9  C   UNL     1      84.998  72.052  88.105  0.00  0.00    +0.000 A 
ENDBRANCH   1   7
BRANCH   1  10
ATOM     10  C   UNL     1      89.260  69.682  87.172  0.00  0.00    +0.000 C 
ATOM     11  C   UNL     1      89.018  68.459  86.661  0.00  0.00    +0.000 C 
ATOM     12  C   UNL     1      87.866  67.553  87.031  0.00  0.00    +0.000 C 
ATOM     13  C   UNL     1      88.365  66.164  87.439  0.00  0.00    +0.000 C 
ATOM     14  C   UNL     1      89.286  65.551  86.387  0.00  0.00    +0.000 C 
ATOM     15  C   UNL     1      90.447  66.486  86.052  0.00  0.00    +0.000 C 
ATOM     16  C   UNL     1      89.949  67.866  85.625  0.00  0.00    +0.000 C 
ENDBRANCH   1  10
TORSDOF 2
ENDMDL
