MODEL 1
REMARK VINA RESULT:      -4.6      0.000      0.000
REMARK  Name = *****
REMARK  4 active torsions:
REMARK  status: ('A' for Active; 'I' for Inactive)
REMARK    1  A    between atoms: C_1  and  C_2
REMARK    2  A    between atoms: C_6  and  C_16
REMARK    3  A    between atoms: N_8  and  C_9
REMARK    4  A    between atoms: C_9  and  C_10
REMARK                            x       y       z     vdW  Elec       q    Type
REMARK                         _______ _______ _______ _____ _____    ______ ____
ROOT
ATOM      1  C   UNL     1      89.774  70.720  86.118  0.00  0.00    +0.000 C 
ATOM      2  C   UNL     1      89.188  70.491  84.726  0.00  0.00    +0.000 C 
ATOM      3  C   UNL     1      90.210  69.910  83.742  0.00  0.00    +0.000 C 
ATOM      4  C   UNL     1      91.263  70.919  83.289  0.00  0.00    +0.000 C 
ATOM      5  C   UNL     1      90.612  72.167  82.698  0.00  0.00    +0.000 C 
ATOM      6  C   UNL     1      89.658  72.835  83.692  0.00  0.00    +0.000 C 
ATOM      7  C   UNL     1      88.627  71.802  84.171  0.00  0.00    +0.000 C 
ATOM      8  N   UNL     1      87.376  72.111  84.121  0.00  0.00    +0.000 NA
ATOM      9  C   UNL     1      89.027  74.078  83.069  0.00  0.00    +0.000 C 
ENDROOT
BRANCH   8  10
ATOM     10  C   UNL     1      86.359  71.175  84.594  0.00  0.00    +0.000 C 
BRANCH  10  11
ATOM     11  C   UNL     1      85.730  71.611  85.900  0.00  0.00    +0.000 A 
ATOM     12  C   UNL     1      84.506  72.296  85.892  0.00  0.00    +0.000 A 
ATOM     13  C   UNL     1      83.891  72.669  87.090  0.00  0.00    +0.000 A 
ATOM     14  C   UNL     1      84.489  72.355  88.308  0.00  0.00    +0.000 A 
ATOM     15  C   UNL     1      85.697  71.662  88.331  0.00  0.00    +0.000 A 
ATOM     16  C   UNL     1      86.310  71.287  87.135  0.00  0.00    +0.000 A 
ENDBRANCH  10  11
ENDBRANCH   8  10
TORSDOF 2
ENDMDL
