REMARK  Name = *****
REMARK  5 active torsions:
REMARK  status: ('A' for Active; 'I' for Inactive)
REMARK    1  A    between atoms: C_1  and  C_2
REMARK    2  A    between atoms: C_5  and  C_8
REMARK    3  A    between atoms: C_9  and  C_10
REMARK    4  A    between atoms: C_9  and  C_12
REMARK    5  A    between atoms: C_15  and  C_18
REMARK                            x       y       z     vdW  Elec       q    Type
REMARK                         _______ _______ _______ _____ _____    ______ ____
ROOT
ATOM      1  C   UNL     1      -3.216   0.101  -0.112  0.00  0.00    +0.000 C 
ATOM      2  C   UNL     1      -3.923   1.243   0.011  0.00  0.00    +0.000 C 
ENDROOT
BRANCH   1   7
ATOM      3  C   UNL     1       2.552  -0.173   0.051  0.00  0.00    +0.000 C 
ATOM      4  C   UNL     1       1.053  -0.115   0.022  0.00  0.00    +0.000 A 
ATOM      5  C   UNL     1       0.312  -0.052   1.206  0.00  0.00    +0.000 A 
ATOM      6  C   UNL     1      -1.083   0.013   1.165  0.00  0.00    +0.000 A 
ATOM      7  C   UNL     1      -1.752   0.018  -0.063  0.00  0.00    +0.000 A 
ATOM      8  C   UNL     1      -1.016  -0.048  -1.248  0.00  0.00    +0.000 A 
ATOM      9  C   UNL     1       0.379  -0.113  -1.206  0.00  0.00    +0.000 A 
ENDBRANCH   1   7
BRANCH   2  10
ATOM     10  C   UNL     1      -5.407   1.204  -0.048  0.00  0.00    +0.000 A 
ATOM     11  C   UNL     1      -6.140   0.213   0.627  0.00  0.00    +0.000 A 
ATOM     12  C   UNL     1      -7.540   0.200   0.589  0.00  0.00    +0.000 A 
ATOM     13  C   UNL     1      -8.233   1.186  -0.118  0.00  0.00    +0.000 A 
ATOM     14  C   UNL     1      -7.519   2.182  -0.788  0.00  0.00    +0.000 A 
ATOM     15  C   UNL     1      -6.120   2.190  -0.753  0.00  0.00    +0.000 A 
BRANCH  13  16
ATOM     16  C   UNL     1      -9.666   1.178  -0.150  0.00  0.00    +0.000 C 
ATOM     17  N   UNL     1     -10.826   1.168  -0.175  0.00  0.00    +0.000 NA
ENDBRANCH  13  16
ENDBRANCH   2  10
BRANCH   2  18
ATOM     18  C   UNL     1      -3.270   2.511   0.166  0.00  0.00    +0.000 C 
ATOM     19  N   UNL     1      -2.773   3.554   0.278  0.00  0.00    +0.000 NA
ENDBRANCH   2  18
TORSDOF 4
