MODEL 1
REMARK VINA RESULT:      -4.4      0.000      0.000
REMARK  Name = *****
REMARK  3 active torsions:
REMARK  status: ('A' for Active; 'I' for Inactive)
REMARK    1  A    between atoms: C_4  and  C_7
REMARK    2  A    between atoms: C_7  and  N_8
REMARK    3  A    between atoms: C_9  and  C_10
REMARK                            x       y       z     vdW  Elec       q    Type
REMARK                         _______ _______ _______ _____ _____    ______ ____
ROOT
ATOM      1  N   UNL     1      87.480  72.181  83.897  0.00  0.00    +0.000 NA
ATOM      2  C   UNL     1      88.671  71.872  84.270  0.00  0.00    +0.000 C 
ATOM      3 CL   UNL     1      89.873  73.072  83.916  0.00  0.00    +0.000 Cl
ENDROOT
BRANCH   2   4
ATOM      4  C   UNL     1      89.088  70.626  84.948  0.00  0.00    +0.000 A 
ATOM      5  C   UNL     1      89.346  69.477  84.199  0.00  0.00    +0.000 A 
ATOM      6  C   UNL     1      89.752  68.324  84.859  0.00  0.00    +0.000 A 
ATOM      7  C   UNL     1      89.911  68.303  86.243  0.00  0.00    +0.000 A 
ATOM      8  C   UNL     1      89.665  69.458  86.986  0.00  0.00    +0.000 A 
ATOM      9  C   UNL     1      89.256  70.625  86.339  0.00  0.00    +0.000 A 
ATOM     10  F   UNL     1      89.998  67.214  84.152  0.00  0.00    +0.000 F 
ENDBRANCH   2   4
BRANCH   1  11
ATOM     11  C   UNL     1      86.357  71.293  84.202  0.00  0.00    +0.000 C 
BRANCH  11  15
ATOM     12  C   UNL     1      83.839  72.700  87.422  0.00  0.00    +0.000 A 
ATOM     13  C   UNL     1      83.473  72.943  86.101  0.00  0.00    +0.000 A 
ATOM     14  C   UNL     1      84.286  72.501  85.056  0.00  0.00    +0.000 A 
ATOM     15  C   UNL     1      85.483  71.821  85.320  0.00  0.00    +0.000 A 
ATOM     16  C   UNL     1      85.832  71.569  86.656  0.00  0.00    +0.000 A 
ATOM     17  C   UNL     1      85.017  72.011  87.700  0.00  0.00    +0.000 A 
ENDBRANCH  11  15
ENDBRANCH   1  11
TORSDOF 3
ENDMDL
