MODEL 1
REMARK VINA RESULT:      -3.7      0.000      0.000
REMARK  Name = *****
REMARK  3 active torsions:
REMARK  status: ('A' for Active; 'I' for Inactive)
REMARK    1  A    between atoms: N_6  and  C_7
REMARK    2  A    between atoms: C_7  and  C_8
REMARK    3  A    between atoms: C_8  and  C_9
REMARK                            x       y       z     vdW  Elec       q    Type
REMARK                         _______ _______ _______ _____ _____    ______ ____
ROOT
ATOM      1  C   UNL     1     102.575 127.471  82.654  0.00  0.00    +0.000 C 
ENDROOT
BRANCH   1   7
ATOM      2  C   UNL     1     100.174 126.750  82.506  0.00  0.00    +0.000 C 
ATOM      3  C   UNL     1      98.808 127.401  82.522  0.00  0.00    +0.000 C 
ATOM      4  S   UNL     1      98.924 128.543  83.916  0.00  0.00    +0.000 S 
ATOM      5  C   UNL     1     100.671 128.722  83.760  0.00  0.00    +0.000 C 
ATOM      6  S   UNL     1     101.529 129.900  84.564  0.00  0.00    +0.000 S 
ATOM      7  N   UNL     1     101.155 127.750  82.892  0.00  0.00    +0.000 N 
ENDBRANCH   1   7
BRANCH   1   8
ATOM      8  C   UNL     1     102.834 126.850  81.278  0.00  0.00    +0.000 C 
BRANCH   8   9
ATOM      9  C   UNL     1     103.513 125.509  81.392  0.00  0.00    +0.000 A 
ATOM     10  C   UNL     1     103.561 124.844  82.624  0.00  0.00    +0.000 A 
ATOM     11  C   UNL     1     104.207 123.612  82.739  0.00  0.00    +0.000 A 
ATOM     12  C   UNL     1     104.815 123.038  81.625  0.00  0.00    +0.000 A 
ATOM     13  C   UNL     1     104.778 123.693  80.395  0.00  0.00    +0.000 A 
ATOM     14  C   UNL     1     104.132 124.925  80.278  0.00  0.00    +0.000 A 
ENDBRANCH   8   9
ENDBRANCH   1   8
TORSDOF 3
ENDMDL
