MODEL 1
REMARK VINA RESULT:      -4.3      0.000      0.000
REMARK  Name = *****
REMARK  3 active torsions:
REMARK  status: ('A' for Active; 'I' for Inactive)
REMARK    1  A    between atoms: C_6  and  O_7
REMARK    2  A    between atoms: O_7  and  S_8
REMARK    3  A    between atoms: S_8  and  C_10
REMARK                            x       y       z     vdW  Elec       q    Type
REMARK                         _______ _______ _______ _____ _____    ______ ____
ROOT
ATOM      1  S   UNL     1      90.536  66.018  85.299  0.00  0.00    +0.000 S 
ATOM      2  O   UNL     1      91.861  65.342  85.498  0.00  0.00    +0.000 OA
ENDROOT
BRANCH   1   3
ATOM      3  C   UNL     1      89.316  64.950  86.112  0.00  0.00    +0.000 A 
ATOM      4  C   UNL     1      88.787  63.852  85.421  0.00  0.00    +0.000 A 
ATOM      5  C   UNL     1      87.857  63.012  86.041  0.00  0.00    +0.000 A 
ATOM      6  C   UNL     1      87.459  63.266  87.353  0.00  0.00    +0.000 A 
ATOM      7  C   UNL     1      87.984  64.352  88.051  0.00  0.00    +0.000 A 
ATOM      8  C   UNL     1      88.914  65.191  87.431  0.00  0.00    +0.000 A 
ATOM      9 CL   UNL     1      86.316  62.231  88.114  0.00  0.00    +0.000 Cl
ENDBRANCH   1   3
BRANCH   1  10
ATOM     10  O   UNL     1      90.400  67.164  86.429  0.00  0.00    +0.000 OA
BRANCH  10  16
ATOM     11  C   UNL     1      89.576  69.399  86.844  0.00  0.00    +0.000 A 
ATOM     12  C   UNL     1      89.099  70.607  86.331  0.00  0.00    +0.000 A 
ATOM     13  C   UNL     1      88.999  70.782  84.951  0.00  0.00    +0.000 A 
ATOM     14  C   UNL     1      89.364  69.757  84.078  0.00  0.00    +0.000 A 
ATOM     15  C   UNL     1      89.840  68.549  84.589  0.00  0.00    +0.000 A 
ATOM     16  C   UNL     1      89.965  68.381  85.970  0.00  0.00    +0.000 A 
ATOM     17 CL   UNL     1      88.411  72.271  84.320  0.00  0.00    +0.000 Cl
ENDBRANCH  10  16
ENDBRANCH   1  10
TORSDOF 3
ENDMDL
