REMARK  Name = *****
REMARK  3 active torsions:
REMARK  status: ('A' for Active; 'I' for Inactive)
REMARK    1  A    between atoms: C_8  and  C_9
REMARK    2  A    between atoms: C_9  and  S_11
REMARK    3  A    between atoms: S_11  and  C_12
REMARK                            x       y       z     vdW  Elec       q    Type
REMARK                         _______ _______ _______ _____ _____    ______ ____
ROOT
ATOM      1  C   UNL     1      -1.154   0.476  -0.997  0.00  0.00    +0.000 C 
ATOM      2  C   UNL     1       0.313   0.898  -1.246  0.00  0.00    +0.000 C 
ATOM      3  C   UNL     1       1.217   0.368  -0.106  0.00  0.00    +0.000 C 
ATOM      4  C   UNL     1       0.630   0.873   1.197  0.00  0.00    +0.000 C 
ATOM      5  C   UNL     1      -0.641   0.497   1.414  0.00  0.00    +0.000 C 
ATOM      6  C   UNL     1      -1.248  -0.343   0.309  0.00  0.00    +0.000 C 
ATOM      7  C   UNL     1      -0.364  -1.600   0.144  0.00  0.00    +0.000 C 
ATOM      8  C   UNL     1       1.120  -1.185  -0.109  0.00  0.00    +0.000 C 
ENDROOT
BRANCH   8   9
ATOM      9  C   UNL     1       2.079  -1.822   0.898  0.00  0.00    +0.000 C 
ATOM     10  O   UNL     1       1.733  -2.505   1.854  0.00  0.00    +0.000 OA
BRANCH   9  11
ATOM     11  S   UNL     1       3.795  -1.634   0.504  0.00  0.00    +0.000 S 
BRANCH  11  12
ATOM     12  C   UNL     1       4.262  -0.667   1.896  0.00  0.00    +0.000 A 
ATOM     13  C   UNL     1       4.136  -1.006   3.227  0.00  0.00    +0.000 A 
ATOM     14  C   UNL     1       4.624   0.014   4.096  0.00  0.00    +0.000 A 
ATOM     15  C   UNL     1       5.119   1.092   3.396  0.00  0.00    +0.000 A 
ATOM     16  S   UNL     1       4.999   0.866   1.705  0.00  0.00    +0.000 S 
ENDBRANCH  11  12
ENDBRANCH   9  11
ENDBRANCH   8   9
TORSDOF 3
