MODEL 1
REMARK VINA RESULT:      -4.8      0.000      0.000
REMARK  Name = *****
REMARK  3 active torsions:
REMARK  status: ('A' for Active; 'I' for Inactive)
REMARK    1  A    between atoms: C_4  and  C_8
REMARK    2  A    between atoms: C_9  and  C_10
REMARK    3  A    between atoms: C_13  and  C_16
REMARK                            x       y       z     vdW  Elec       q    Type
REMARK                         _______ _______ _______ _____ _____    ______ ____
ROOT
ATOM      1  C   UNL     1     103.118 125.936  82.327  0.00  0.00    +0.000 A 
ATOM      2  C   UNL     1     103.350 125.831  80.955  0.00  0.00    +0.000 A 
ATOM      3  C   UNL     1     104.005 124.710  80.438  0.00  0.00    +0.000 A 
ATOM      4  C   UNL     1     104.442 123.684  81.290  0.00  0.00    +0.000 A 
ATOM      5  C   UNL     1     104.195 123.796  82.668  0.00  0.00    +0.000 A 
ATOM      6  C   UNL     1     103.541 124.918  83.184  0.00  0.00    +0.000 A 
ENDROOT
BRANCH   4   7
ATOM      7  C   UNL     1     105.129 122.460  80.735  0.00  0.00    +0.000 C 
ATOM      8  F   UNL     1     105.935 122.730  79.670  0.00  0.00    +0.000 F 
ATOM      9  F   UNL     1     105.922 121.834  81.650  0.00  0.00    +0.000 F 
ATOM     10  F   UNL     1     104.244 121.519  80.305  0.00  0.00    +0.000 F 
ENDBRANCH   4   7
BRANCH   1  12
ATOM     11  C   UNL     1     101.866 128.041  83.289  0.00  0.00    +0.000 C 
ATOM     12  C   UNL     1     102.448 127.085  82.851  0.00  0.00    +0.000 C 
BRANCH  11  16
ATOM     13  C   UNL     1      99.737 131.609  84.357  0.00  0.00    +0.000 C 
ATOM     14  C   UNL     1      98.983 130.285  84.392  0.00  0.00    +0.000 C 
ATOM     15  C   UNL     1      99.820 129.146  83.892  0.00  0.00    +0.000 C 
ATOM     16  C   UNL     1     101.161 129.163  83.807  0.00  0.00    +0.000 C 
ATOM     17  C   UNL     1     101.912 130.365  84.297  0.00  0.00    +0.000 C 
ATOM     18  O   UNL     1     103.140 130.422  84.225  0.00  0.00    +0.000 OA
ATOM     19  C   UNL     1     101.122 131.471  84.967  0.00  0.00    +0.000 C 
ENDBRANCH  11  16
ENDBRANCH   1  12
TORSDOF 3
ENDMDL
