MODEL 1
REMARK VINA RESULT:      -4.4      0.000      0.000
REMARK  Name = *****
REMARK  3 active torsions:
REMARK  status: ('A' for Active; 'I' for Inactive)
REMARK    1  A    between atoms: C_4  and  C_7
REMARK    2  A    between atoms: C_7  and  S_8
REMARK    3  A    between atoms: S_8  and  C_10
REMARK                            x       y       z     vdW  Elec       q    Type
REMARK                         _______ _______ _______ _____ _____    ______ ____
ROOT
ATOM      1  S   UNL     1      88.546  70.319  86.375  0.00  0.00    +0.000 S 
ATOM      2  O   UNL     1      89.924  70.884  86.575  0.00  0.00    +0.000 OA
ENDROOT
BRANCH   1   3
ATOM      3  C   UNL     1      88.715  68.536  86.634  0.00  0.00    +0.000 A 
ATOM      4  C   UNL     1      89.870  67.881  86.187  0.00  0.00    +0.000 A 
ATOM      5  C   UNL     1      90.013  66.505  86.381  0.00  0.00    +0.000 A 
ATOM      6  C   UNL     1      89.006  65.794  87.025  0.00  0.00    +0.000 A 
ATOM      7  C   UNL     1      87.860  66.432  87.482  0.00  0.00    +0.000 A 
ATOM      8  C   UNL     1      87.714  67.807  87.290  0.00  0.00    +0.000 A 
ATOM      9  F   UNL     1      89.146  64.475  87.209  0.00  0.00    +0.000 F 
ENDBRANCH   1   3
BRANCH   1  10
ATOM     10  C   UNL     1      87.580  70.667  87.887  0.00  0.00    +0.000 C 
BRANCH  10  14
ATOM     11  C   UNL     1      83.859  72.661  87.005  0.00  0.00    +0.000 A 
ATOM     12  C   UNL     1      84.703  72.271  85.967  0.00  0.00    +0.000 A 
ATOM     13  C   UNL     1      85.907  71.625  86.249  0.00  0.00    +0.000 A 
ATOM     14  C   UNL     1      86.279  71.359  87.576  0.00  0.00    +0.000 A 
ATOM     15  C   UNL     1      85.422  71.762  88.612  0.00  0.00    +0.000 A 
ATOM     16  C   UNL     1      84.219  72.409  88.327  0.00  0.00    +0.000 A 
ENDBRANCH  10  14
ENDBRANCH   1  10
TORSDOF 3
ENDMDL
