MODEL 1
REMARK VINA RESULT:      -4.5      0.000      0.000
REMARK  Name = *****
REMARK  3 active torsions:
REMARK  status: ('A' for Active; 'I' for Inactive)
REMARK    1  A    between atoms: C_1  and  C_2
REMARK    2  A    between atoms: C_4  and  N_8
REMARK    3  A    between atoms: C_10  and  C_11
REMARK                            x       y       z     vdW  Elec       q    Type
REMARK                         _______ _______ _______ _____ _____    ______ ____
ROOT
ATOM      1  N   UNL     1      87.739  63.701  86.339  0.00  0.00    +0.000 N 
ATOM      2  C   UNL     1      86.323  63.505  86.637  0.00  0.00    +0.000 C 
ATOM      3  C   UNL     1      87.374  62.900  87.525  0.00  0.00    +0.000 C 
ENDROOT
BRANCH   1   7
ATOM      4  C   UNL     1      87.656  68.608  87.469  0.00  0.00    +0.000 C 
ATOM      5  C   UNL     1      88.349  67.393  86.926  0.00  0.00    +0.000 A 
ATOM      6  C   UNL     1      87.681  66.157  86.883  0.00  0.00    +0.000 A 
ATOM      7  C   UNL     1      88.319  64.993  86.429  0.00  0.00    +0.000 A 
ATOM      8  C   UNL     1      89.653  65.104  86.007  0.00  0.00    +0.000 A 
ATOM      9  C   UNL     1      90.334  66.323  86.054  0.00  0.00    +0.000 A 
ATOM     10  C   UNL     1      89.684  67.462  86.520  0.00  0.00    +0.000 A 
ENDBRANCH   1   7
BRANCH   3  11
ATOM     11  C   UNL     1      87.596  63.365  88.941  0.00  0.00    +0.000 A 
ATOM     12  C   UNL     1      86.518  63.607  89.813  0.00  0.00    +0.000 A 
ATOM     13  C   UNL     1      86.725  64.024  91.132  0.00  0.00    +0.000 A 
ATOM     14  C   UNL     1      88.022  64.195  91.607  0.00  0.00    +0.000 A 
ATOM     15  C   UNL     1      89.109  63.947  90.776  0.00  0.00    +0.000 A 
ATOM     16  C   UNL     1      88.893  63.528  89.459  0.00  0.00    +0.000 A 
ATOM     17 CL   UNL     1      88.279  64.711  93.227  0.00  0.00    +0.000 Cl
ENDBRANCH   3  11
TORSDOF 2
ENDMDL
