MODEL 1
REMARK VINA RESULT:      -4.7      0.000      0.000
REMARK  Name = *****
REMARK  5 active torsions:
REMARK  status: ('A' for Active; 'I' for Inactive)
REMARK    1  A    between atoms: C_1  and  C_2
REMARK    2  A    between atoms: C_3  and  O_16
REMARK    3  A    between atoms: C_5  and  C_8
REMARK    4  A    between atoms: C_9  and  C_10
REMARK    5  A    between atoms: O_16  and  C_17
REMARK                            x       y       z     vdW  Elec       q    Type
REMARK                         _______ _______ _______ _____ _____    ______ ____
ROOT
ATOM      1  C   UNL     1     107.048 121.670  80.809  0.00  0.00    +0.000 C 
ATOM      2  C   UNL     1     105.958 122.654  81.136  0.00  0.00    +0.000 A 
ATOM      3  C   UNL     1     105.572 123.636  80.203  0.00  0.00    +0.000 A 
ATOM      4  C   UNL     1     104.552 124.536  80.531  0.00  0.00    +0.000 A 
ATOM      5  C   UNL     1     103.919 124.463  81.776  0.00  0.00    +0.000 A 
ATOM      6  C   UNL     1     104.299 123.491  82.699  0.00  0.00    +0.000 A 
ATOM      7  C   UNL     1     105.314 122.589  82.380  0.00  0.00    +0.000 A 
ENDROOT
BRANCH   5   8
ATOM      8  C   UNL     1     102.878 125.389  82.102  0.00  0.00    +0.000 C 
ATOM      9  C   UNL     1     102.004 126.167  82.375  0.00  0.00    +0.000 C 
BRANCH   9  10
ATOM     10  C   UNL     1     100.961 127.092  82.699  0.00  0.00    +0.000 A 
ATOM     11  C   UNL     1      99.636 126.798  82.367  0.00  0.00    +0.000 A 
ATOM     12  C   UNL     1      98.620 127.701  82.684  0.00  0.00    +0.000 A 
ATOM     13  C   UNL     1      98.927 128.898  83.331  0.00  0.00    +0.000 A 
ATOM     14  C   UNL     1     100.249 129.192  83.664  0.00  0.00    +0.000 A 
ATOM     15  C   UNL     1     101.267 128.290  83.348  0.00  0.00    +0.000 A 
ENDBRANCH   9  10
ENDBRANCH   5   8
BRANCH   3  16
ATOM     16  O   UNL     1     106.252 123.621  79.013  0.00  0.00    +0.000 OA
ATOM     17  C   UNL     1     106.258 124.820  78.249  0.00  0.00    +0.000 C 
ENDBRANCH   3  16
TORSDOF 3
ENDMDL
