MODEL 1
REMARK VINA RESULT:      -4.6      0.000      0.000
REMARK  Name = *****
REMARK  4 active torsions:
REMARK  status: ('A' for Active; 'I' for Inactive)
REMARK    1  A    between atoms: C_3  and  C_8
REMARK    2  A    between atoms: C_8  and  O_9
REMARK    3  A    between atoms: O_9  and  C_10
REMARK    4  A    between atoms: C_10  and  C_12
REMARK                            x       y       z     vdW  Elec       q    Type
REMARK                         _______ _______ _______ _____ _____    ______ ____
ROOT
ATOM      1  O   UNL     1     100.454 126.786  83.223  0.00  0.00    +0.000 OA
ENDROOT
BRANCH   1   2
ATOM      2  C   UNL     1      99.270 127.369  82.918  0.00  0.00    +0.000 C 
ATOM      3  O   UNL     1      98.489 127.008  82.052  0.00  0.00    +0.000 OA
BRANCH   2   4
ATOM      4  C   UNL     1      99.024 128.537  83.806  0.00  0.00    +0.000 A 
ATOM      5  C   UNL     1      98.333 128.424  85.019  0.00  0.00    +0.000 A 
ATOM      6  C   UNL     1      98.138 129.556  85.809  0.00  0.00    +0.000 A 
ATOM      7  C   UNL     1      98.623 130.800  85.406  0.00  0.00    +0.000 A 
ATOM      8  C   UNL     1      99.314 130.916  84.201  0.00  0.00    +0.000 A 
ATOM      9  C   UNL     1      99.515 129.788  83.403  0.00  0.00    +0.000 A 
ATOM     10 CL   UNL     1      97.287 129.419  87.300  0.00  0.00    +0.000 Cl
ENDBRANCH   2   4
ENDBRANCH   1   2
BRANCH   1  11
ATOM     11  C   UNL     1     101.212 126.298  82.109  0.00  0.00    +0.000 C 
BRANCH  11  14
ATOM     12  C   UNL     1     104.286 127.920  80.548  0.00  0.00    +0.000 A 
ATOM     13  C   UNL     1     103.174 127.098  80.735  0.00  0.00    +0.000 A 
ATOM     14  C   UNL     1     102.428 127.166  81.922  0.00  0.00    +0.000 A 
ATOM     15  C   UNL     1     102.805 128.087  82.910  0.00  0.00    +0.000 A 
ATOM     16  C   UNL     1     103.918 128.906  82.717  0.00  0.00    +0.000 A 
ATOM     17  C   UNL     1     104.662 128.824  81.542  0.00  0.00    +0.000 A 
ATOM     18 CL   UNL     1     104.374 130.028  83.940  0.00  0.00    +0.000 Cl
ENDBRANCH  11  14
ENDBRANCH   1  11
TORSDOF 4
ENDMDL
