MODEL 1
REMARK VINA RESULT:      -4.0      0.000      0.000
REMARK  Name = *****
REMARK  4 active torsions:
REMARK  status: ('A' for Active; 'I' for Inactive)
REMARK    1  A    between atoms: C_4  and  O_7
REMARK    2  A    between atoms: O_7  and  C_8
REMARK    3  A    between atoms: C_8  and  S_10
REMARK    4  A    between atoms: S_10  and  C_11
REMARK                            x       y       z     vdW  Elec       q    Type
REMARK                         _______ _______ _______ _____ _____    ______ ____
ROOT
ATOM      1  C   UNL     1      89.664  67.754  86.032  0.00  0.00    +0.000 C 
ATOM      2  O   UNL     1      90.699  67.367  86.562  0.00  0.00    +0.000 OA
ENDROOT
BRANCH   1   3
ATOM      3  O   UNL     1      88.500  67.009  85.879  0.00  0.00    +0.000 OA
BRANCH   3   7
ATOM      4  C   UNL     1      87.000  65.281  89.362  0.00  0.00    +0.000 A 
ATOM      5  C   UNL     1      86.513  66.520  88.940  0.00  0.00    +0.000 A 
ATOM      6  C   UNL     1      87.016  67.112  87.783  0.00  0.00    +0.000 A 
ATOM      7  C   UNL     1      88.020  66.458  87.068  0.00  0.00    +0.000 A 
ATOM      8  C   UNL     1      88.499  65.212  87.466  0.00  0.00    +0.000 A 
ATOM      9  C   UNL     1      87.990  64.626  88.624  0.00  0.00    +0.000 A 
ENDBRANCH   3   7
ENDBRANCH   1   3
BRANCH   1  10
ATOM     10  S   UNL     1      89.564  69.395  85.385  0.00  0.00    +0.000 S 
BRANCH  10  11
ATOM     11  C   UNL     1      88.560  70.141  86.653  0.00  0.00    +0.000 A 
ATOM     12  C   UNL     1      87.288  70.649  86.360  0.00  0.00    +0.000 A 
ATOM     13  C   UNL     1      86.510  71.226  87.367  0.00  0.00    +0.000 A 
ATOM     14  C   UNL     1      86.999  71.289  88.670  0.00  0.00    +0.000 A 
ATOM     15  C   UNL     1      88.260  70.778  88.975  0.00  0.00    +0.000 A 
ATOM     16  C   UNL     1      89.037  70.202  87.967  0.00  0.00    +0.000 A 
ATOM     17 CL   UNL     1      86.042  71.999  89.910  0.00  0.00    +0.000 Cl
ENDBRANCH  10  11
ENDBRANCH   1  10
TORSDOF 4
ENDMDL
