MODEL 1
REMARK VINA RESULT:      -4.4      0.000      0.000
REMARK  Name = *****
REMARK  4 active torsions:
REMARK  status: ('A' for Active; 'I' for Inactive)
REMARK    1  A    between atoms: C_4  and  C_7
REMARK    2  A    between atoms: C_7  and  S_9
REMARK    3  A    between atoms: S_9  and  C_10
REMARK    4  A    between atoms: C_15  and  C_16
REMARK                            x       y       z     vdW  Elec       q    Type
REMARK                         _______ _______ _______ _____ _____    ______ ____
ROOT
ATOM      1  S   UNL     1     101.752 126.864  84.020  0.00  0.00    +0.000 S 
ENDROOT
BRANCH   1   2
ATOM      2  C   UNL     1     101.008 128.493  84.057  0.00  0.00    +0.000 A 
ATOM      3  C   UNL     1     101.724 129.513  84.700  0.00  0.00    +0.000 A 
ATOM      4  C   UNL     1     101.220 130.813  84.754  0.00  0.00    +0.000 A 
ATOM      5  C   UNL     1      99.998 131.113  84.161  0.00  0.00    +0.000 A 
ATOM      6  C   UNL     1      99.278 130.110  83.509  0.00  0.00    +0.000 A 
ATOM      7  C   UNL     1      99.778 128.800  83.450  0.00  0.00    +0.000 A 
BRANCH   7   8
ATOM      8  C   UNL     1      99.001 127.807  82.766  0.00  0.00    +0.000 C 
ATOM      9  N   UNL     1      98.400 126.986  82.206  0.00  0.00    +0.000 NA
ENDBRANCH   7   8
ENDBRANCH   1   2
BRANCH   1  10
ATOM     10  C   UNL     1     103.079 127.169  82.794  0.00  0.00    +0.000 C 
ATOM     11  F   UNL     1     102.587 128.009  81.835  0.00  0.00    +0.000 F 
BRANCH  10  15
ATOM     12  C   UNL     1     104.530 123.453  81.141  0.00  0.00    +0.000 A 
ATOM     13  C   UNL     1     104.334 123.574  82.515  0.00  0.00    +0.000 A 
ATOM     14  C   UNL     1     103.867 124.775  83.052  0.00  0.00    +0.000 A 
ATOM     15  C   UNL     1     103.591 125.869  82.217  0.00  0.00    +0.000 A 
ATOM     16  C   UNL     1     103.790 125.733  80.835  0.00  0.00    +0.000 A 
ATOM     17  C   UNL     1     104.257 124.531  80.301  0.00  0.00    +0.000 A 
ENDBRANCH  10  15
ENDBRANCH   1  10
TORSDOF 4
ENDMDL
