REMARK  Name = *****
REMARK  4 active torsions:
REMARK  status: ('A' for Active; 'I' for Inactive)
REMARK    1  A    between atoms: C_4  and  C_7
REMARK    2  A    between atoms: C_7  and  C_8
REMARK    3  A    between atoms: C_8  and  O_10
REMARK    4  A    between atoms: O_10  and  C_11
REMARK                            x       y       z     vdW  Elec       q    Type
REMARK                         _______ _______ _______ _____ _____    ______ ____
ROOT
ATOM      1  C   UNL     1      -3.991  -0.044  -0.105  0.00  0.00    +0.000 C 
ATOM      2  O   UNL     1      -4.721  -0.816   0.507  0.00  0.00    +0.000 OA
ENDROOT
BRANCH   1   3
ATOM      3  C   UNL     1      -2.851   0.721   0.523  0.00  0.00    +0.000 C 
BRANCH   3   7
ATOM      4  C   UNL     1       0.980  -0.849  -0.675  0.00  0.00    +0.000 A 
ATOM      5  C   UNL     1       0.506   0.333  -1.240  0.00  0.00    +0.000 A 
ATOM      6  C   UNL     1      -0.731   0.849  -0.849  0.00  0.00    +0.000 A 
ATOM      7  C   UNL     1      -1.502   0.185   0.115  0.00  0.00    +0.000 A 
ATOM      8  C   UNL     1      -1.018  -1.006   0.673  0.00  0.00    +0.000 A 
ATOM      9  C   UNL     1       0.219  -1.519   0.280  0.00  0.00    +0.000 A 
ENDBRANCH   3   7
ENDBRANCH   1   3
BRANCH   1  10
ATOM     10  O   UNL     1      -4.070   0.271  -1.458  0.00  0.00    +0.000 OA
BRANCH  10  11
ATOM     11  C   UNL     1      -5.048  -0.461  -2.130  0.00  0.00    +0.000 A 
ATOM     12  C   UNL     1      -4.668  -1.613  -2.816  0.00  0.00    +0.000 A 
ATOM     13  C   UNL     1      -5.631  -2.332  -3.527  0.00  0.00    +0.000 A 
ATOM     14  C   UNL     1      -6.960  -1.884  -3.555  0.00  0.00    +0.000 A 
ATOM     15  C   UNL     1      -7.319  -0.713  -2.875  0.00  0.00    +0.000 A 
ATOM     16  C   UNL     1      -6.359   0.008  -2.165  0.00  0.00    +0.000 A 
ATOM     17 CL   UNL     1      -8.201  -2.722  -4.417  0.00  0.00    +0.000 Cl
ATOM     18 CL   UNL     1      -5.118  -3.758  -4.357  0.00  0.00    +0.000 Cl
ENDBRANCH  10  11
ENDBRANCH   1  10
TORSDOF 4
