REMARK  Name = *****
REMARK  2 active torsions:
REMARK  status: ('A' for Active; 'I' for Inactive)
REMARK    1  A    between atoms: C_6  and  C_7
REMARK    2  A    between atoms: N_9  and  C_10
REMARK                            x       y       z     vdW  Elec       q    Type
REMARK                         _______ _______ _______ _____ _____    ______ ____
ROOT
ATOM      1  C   UNL     1      -2.615   2.757  -0.179  0.00  0.00    +0.000 C 
ATOM      2  O   UNL     1      -1.969   3.733  -0.538  0.00  0.00    +0.000 OA
ATOM      3  N   UNL     1      -3.954   2.729   0.167  0.00  0.00    +0.000 N 
ATOM      4  H   UNL     1      -4.303   1.870   0.497  0.00  0.00    +0.000 HD
ENDROOT
BRANCH   1  10
ATOM      5  C   UNL     1      -2.522   0.240  -0.370  0.00  0.00    +0.000 A 
ATOM      6  C   UNL     1      -1.813  -0.957  -0.243  0.00  0.00    +0.000 A 
ATOM      7  C   UNL     1      -0.491  -0.935   0.193  0.00  0.00    +0.000 A 
ATOM      8  C   UNL     1       0.137   0.272   0.497  0.00  0.00    +0.000 A 
ATOM      9  C   UNL     1      -0.563   1.471   0.372  0.00  0.00    +0.000 A 
ATOM     10  C   UNL     1      -1.901   1.456  -0.049  0.00  0.00    +0.000 A 
ATOM     11 CL   UNL     1       1.774   0.298   1.030  0.00  0.00    +0.000 Cl
ATOM     12  F   UNL     1       0.166  -2.098   0.308  0.00  0.00    +0.000 F 
ENDBRANCH   1  10
BRANCH   3  13
ATOM     13  C   UNL     1      -4.874   3.797   0.097  0.00  0.00    +0.000 A 
ATOM     14  C   UNL     1      -4.574   5.054  -0.440  0.00  0.00    +0.000 A 
ATOM     15  C   UNL     1      -5.551   6.054  -0.475  0.00  0.00    +0.000 A 
ATOM     16  C   UNL     1      -6.826   5.803   0.023  0.00  0.00    +0.000 A 
ATOM     17  C   UNL     1      -7.139   4.558   0.556  0.00  0.00    +0.000 A 
ATOM     18  C   UNL     1      -6.165   3.557   0.591  0.00  0.00    +0.000 A 
ATOM     19  F   UNL     1      -7.775   6.749  -0.004  0.00  0.00    +0.000 F 
ATOM     20 CL   UNL     1      -5.164   7.595  -1.143  0.00  0.00    +0.000 Cl
ENDBRANCH   3  13
TORSDOF 2
