REMARK  Name = *****
REMARK  5 active torsions:
REMARK  status: ('A' for Active; 'I' for Inactive)
REMARK    1  A    between atoms: C_1  and  O_2
REMARK    2  A    between atoms: O_2  and  C_3
REMARK    3  A    between atoms: C_3  and  C_4
REMARK    4  A    between atoms: C_3  and  C_10
REMARK    5  A    between atoms: C_10  and  C_13
REMARK                            x       y       z     vdW  Elec       q    Type
REMARK                         _______ _______ _______ _____ _____    ______ ____
ROOT
ATOM      1  C   UNL     1       3.030   0.103   1.412  0.00  0.00    +0.000 C 
ENDROOT
BRANCH   1   2
ATOM      2  C   UNL     1       2.393  -0.931   2.340  0.00  0.00    +0.000 A 
ATOM      3  C   UNL     1       1.727  -2.072   1.874  0.00  0.00    +0.000 A 
ATOM      4  C   UNL     1       1.146  -2.982   2.764  0.00  0.00    +0.000 A 
ATOM      5  C   UNL     1       1.215  -2.761   4.137  0.00  0.00    +0.000 A 
ATOM      6  C   UNL     1       1.854  -1.625   4.622  0.00  0.00    +0.000 A 
ATOM      7  C   UNL     1       2.430  -0.716   3.733  0.00  0.00    +0.000 A 
ENDBRANCH   1   2
BRANCH   1   8
ATOM      8  C   UNL     1       4.583   0.136   1.384  0.00  0.00    +0.000 C 
ATOM      9  C   UNL     1       5.373  -1.100   0.949  0.00  0.00    +0.000 C 
ATOM     10  C   UNL     1       5.424  -0.686   2.379  0.00  0.00    +0.000 C 
BRANCH   8  11
ATOM     11  C   UNL     1       5.164   1.532   1.085  0.00  0.00    +0.000 A 
ATOM     12  C   UNL     1       5.203   2.520   2.088  0.00  0.00    +0.000 A 
ATOM     13  C   UNL     1       5.719   3.796   1.845  0.00  0.00    +0.000 A 
ATOM     14  C   UNL     1       6.214   4.115   0.585  0.00  0.00    +0.000 A 
ATOM     15  C   UNL     1       6.195   3.159  -0.425  0.00  0.00    +0.000 A 
ATOM     16  C   UNL     1       5.677   1.884  -0.175  0.00  0.00    +0.000 A 
ENDBRANCH   8  11
ENDBRANCH   1   8
BRANCH   1  18
ATOM     17  C   UNL     1       2.948  -0.599  -0.933  0.00  0.00    +0.000 C 
ATOM     18  O   UNL     1       2.398   0.169   0.118  0.00  0.00    +0.000 OA
ENDBRANCH   1  18
TORSDOF 4
