MODEL 1
REMARK VINA RESULT:      -5.1      0.000      0.000
REMARK  Name = *****
REMARK  2 active torsions:
REMARK  status: ('A' for Active; 'I' for Inactive)
REMARK    1  A    between atoms: C_3  and  C_8
REMARK    2  A    between atoms: C_9  and  C_10
REMARK                            x       y       z     vdW  Elec       q    Type
REMARK                         _______ _______ _______ _____ _____    ______ ____
ROOT
ATOM      1  C   UNL     1     103.057 126.388  81.493  0.00  0.00    +0.000 C 
ATOM      2  C   UNL     1     101.949 126.205  82.232  0.00  0.00    +0.000 C 
ENDROOT
BRANCH   2   3
ATOM      3  C   UNL     1     101.108 127.297  82.750  0.00  0.00    +0.000 A 
ATOM      4  C   UNL     1      99.717 127.239  82.569  0.00  0.00    +0.000 A 
ATOM      5  C   UNL     1      98.875 128.229  83.064  0.00  0.00    +0.000 A 
ATOM      6  C   UNL     1      99.427 129.289  83.765  0.00  0.00    +0.000 A 
ATOM      7  C   UNL     1     100.799 129.370  83.979  0.00  0.00    +0.000 A 
ATOM      8  C   UNL     1     101.639 128.371  83.478  0.00  0.00    +0.000 A 
ATOM      9  F   UNL     1      98.627 130.248  84.250  0.00  0.00    +0.000 F 
ATOM     10  F   UNL     1      99.168 126.213  81.900  0.00  0.00    +0.000 F 
ENDBRANCH   2   3
BRANCH   1  13
ATOM     11  C   UNL     1     104.802 123.054  81.291  0.00  0.00    +0.000 A 
ATOM     12  C   UNL     1     104.001 124.113  81.728  0.00  0.00    +0.000 A 
ATOM     13  C   UNL     1     103.888 125.292  80.973  0.00  0.00    +0.000 A 
ATOM     14  C   UNL     1     104.619 125.400  79.784  0.00  0.00    +0.000 A 
ATOM     15  C   UNL     1     105.414 124.340  79.357  0.00  0.00    +0.000 A 
ATOM     16  C   UNL     1     105.509 123.168  80.097  0.00  0.00    +0.000 A 
ATOM     17  F   UNL     1     106.104 124.453  78.215  0.00  0.00    +0.000 F 
ENDBRANCH   1  13
TORSDOF 2
ENDMDL
