REMARK  Name = *****
REMARK  5 active torsions:
REMARK  status: ('A' for Active; 'I' for Inactive)
REMARK    1  A    between atoms: C_1  and  C_2
REMARK    2  A    between atoms: C_2  and  C_3
REMARK    3  A    between atoms: C_2  and  O_9
REMARK    4  A    between atoms: O_9  and  C_10
REMARK    5  A    between atoms: C_10  and  C_12
REMARK                            x       y       z     vdW  Elec       q    Type
REMARK                         _______ _______ _______ _____ _____    ______ ____
ROOT
ATOM      1  O   UNL     1       3.560   0.646  -1.278  0.00  0.00    +0.000 OA
ENDROOT
BRANCH   1   3
ATOM      2  C   UNL     1       1.501   0.194  -0.065  0.00  0.00    +0.000 C 
ATOM      3  C   UNL     1       2.991  -0.119  -0.200  0.00  0.00    +0.000 C 
BRANCH   3   4
ATOM      4  C   UNL     1       3.219  -1.586  -0.517  0.00  0.00    +0.000 A 
ATOM      5  C   UNL     1       2.821  -2.137  -1.746  0.00  0.00    +0.000 A 
ATOM      6  C   UNL     1       3.031  -3.490  -2.022  0.00  0.00    +0.000 A 
ATOM      7  C   UNL     1       3.642  -4.308  -1.074  0.00  0.00    +0.000 A 
ATOM      8  C   UNL     1       4.042  -3.776   0.149  0.00  0.00    +0.000 A 
ATOM      9  C   UNL     1       3.832  -2.423   0.428  0.00  0.00    +0.000 A 
ENDBRANCH   3   4
ENDBRANCH   1   3
BRANCH   1  10
ATOM     10  C   UNL     1       3.928   1.912  -0.974  0.00  0.00    +0.000 C 
ATOM     11  O   UNL     1       3.788   2.464   0.105  0.00  0.00    +0.000 OA
BRANCH  10  12
ATOM     12  C   UNL     1       4.534   2.574  -2.162  0.00  0.00    +0.000 A 
ATOM     13  C   UNL     1       4.865   3.934  -2.065  0.00  0.00    +0.000 A 
ATOM     14  C   UNL     1       5.439   4.600  -3.152  0.00  0.00    +0.000 A 
ATOM     15  C   UNL     1       5.686   3.907  -4.336  0.00  0.00    +0.000 A 
ATOM     16  C   UNL     1       5.364   2.555  -4.444  0.00  0.00    +0.000 A 
ATOM     17  C   UNL     1       4.789   1.887  -3.358  0.00  0.00    +0.000 A 
ATOM     18 CL   UNL     1       6.394   4.725  -5.673  0.00  0.00    +0.000 Cl
ENDBRANCH  10  12
ENDBRANCH   1  10
TORSDOF 4
