MODEL 1
REMARK VINA RESULT:      -4.4      0.000      0.000
REMARK  Name = *****
REMARK  5 active torsions:
REMARK  status: ('A' for Active; 'I' for Inactive)
REMARK    1  A    between atoms: C_1  and  O_2
REMARK    2  A    between atoms: O_2  and  C_3
REMARK    3  A    between atoms: C_3  and  C_4
REMARK    4  A    between atoms: C_3  and  C_10
REMARK    5  A    between atoms: C_10  and  C_11
REMARK                            x       y       z     vdW  Elec       q    Type
REMARK                         _______ _______ _______ _____ _____    ______ ____
ROOT
ATOM      1  C   UNL     1     102.070 126.610  83.912  0.00  0.00    +0.000 C 
ENDROOT
BRANCH   1   2
ATOM      2  C   UNL     1     102.705 126.584  82.526  0.00  0.00    +0.000 A 
ATOM      3  C   UNL     1     102.912 125.359  81.874  0.00  0.00    +0.000 A 
ATOM      4  C   UNL     1     103.513 125.319  80.613  0.00  0.00    +0.000 A 
ATOM      5  C   UNL     1     103.916 126.500  79.994  0.00  0.00    +0.000 A 
ATOM      6  C   UNL     1     103.719 127.723  80.632  0.00  0.00    +0.000 A 
ATOM      7  C   UNL     1     103.118 127.765  81.890  0.00  0.00    +0.000 A 
ENDBRANCH   1   2
BRANCH   1   9
ATOM      8  C   UNL     1     102.259 125.315  85.907  0.00  0.00    +0.000 C 
ATOM      9  O   UNL     1     102.050 125.296  84.500  0.00  0.00    +0.000 OA
ENDBRANCH   1   9
BRANCH   1  10
ATOM     10  C   UNL     1     100.646 127.242  83.870  0.00  0.00    +0.000 C 
ATOM     11 CL   UNL     1      99.791 126.754  82.357  0.00  0.00    +0.000 Cl
BRANCH  10  12
ATOM     12  C   UNL     1     100.563 128.751  84.034  0.00  0.00    +0.000 A 
ATOM     13  C   UNL     1     101.550 129.480  84.718  0.00  0.00    +0.000 A 
ATOM     14  C   UNL     1     101.442 130.864  84.867  0.00  0.00    +0.000 A 
ATOM     15  C   UNL     1     100.347 131.540  84.337  0.00  0.00    +0.000 A 
ATOM     16  C   UNL     1      99.358 130.834  83.658  0.00  0.00    +0.000 A 
ATOM     17  C   UNL     1      99.464 129.450  83.506  0.00  0.00    +0.000 A 
ENDBRANCH  10  12
ENDBRANCH   1  10
TORSDOF 4
ENDMDL
