MODEL 1
REMARK VINA RESULT:      -4.5      0.000      0.000
REMARK  Name = *****
REMARK  4 active torsions:
REMARK  status: ('A' for Active; 'I' for Inactive)
REMARK    1  A    between atoms: C_1  and  C_2
REMARK    2  A    between atoms: C_2  and  C_10
REMARK    3  A    between atoms: N_3  and  C_4
REMARK    4  A    between atoms: C_10  and  C_16
REMARK                            x       y       z     vdW  Elec       q    Type
REMARK                         _______ _______ _______ _____ _____    ______ ____
ROOT
ATOM      1  C   UNL     1     103.168 127.233  80.872  0.00  0.00    +0.000 C 
ATOM      2  C   UNL     1     103.122 126.130  81.916  0.00  0.00    +0.000 C 
ATOM      3  N   UNL     1     102.212 126.033  82.844  0.00  0.00    +0.000 NA
ENDROOT
BRANCH   3   4
ATOM      4  C   UNL     1     101.182 126.974  82.942  0.00  0.00    +0.000 A 
ATOM      5  C   UNL     1      99.915 126.684  82.430  0.00  0.00    +0.000 A 
ATOM      6  C   UNL     1      98.878 127.611  82.546  0.00  0.00    +0.000 A 
ATOM      7  C   UNL     1      99.101 128.828  83.190  0.00  0.00    +0.000 A 
ATOM      8  C   UNL     1     100.358 129.114  83.723  0.00  0.00    +0.000 A 
ATOM      9  C   UNL     1     101.393 128.185  83.604  0.00  0.00    +0.000 A 
ENDBRANCH   3   4
BRANCH   2  10
ATOM     10  C   UNL     1     104.219 125.025  81.897  0.00  0.00    +0.000 C 
ATOM     11  C   UNL     1     104.197 124.375  80.482  0.00  0.00    +0.000 C 
ATOM     12  C   UNL     1     105.111 123.157  80.335  0.00  0.00    +0.000 C 
ATOM     13  C   UNL     1     104.839 122.109  81.404  0.00  0.00    +0.000 C 
ATOM     14  C   UNL     1     104.897 122.708  82.804  0.00  0.00    +0.000 C 
ATOM     15  C   UNL     1     103.956 123.905  82.937  0.00  0.00    +0.000 C 
BRANCH  10  16
ATOM     16  C   UNL     1     105.579 125.733  82.115  0.00  0.00    +0.000 C 
ATOM     17 CL   UNL     1     105.731 126.516  83.715  0.00  0.00    +0.000 Cl
ENDBRANCH  10  16
ENDBRANCH   2  10
TORSDOF 3
ENDMDL
