REMARK  Name = *****
REMARK  2 active torsions:
REMARK  status: ('A' for Active; 'I' for Inactive)
REMARK    1  A    between atoms: C_4  and  C_7
REMARK    2  A    between atoms: C_8  and  C_9
REMARK                            x       y       z     vdW  Elec       q    Type
REMARK                         _______ _______ _______ _____ _____    ______ ____
ROOT
ATOM      1  C   UNL     1      -2.801   0.441  -0.315  0.00  0.00    +0.000 C 
ATOM      2  C   UNL     1      -3.717  -0.536  -0.421  0.00  0.00    +0.000 C 
ENDROOT
BRANCH   2   3
ATOM      3  C   UNL     1      -5.157  -0.297  -0.597  0.00  0.00    +0.000 A 
ATOM      4  C   UNL     1      -5.655   0.759  -1.370  0.00  0.00    +0.000 A 
ATOM      5  C   UNL     1      -7.030   0.923  -1.529  0.00  0.00    +0.000 A 
ATOM      6  C   UNL     1      -7.931   0.047  -0.943  0.00  0.00    +0.000 A 
ATOM      7  C   UNL     1      -7.437  -1.008  -0.192  0.00  0.00    +0.000 A 
ATOM      8  C   UNL     1      -6.067  -1.192  -0.018  0.00  0.00    +0.000 A 
ATOM      9  F   UNL     1      -8.292  -1.869   0.375  0.00  0.00    +0.000 F 
ATOM     10  F   UNL     1      -7.488   1.942  -2.268  0.00  0.00    +0.000 F 
ENDBRANCH   2   3
BRANCH   1  14
ATOM     11  C   UNL     1       1.397  -0.164   0.244  0.00  0.00    +0.000 A 
ATOM     12  C   UNL     1       0.685  -1.025  -0.588  0.00  0.00    +0.000 A 
ATOM     13  C   UNL     1      -0.688  -0.843  -0.774  0.00  0.00    +0.000 A 
ATOM     14  C   UNL     1      -1.365   0.196  -0.121  0.00  0.00    +0.000 A 
ATOM     15  C   UNL     1      -0.634   1.065   0.700  0.00  0.00    +0.000 A 
ATOM     16  C   UNL     1       0.739   0.883   0.886  0.00  0.00    +0.000 A 
ENDBRANCH   1  14
TORSDOF 2
