MODEL 1
REMARK VINA RESULT:      -5.1      0.000      0.000
REMARK  Name = *****
REMARK  2 active torsions:
REMARK  status: ('A' for Active; 'I' for Inactive)
REMARK    1  A    between atoms: C_8  and  C_9
REMARK    2  A    between atoms: C_10  and  C_11
REMARK                            x       y       z     vdW  Elec       q    Type
REMARK                         _______ _______ _______ _____ _____    ______ ____
ROOT
ATOM      1  C   UNL     1     102.245 125.955  82.254  0.00  0.00    +0.000 C 
ATOM      2  C   UNL     1     102.982 125.897  81.132  0.00  0.00    +0.000 C 
ENDROOT
BRANCH   1  10
ATOM      3  C   UNL     1      98.214 127.319  84.820  0.00  0.00    +0.000 C 
ATOM      4  C   UNL     1      97.552 127.105  83.435  0.00  0.00    +0.000 C 
ATOM      5  C   UNL     1      98.632 127.628  82.458  0.00  0.00    +0.000 C 
ATOM      6  C   UNL     1      99.175 128.818  83.263  0.00  0.00    +0.000 C 
ATOM      7  C   UNL     1      99.584 127.935  84.452  0.00  0.00    +0.000 C 
ATOM      8  C   UNL     1     100.419 126.826  83.815  0.00  0.00    +0.000 C 
ATOM      9  C   UNL     1      99.779 126.618  82.476  0.00  0.00    +0.000 C 
ATOM     10  C   UNL     1     101.245 126.988  82.556  0.00  0.00    +0.000 C 
ENDBRANCH   1  10
BRANCH   2  11
ATOM     11  C   UNL     1     103.991 124.870  80.845  0.00  0.00    +0.000 A 
ATOM     12  C   UNL     1     104.857 124.955  79.744  0.00  0.00    +0.000 A 
ATOM     13  C   UNL     1     105.826 123.972  79.524  0.00  0.00    +0.000 A 
ATOM     14  C   UNL     1     105.938 122.911  80.413  0.00  0.00    +0.000 A 
ATOM     15  C   UNL     1     105.103 122.814  81.519  0.00  0.00    +0.000 A 
ATOM     16  C   UNL     1     104.135 123.797  81.738  0.00  0.00    +0.000 A 
ATOM     17  F   UNL     1     106.868 121.969  80.202  0.00  0.00    +0.000 F 
ENDBRANCH   2  11
TORSDOF 2
ENDMDL
