REMARK  Name = *****
REMARK  7 active torsions:
REMARK  status: ('A' for Active; 'I' for Inactive)
REMARK    1  A    between atoms: C_1  and  C_2
REMARK    2  A    between atoms: C_4  and  C_10
REMARK    3  A    between atoms: C_6  and  O_8
REMARK    4  A    between atoms: O_8  and  C_9
REMARK    5  A    between atoms: C_10  and  S_11
REMARK    6  A    between atoms: S_11  and  C_12
REMARK    7  A    between atoms: C_15  and  C_18
REMARK                            x       y       z     vdW  Elec       q    Type
REMARK                         _______ _______ _______ _____ _____    ______ ____
ROOT
ATOM      1  C   UNL     1       2.580   0.360   0.186  0.00  0.00    +0.000 C 
ATOM      2  C   UNL     1       1.090   0.247   0.035  0.00  0.00    +0.000 C 
ATOM      3  C   UNL     1       0.295   1.331  -0.014  0.00  0.00    +0.000 C 
ATOM      4  C   UNL     1      -1.214   1.278  -0.125  0.00  0.00    +0.000 C 
ATOM      5  C   UNL     1      -1.740  -0.128   0.217  0.00  0.00    +0.000 C 
ATOM      6  C   UNL     1      -0.936  -1.233  -0.472  0.00  0.00    +0.000 C 
ATOM      7  C   UNL     1       0.542  -1.157  -0.051  0.00  0.00    +0.000 C 
ENDROOT
BRANCH   6   8
ATOM      8  O   UNL     1      -1.529  -2.483  -0.094  0.00  0.00    +0.000 OA
ATOM      9  C   UNL     1      -1.082  -3.581  -0.877  0.00  0.00    +0.000 C 
ENDBRANCH   6   8
BRANCH   4  10
ATOM     10  C   UNL     1      -1.701   1.717  -1.523  0.00  0.00    +0.000 C 
BRANCH  10  11
ATOM     11  S   UNL     1      -1.466   3.514  -1.804  0.00  0.00    +0.000 S 
BRANCH  11  12
ATOM     12  C   UNL     1      -1.822   3.608  -3.549  0.00  0.00    +0.000 A 
ATOM     13  C   UNL     1      -3.023   3.135  -4.085  0.00  0.00    +0.000 A 
ATOM     14  C   UNL     1      -3.274   3.234  -5.456  0.00  0.00    +0.000 A 
ATOM     15  C   UNL     1      -2.327   3.806  -6.312  0.00  0.00    +0.000 A 
ATOM     16  C   UNL     1      -1.138   4.307  -5.770  0.00  0.00    +0.000 A 
ATOM     17  C   UNL     1      -0.888   4.207  -4.398  0.00  0.00    +0.000 A 
ATOM     18  C   UNL     1      -2.613   3.947  -7.778  0.00  0.00    +0.000 C 
ENDBRANCH  11  12
ENDBRANCH  10  11
ENDBRANCH   4  10
TORSDOF 4
