REMARK  Name = *****
REMARK  3 active torsions:
REMARK  status: ('A' for Active; 'I' for Inactive)
REMARK    1  A    between atoms: C_1  and  N_2
REMARK    2  A    between atoms: C_6  and  C_7
REMARK    3  A    between atoms: C_8  and  C_9
REMARK                            x       y       z     vdW  Elec       q    Type
REMARK                         _______ _______ _______ _____ _____    ______ ____
ROOT
ATOM      1  C   UNL     1       1.152  -0.508   0.085  0.00  0.00    +0.000 C 
ATOM      2  N   UNL     1       2.476  -0.144  -0.362  0.00  0.00    +0.000 N 
ATOM      3  C   UNL     1       3.482  -1.074  -0.474  0.00  0.00    +0.000 C 
ATOM      4  O   UNL     1       3.389  -2.270  -0.238  0.00  0.00    +0.000 OA
ATOM      5  C   UNL     1       4.740  -0.410  -0.916  0.00  0.00    +0.000 C 
ATOM      6  C   UNL     1       5.868  -1.103  -1.121  0.00  0.00    +0.000 C 
ATOM      7  S   UNL     1       4.482   1.282  -1.091  0.00  0.00    +0.000 S 
ATOM      8  C   UNL     1       2.803   1.163  -0.599  0.00  0.00    +0.000 C 
ATOM      9  O   UNL     1       2.076   2.137  -0.486  0.00  0.00    +0.000 OA
ENDROOT
BRANCH   6  10
ATOM     10  C   UNL     1       7.144  -0.566  -1.549  0.00  0.00    +0.000 C 
ATOM     11  C   UNL     1       8.228  -1.338  -1.731  0.00  0.00    +0.000 C 
BRANCH  11  12
ATOM     12  C   UNL     1       9.534  -0.826  -2.171  0.00  0.00    +0.000 A 
ATOM     13  C   UNL     1      10.059   0.385  -1.702  0.00  0.00    +0.000 A 
ATOM     14  C   UNL     1      11.318   0.824  -2.120  0.00  0.00    +0.000 A 
ATOM     15  C   UNL     1      12.069   0.051  -3.003  0.00  0.00    +0.000 A 
ATOM     16  C   UNL     1      11.564  -1.163  -3.464  0.00  0.00    +0.000 A 
ATOM     17  C   UNL     1      10.306  -1.602  -3.045  0.00  0.00    +0.000 A 
ENDBRANCH  11  12
ENDBRANCH   6  10
TORSDOF 2
