MODEL 1
REMARK VINA RESULT:      -3.6      0.000      0.000
REMARK  Name = *****
REMARK  2 active torsions:
REMARK  status: ('A' for Active; 'I' for Inactive)
REMARK    1  A    between atoms: C_4  and  C_6
REMARK    2  A    between atoms: C_7  and  C_8
REMARK                            x       y       z     vdW  Elec       q    Type
REMARK                         _______ _______ _______ _____ _____    ______ ____
ROOT
ATOM      1  C   UNL     1     102.615 125.588  81.909  0.00  0.00    +0.000 C 
ATOM      2  C   UNL     1     101.693 126.276  82.257  0.00  0.00    +0.000 C 
ENDROOT
BRANCH   1   6
ATOM      3  C   UNL     1     105.328 123.836  80.107  0.00  0.00    +0.000 A 
ATOM      4  C   UNL     1     105.575 123.180  81.292  0.00  0.00    +0.000 A 
ATOM      5  S   UNL     1     104.506 123.676  82.534  0.00  0.00    +0.000 S 
ATOM      6  C   UNL     1     103.705 124.770  81.493  0.00  0.00    +0.000 A 
ATOM      7  C   UNL     1     104.244 124.758  80.224  0.00  0.00    +0.000 A 
ENDBRANCH   1   6
BRANCH   2   8
ATOM      8  C   UNL     1     100.597 127.089  82.668  0.00  0.00    +0.000 A 
ATOM      9  C   UNL     1      99.273 126.838  82.372  0.00  0.00    +0.000 A 
ATOM     10  C   UNL     1      98.402 127.826  82.919  0.00  0.00    +0.000 A 
ATOM     11  C   UNL     1      99.094 128.795  83.611  0.00  0.00    +0.000 A 
ATOM     12  S   UNL     1     100.782 128.510  83.599  0.00  0.00    +0.000 S 
ENDBRANCH   2   8
TORSDOF 2
ENDMDL
