MODEL 1
REMARK VINA RESULT:      -4.4      0.000      0.000
REMARK  Name = *****
REMARK  3 active torsions:
REMARK  status: ('A' for Active; 'I' for Inactive)
REMARK    1  A    between atoms: C_4  and  C_7
REMARK    2  A    between atoms: C_7  and  C_16
REMARK    3  A    between atoms: N_8  and  C_9
REMARK                            x       y       z     vdW  Elec       q    Type
REMARK                         _______ _______ _______ _____ _____    ______ ____
ROOT
ATOM      1  C   UNL     1      86.769  63.524  88.154  0.00  0.00    +0.000 C 
ATOM      2  N   UNL     1      86.818  64.289  87.097  0.00  0.00    +0.000 NA
ENDROOT
BRANCH   2   3
ATOM      3  C   UNL     1      87.457  65.535  87.128  0.00  0.00    +0.000 A 
ATOM      4  C   UNL     1      88.735  65.665  86.578  0.00  0.00    +0.000 A 
ATOM      5  C   UNL     1      89.384  66.902  86.575  0.00  0.00    +0.000 A 
ATOM      6  C   UNL     1      88.745  68.017  87.110  0.00  0.00    +0.000 A 
ATOM      7  C   UNL     1      87.459  67.909  87.637  0.00  0.00    +0.000 A 
ATOM      8  C   UNL     1      86.814  66.669  87.636  0.00  0.00    +0.000 A 
ATOM      9 CL   UNL     1      89.542  69.542  87.110  0.00  0.00    +0.000 Cl
ENDBRANCH   2   3
BRANCH   1  13
ATOM     10  C   UNL     1      88.569  64.338  91.940  0.00  0.00    +0.000 A 
ATOM     11  C   UNL     1      87.197  64.527  91.765  0.00  0.00    +0.000 A 
ATOM     12  C   UNL     1      86.606  64.262  90.529  0.00  0.00    +0.000 A 
ATOM     13  C   UNL     1      87.398  63.811  89.468  0.00  0.00    +0.000 A 
ATOM     14  C   UNL     1      88.770  63.613  89.643  0.00  0.00    +0.000 A 
ATOM     15  C   UNL     1      89.355  63.882  90.881  0.00  0.00    +0.000 A 
ENDBRANCH   1  13
BRANCH   1  16
ATOM     16  C   UNL     1      85.998  62.216  88.074  0.00  0.00    +0.000 C 
ATOM     17  F   UNL     1      86.526  61.256  88.884  0.00  0.00    +0.000 F 
ATOM     18  F   UNL     1      84.701  62.368  88.465  0.00  0.00    +0.000 F 
ENDBRANCH   1  16
TORSDOF 3
ENDMDL
