REMARK  Name = *****
REMARK  3 active torsions:
REMARK  status: ('A' for Active; 'I' for Inactive)
REMARK    1  A    between atoms: C_6  and  C_7
REMARK    2  A    between atoms: N_8  and  C_9
REMARK    3  A    between atoms: C_12  and  S_15
REMARK                            x       y       z     vdW  Elec       q    Type
REMARK                         _______ _______ _______ _____ _____    ______ ____
ROOT
ATOM      1  C   UNL     1      -3.486   0.213  -0.169  0.00  0.00    +0.000 C 
ATOM      2  N   UNL     1      -4.173   1.169   0.372  0.00  0.00    +0.000 NA
ENDROOT
BRANCH   1   8
ATOM      3  C   UNL     1      -1.337  -0.911  -0.668  0.00  0.00    +0.000 A 
ATOM      4  C   UNL     1       0.055  -0.977  -0.586  0.00  0.00    +0.000 A 
ATOM      5  C   UNL     1       0.753   0.022   0.087  0.00  0.00    +0.000 A 
ATOM      6  C   UNL     1       0.087   1.088   0.682  0.00  0.00    +0.000 A 
ATOM      7  C   UNL     1      -1.305   1.160   0.603  0.00  0.00    +0.000 A 
ATOM      8  C   UNL     1      -2.015   0.159  -0.072  0.00  0.00    +0.000 A 
ATOM      9  F   UNL     1       2.088  -0.046   0.163  0.00  0.00    +0.000 F 
ENDBRANCH   1   8
BRANCH   2  10
ATOM     10  C   UNL     1      -5.562   1.096   0.202  0.00  0.00    +0.000 A 
ATOM     11  C   UNL     1      -6.352   0.408   1.125  0.00  0.00    +0.000 A 
ATOM     12  C   UNL     1      -7.740   0.347   0.964  0.00  0.00    +0.000 A 
ATOM     13  C   UNL     1      -8.349   0.983  -0.122  0.00  0.00    +0.000 A 
ATOM     14  C   UNL     1      -7.562   1.692  -1.033  0.00  0.00    +0.000 A 
ATOM     15  C   UNL     1      -6.175   1.750  -0.869  0.00  0.00    +0.000 A 
BRANCH  13  16
ATOM     16  S   UNL     1     -10.114   0.927  -0.338  0.00  0.00    +0.000 S 
ATOM     17  H   UNL     1     -10.670   0.187   0.658  0.00  0.00    +0.000 HD
ENDBRANCH  13  16
ENDBRANCH   2  10
TORSDOF 3
