MODEL 1
REMARK VINA RESULT:      -4.3      0.000      0.000
REMARK  Name = *****
REMARK  3 active torsions:
REMARK  status: ('A' for Active; 'I' for Inactive)
REMARK    1  A    between atoms: C_4  and  C_8
REMARK    2  A    between atoms: C_8  and  O_9
REMARK    3  A    between atoms: O_9  and  C_10
REMARK                            x       y       z     vdW  Elec       q    Type
REMARK                         _______ _______ _______ _____ _____    ______ ____
ROOT
ATOM      1  C   UNL     1     102.866 125.796  82.901  0.00  0.00    +0.000 C 
ENDROOT
BRANCH   1   5
ATOM      2  C   UNL     1     104.826 125.239  79.721  0.00  0.00    +0.000 C 
ATOM      3  C   UNL     1     105.664 126.140  80.631  0.00  0.00    +0.000 C 
ATOM      4  C   UNL     1     105.293 125.599  82.030  0.00  0.00    +0.000 C 
ATOM      5  C   UNL     1     103.795 125.192  81.851  0.00  0.00    +0.000 C 
ATOM      6  C   UNL     1     103.502 125.627  80.392  0.00  0.00    +0.000 C 
ATOM      7  C   UNL     1     103.619 127.129  80.273  0.00  0.00    +0.000 C 
ATOM      8  C   UNL     1     104.915 127.438  80.426  0.00  0.00    +0.000 C 
ENDBRANCH   1   5
BRANCH   1   9
ATOM      9  O   UNL     1     101.531 125.737  82.395  0.00  0.00    +0.000 OA
BRANCH   9  10
ATOM     10  C   UNL     1     100.708 126.792  82.680  0.00  0.00    +0.000 A 
ATOM     11  C   UNL     1      99.343 126.868  82.401  0.00  0.00    +0.000 A 
ATOM     12  C   UNL     1      98.618 128.013  82.749  0.00  0.00    +0.000 A 
ATOM     13  C   UNL     1      99.254 129.084  83.377  0.00  0.00    +0.000 A 
ATOM     14  C   UNL     1     100.616 129.011  83.658  0.00  0.00    +0.000 A 
ATOM     15  C   UNL     1     101.337 127.869  83.309  0.00  0.00    +0.000 A 
ENDBRANCH   9  10
ENDBRANCH   1   9
TORSDOF 3
ENDMDL
