REMARK  Name = *****
REMARK  1 active torsions:
REMARK  status: ('A' for Active; 'I' for Inactive)
REMARK    1  A    between atoms: C_10  and  C_12
REMARK                            x       y       z     vdW  Elec       q    Type
REMARK                         _______ _______ _______ _____ _____    ______ ____
ROOT
ATOM      1  C   UNL     1      -2.059  -0.850   0.367  0.00  0.00    +0.000 A 
ATOM      2  C   UNL     1      -2.234   0.469  -0.056  0.00  0.00    +0.000 A 
ATOM      3  C   UNL     1      -1.138   1.294  -0.336  0.00  0.00    +0.000 A 
ATOM      4  C   UNL     1       0.136   0.735  -0.170  0.00  0.00    +0.000 A 
ATOM      5  C   UNL     1       0.332  -0.574   0.252  0.00  0.00    +0.000 A 
ATOM      6  C   UNL     1      -0.776  -1.388   0.527  0.00  0.00    +0.000 A 
ATOM      7  N   UNL     1       1.670  -0.844   0.324  0.00  0.00    +0.000 NA
ATOM      8  N   UNL     1       2.330   0.247  -0.036  0.00  0.00    +0.000 NA
ATOM      9  N   UNL     1       1.422   1.212  -0.340  0.00  0.00    +0.000 N 
ATOM     10  C   UNL     1       1.870   2.472  -0.755  0.00  0.00    +0.000 C 
ATOM     11  O   UNL     1       1.047   3.344  -1.027  0.00  0.00    +0.000 OA
ENDROOT
BRANCH  10  12
ATOM     12  C   UNL     1       3.298   2.793  -0.881  0.00  0.00    +0.000 A 
ATOM     13  C   UNL     1       3.965   2.549  -2.085  0.00  0.00    +0.000 A 
ATOM     14  C   UNL     1       5.323   2.854  -2.201  0.00  0.00    +0.000 A 
ATOM     15  C   UNL     1       6.013   3.401  -1.118  0.00  0.00    +0.000 A 
ATOM     16  C   UNL     1       5.347   3.643   0.084  0.00  0.00    +0.000 A 
ATOM     17  C   UNL     1       3.988   3.339   0.206  0.00  0.00    +0.000 A 
ATOM     18 CL   UNL     1       3.219   3.648   1.721  0.00  0.00    +0.000 Cl
ATOM     19 CL   UNL     1       3.166   1.866  -3.455  0.00  0.00    +0.000 Cl
ENDBRANCH  10  12
TORSDOF 1
