MODEL 1
REMARK VINA RESULT:      -3.9      0.000      0.000
REMARK  Name = *****
REMARK  5 active torsions:
REMARK  status: ('A' for Active; 'I' for Inactive)
REMARK    1  A    between atoms: C_1  and  C_2
REMARK    2  A    between atoms: C_7  and  C_8
REMARK    3  A    between atoms: C_8  and  O_10
REMARK    4  A    between atoms: O_10  and  C_11
REMARK    5  A    between atoms: C_11  and  C_12
REMARK                            x       y       z     vdW  Elec       q    Type
REMARK                         _______ _______ _______ _____ _____    ______ ____
ROOT
ATOM      1  C   UNL     1      89.403  67.676  85.881  0.00  0.00    +0.000 C 
ATOM      2  O   UNL     1      90.371  67.385  86.577  0.00  0.00    +0.000 OA
ENDROOT
BRANCH   1   9
ATOM      3  C   UNL     1      87.232  67.399  87.851  0.00  0.00    +0.000 C 
ATOM      4  C   UNL     1      87.501  66.240  86.882  0.00  0.00    +0.000 C 
ATOM      5  C   UNL     1      88.129  65.079  87.616  0.00  0.00    +0.000 C 
ATOM      6  C   UNL     1      89.070  64.268  87.110  0.00  0.00    +0.000 C 
ATOM      7  C   UNL     1      89.679  64.312  85.744  0.00  0.00    +0.000 C 
ATOM      8  S   UNL     1      88.765  65.314  84.545  0.00  0.00    +0.000 S 
ATOM      9  C   UNL     1      88.253  66.709  85.620  0.00  0.00    +0.000 C 
ENDBRANCH   1   9
BRANCH   1  10
ATOM     10  O   UNL     1      89.254  68.858  85.227  0.00  0.00    +0.000 OA
BRANCH  10  11
ATOM     11  C   UNL     1      89.723  70.022  85.916  0.00  0.00    +0.000 C 
BRANCH  11  12
ATOM     12  C   UNL     1      88.639  70.520  86.835  0.00  0.00    +0.000 A 
ATOM     13  C   UNL     1      88.857  70.588  88.218  0.00  0.00    +0.000 A 
ATOM     14  C   UNL     1      87.844  71.023  89.073  0.00  0.00    +0.000 A 
ATOM     15  C   UNL     1      86.602  71.385  88.556  0.00  0.00    +0.000 A 
ATOM     16  C   UNL     1      86.371  71.308  87.184  0.00  0.00    +0.000 A 
ATOM     17  C   UNL     1      87.383  70.874  86.327  0.00  0.00    +0.000 A 
ENDBRANCH  11  12
ENDBRANCH  10  11
ENDBRANCH   1  10
TORSDOF 4
ENDMDL
