MODEL 1
REMARK VINA RESULT:      -4.6      0.000      0.000
REMARK  Name = *****
REMARK  3 active torsions:
REMARK  status: ('A' for Active; 'I' for Inactive)
REMARK    1  A    between atoms: C_4  and  C_7
REMARK    2  A    between atoms: C_8  and  C_9
REMARK    3  A    between atoms: C_9  and  C_11
REMARK                            x       y       z     vdW  Elec       q    Type
REMARK                         _______ _______ _______ _____ _____    ______ ____
ROOT
ATOM      1  C   UNL     1     101.112 126.527  83.065  0.00  0.00    +0.000 C 
ATOM      2  O   UNL     1     101.236 125.921  84.123  0.00  0.00    +0.000 OA
ENDROOT
BRANCH   1   3
ATOM      3  C   UNL     1     102.263 127.291  82.503  0.00  0.00    +0.000 A 
ATOM      4  C   UNL     1     102.818 128.318  83.279  0.00  0.00    +0.000 A 
ATOM      5  C   UNL     1     103.902 129.060  82.801  0.00  0.00    +0.000 A 
ATOM      6  C   UNL     1     104.438 128.771  81.548  0.00  0.00    +0.000 A 
ATOM      7  C   UNL     1     103.904 127.742  80.773  0.00  0.00    +0.000 A 
ATOM      8  C   UNL     1     102.820 126.998  81.250  0.00  0.00    +0.000 A 
ATOM      9 CL   UNL     1     105.771 129.682  80.956  0.00  0.00    +0.000 Cl
ENDBRANCH   1   3
BRANCH   1  11
ATOM     10  C   UNL     1      98.862 127.553  82.575  0.00  0.00    +0.000 C 
ATOM     11  C   UNL     1      99.808 126.628  82.353  0.00  0.00    +0.000 C 
BRANCH  10  15
ATOM     12  C   UNL     1      98.826 130.648  85.513  0.00  0.00    +0.000 A 
ATOM     13  C   UNL     1      99.376 130.895  84.255  0.00  0.00    +0.000 A 
ATOM     14  C   UNL     1      99.400 129.884  83.291  0.00  0.00    +0.000 A 
ATOM     15  C   UNL     1      98.882 128.619  83.581  0.00  0.00    +0.000 A 
ATOM     16  C   UNL     1      98.325 128.381  84.843  0.00  0.00    +0.000 A 
ATOM     17  C   UNL     1      98.300 129.391  85.806  0.00  0.00    +0.000 A 
ENDBRANCH  10  15
ENDBRANCH   1  11
TORSDOF 3
ENDMDL
