MODEL 1
REMARK VINA RESULT:      -4.4      0.000      0.000
REMARK  Name = *****
REMARK  5 active torsions:
REMARK  status: ('A' for Active; 'I' for Inactive)
REMARK    1  A    between atoms: C_1  and  C_2
REMARK    2  A    between atoms: C_2  and  C_3
REMARK    3  A    between atoms: C_2  and  C_4
REMARK    4  A    between atoms: C_7  and  C_9
REMARK    5  A    between atoms: C_10  and  C_11
REMARK                            x       y       z     vdW  Elec       q    Type
REMARK                         _______ _______ _______ _____ _____    ______ ____
ROOT
ATOM      1  C   UNL     1     103.244 125.158  82.661  0.00  0.00    +0.000 C 
ATOM      2  C   UNL     1     102.253 125.761  81.987  0.00  0.00    +0.000 C 
ENDROOT
BRANCH   2   3
ATOM      3  C   UNL     1     101.452 126.872  82.520  0.00  0.00    +0.000 A 
ATOM      4  C   UNL     1     100.051 126.878  82.476  0.00  0.00    +0.000 A 
ATOM      5  C   UNL     1      99.327 127.943  83.023  0.00  0.00    +0.000 A 
ATOM      6  C   UNL     1      99.999 129.002  83.627  0.00  0.00    +0.000 A 
ATOM      7  C   UNL     1     101.390 129.003  83.694  0.00  0.00    +0.000 A 
ATOM      8  C   UNL     1     102.113 127.939  83.147  0.00  0.00    +0.000 A 
ATOM      9 CL   UNL     1      99.108 130.309  84.302  0.00  0.00    +0.000 Cl
ENDBRANCH   2   3
BRANCH   1  13
ATOM     10  C   UNL     1     105.216 122.252  81.798  0.00  0.00    +0.000 C 
ATOM     11  C   UNL     1     104.858 122.879  80.461  0.00  0.00    +0.000 C 
ATOM     12  O   UNL     1     104.377 124.169  80.811  0.00  0.00    +0.000 OA
ATOM     13  C   UNL     1     104.026 124.046  82.113  0.00  0.00    +0.000 C 
ATOM     14  N   UNL     1     104.378 122.987  82.766  0.00  0.00    +0.000 NA
BRANCH  10  16
ATOM     15  C   UNL     1     104.166 120.388  83.149  0.00  0.00    +0.000 C 
ATOM     16  C   UNL     1     104.951 120.740  81.880  0.00  0.00    +0.000 C 
ATOM     17  C   UNL     1     106.254 119.937  81.852  0.00  0.00    +0.000 C 
ENDBRANCH  10  16
ENDBRANCH   1  13
TORSDOF 3
ENDMDL
