REMARK  Name = *****
REMARK  4 active torsions:
REMARK  status: ('A' for Active; 'I' for Inactive)
REMARK    1  A    between atoms: C_1  and  C_2
REMARK    2  A    between atoms: C_4  and  N_8
REMARK    3  A    between atoms: N_8  and  C_9
REMARK    4  A    between atoms: C_9  and  C_11
REMARK                            x       y       z     vdW  Elec       q    Type
REMARK                         _______ _______ _______ _____ _____    ______ ____
ROOT
ATOM      1  N   UNL     1      -1.197   2.754   0.440  0.00  0.00    +0.000 N 
ATOM      2  H   UNL     1      -2.177   2.788   0.534  0.00  0.00    +0.000 HD
ENDROOT
BRANCH   1   6
ATOM      3  C   UNL     1       2.497  -0.645   0.299  0.00  0.00    +0.000 C 
ATOM      4  C   UNL     1       1.053  -0.259   0.165  0.00  0.00    +0.000 A 
ATOM      5  C   UNL     1       0.651   1.075   0.356  0.00  0.00    +0.000 A 
ATOM      6  C   UNL     1      -0.690   1.446   0.258  0.00  0.00    +0.000 A 
ATOM      7  C   UNL     1      -1.639   0.444   0.004  0.00  0.00    +0.000 A 
ATOM      8  C   UNL     1      -1.255  -0.886  -0.175  0.00  0.00    +0.000 A 
ATOM      9  C   UNL     1       0.089  -1.237  -0.095  0.00  0.00    +0.000 A 
ENDBRANCH   1   6
BRANCH   1  10
ATOM     10  C   UNL     1      -0.587   4.001   0.511  0.00  0.00    +0.000 C 
ATOM     11  S   UNL     1       1.006   4.425   0.207  0.00  0.00    +0.000 S 
BRANCH  10  12
ATOM     12  C   UNL     1      -1.572   5.065   0.869  0.00  0.00    +0.000 A 
ATOM     13  C   UNL     1      -2.198   5.017   2.121  0.00  0.00    +0.000 A 
ATOM     14  C   UNL     1      -3.144   5.985   2.459  0.00  0.00    +0.000 A 
ATOM     15  C   UNL     1      -3.468   6.992   1.547  0.00  0.00    +0.000 A 
ATOM     16  C   UNL     1      -2.848   7.035   0.297  0.00  0.00    +0.000 A 
ATOM     17  C   UNL     1      -1.900   6.071  -0.047  0.00  0.00    +0.000 A 
ENDBRANCH  10  12
ENDBRANCH   1  10
TORSDOF 3
