MODEL 1
REMARK VINA RESULT:      -4.3      0.000      0.000
REMARK  Name = *****
REMARK  5 active torsions:
REMARK  status: ('A' for Active; 'I' for Inactive)
REMARK    1  A    between atoms: C_1  and  O_2
REMARK    2  A    between atoms: O_2  and  C_3
REMARK    3  A    between atoms: C_5  and  S_9
REMARK    4  A    between atoms: S_9  and  C_10
REMARK    5  A    between atoms: C_10  and  C_11
REMARK                            x       y       z     vdW  Elec       q    Type
REMARK                         _______ _______ _______ _____ _____    ______ ____
ROOT
ATOM      1  C   UNL     1     104.139 123.373  82.938  0.00  0.00    +0.000 A 
ATOM      2  C   UNL     1     103.708 124.686  82.738  0.00  0.00    +0.000 A 
ATOM      3  C   UNL     1     103.851 125.293  81.482  0.00  0.00    +0.000 A 
ATOM      4  C   UNL     1     104.407 124.571  80.421  0.00  0.00    +0.000 A 
ATOM      5  C   UNL     1     104.839 123.261  80.618  0.00  0.00    +0.000 A 
ATOM      6  C   UNL     1     104.709 122.669  81.874  0.00  0.00    +0.000 A 
ENDROOT
BRANCH   1   8
ATOM      7  C   UNL     1     104.411 121.294  84.062  0.00  0.00    +0.000 C 
ATOM      8  O   UNL     1     104.063 122.672  84.110  0.00  0.00    +0.000 OA
ENDBRANCH   1   8
BRANCH   3   9
ATOM      9  S   UNL     1     103.304 126.968  81.199  0.00  0.00    +0.000 S 
BRANCH   9  10
ATOM     10  C   UNL     1     102.740 127.385  82.882  0.00  0.00    +0.000 C 
BRANCH  10  11
ATOM     11  C   UNL     1     101.249 127.607  82.926  0.00  0.00    +0.000 A 
ATOM     12  C   UNL     1     100.717 128.765  83.512  0.00  0.00    +0.000 A 
ATOM     13  C   UNL     1      99.336 128.965  83.560  0.00  0.00    +0.000 A 
ATOM     14  C   UNL     1      98.474 128.008  83.028  0.00  0.00    +0.000 A 
ATOM     15  C   UNL     1      98.989 126.849  82.451  0.00  0.00    +0.000 A 
ATOM     16  C   UNL     1     100.370 126.647  82.403  0.00  0.00    +0.000 A 
ENDBRANCH  10  11
ENDBRANCH   9  10
ENDBRANCH   3   9
TORSDOF 4
ENDMDL
