REMARK  Name = *****
REMARK  4 active torsions:
REMARK  status: ('A' for Active; 'I' for Inactive)
REMARK    1  A    between atoms: C_1  and  O_2
REMARK    2  A    between atoms: O_2  and  C_3
REMARK    3  A    between atoms: C_8  and  C_9
REMARK    4  A    between atoms: C_10  and  C_11
REMARK                            x       y       z     vdW  Elec       q    Type
REMARK                         _______ _______ _______ _____ _____    ______ ____
ROOT
ATOM      1  C   UNL     1       4.551  -0.821   1.723  0.00  0.00    +0.000 C 
ATOM      2  C   UNL     1       4.899  -0.143   2.652  0.00  0.00    +0.000 C 
ENDROOT
BRANCH   2   3
ATOM      3  C   UNL     1       5.311   0.671   3.757  0.00  0.00    +0.000 A 
ATOM      4  C   UNL     1       4.796   1.970   3.855  0.00  0.00    +0.000 A 
ATOM      5  C   UNL     1       5.169   2.800   4.915  0.00  0.00    +0.000 A 
ATOM      6  C   UNL     1       6.058   2.338   5.883  0.00  0.00    +0.000 A 
ATOM      7  C   UNL     1       6.575   1.044   5.793  0.00  0.00    +0.000 A 
ATOM      8  C   UNL     1       6.204   0.211   4.733  0.00  0.00    +0.000 A 
ATOM      9 CL   UNL     1       6.884  -1.379   4.680  0.00  0.00    +0.000 Cl
ENDBRANCH   2   3
BRANCH   1  15
ATOM     10  C   UNL     1       3.040  -1.290  -0.183  0.00  0.00    +0.000 A 
ATOM     11  C   UNL     1       2.687  -2.125  -1.250  0.00  0.00    +0.000 A 
ATOM     12  C   UNL     1       3.419  -3.288  -1.514  0.00  0.00    +0.000 A 
ATOM     13  C   UNL     1       4.508  -3.628  -0.716  0.00  0.00    +0.000 A 
ATOM     14  C   UNL     1       4.870  -2.804   0.348  0.00  0.00    +0.000 A 
ATOM     15  C   UNL     1       4.142  -1.638   0.618  0.00  0.00    +0.000 A 
BRANCH  10  17
ATOM     16  C   UNL     1       1.239   0.217  -0.619  0.00  0.00    +0.000 C 
ATOM     17  O   UNL     1       2.383  -0.131   0.148  0.00  0.00    +0.000 OA
ENDBRANCH  10  17
ENDBRANCH   1  15
TORSDOF 3
