MODEL 1
REMARK VINA RESULT:      -4.6      0.000      0.000
REMARK  Name = *****
REMARK  4 active torsions:
REMARK  status: ('A' for Active; 'I' for Inactive)
REMARK    1  A    between atoms: C_4  and  C_7
REMARK    2  A    between atoms: C_7  and  O_9
REMARK    3  A    between atoms: O_9  and  C_10
REMARK    4  A    between atoms: C_10  and  C_11
REMARK                            x       y       z     vdW  Elec       q    Type
REMARK                         _______ _______ _______ _____ _____    ______ ____
ROOT
ATOM      1  O   UNL     1     103.492 125.161  80.093  0.00  0.00    +0.000 OA
ENDROOT
BRANCH   1   2
ATOM      2  C   UNL     1     104.667 124.488  80.073  0.00  0.00    +0.000 C 
ATOM      3  O   UNL     1     105.636 124.747  79.378  0.00  0.00    +0.000 OA
BRANCH   2   7
ATOM      4  C   UNL     1     104.532 121.256  82.889  0.00  0.00    +0.000 A 
ATOM      5  C   UNL     1     104.689 120.970  81.533  0.00  0.00    +0.000 A 
ATOM      6  C   UNL     1     104.734 122.008  80.599  0.00  0.00    +0.000 A 
ATOM      7  C   UNL     1     104.623 123.341  81.021  0.00  0.00    +0.000 A 
ATOM      8  C   UNL     1     104.465 123.618  82.387  0.00  0.00    +0.000 A 
ATOM      9  C   UNL     1     104.420 122.577  83.317  0.00  0.00    +0.000 A 
ENDBRANCH   2   7
ENDBRANCH   1   2
BRANCH   1  10
ATOM     10  C   UNL     1     103.574 126.570  80.362  0.00  0.00    +0.000 C 
BRANCH  10  11
ATOM     11  C   UNL     1     102.800 126.981  81.597  0.00  0.00    +0.000 A 
ATOM     12  C   UNL     1     101.701 126.234  82.058  0.00  0.00    +0.000 A 
ATOM     13  C   UNL     1     100.994 126.621  83.201  0.00  0.00    +0.000 A 
ATOM     14  C   UNL     1     101.375 127.758  83.906  0.00  0.00    +0.000 A 
ATOM     15  C   UNL     1     102.465 128.509  83.471  0.00  0.00    +0.000 A 
ATOM     16  C   UNL     1     103.173 128.123  82.328  0.00  0.00    +0.000 A 
ATOM     17 CL   UNL     1     104.524 129.098  81.862  0.00  0.00    +0.000 Cl
ENDBRANCH  10  11
ENDBRANCH   1  10
TORSDOF 4
ENDMDL
