MODEL 1
REMARK VINA RESULT:      -4.6      0.000      0.000
REMARK  Name = *****
REMARK  5 active torsions:
REMARK  status: ('A' for Active; 'I' for Inactive)
REMARK    1  A    between atoms: C_1  and  C_2
REMARK    2  A    between atoms: C_4  and  S_8
REMARK    3  A    between atoms: S_8  and  O_9
REMARK    4  A    between atoms: O_9  and  C_10
REMARK    5  A    between atoms: C_15  and  C_16
REMARK                            x       y       z     vdW  Elec       q    Type
REMARK                         _______ _______ _______ _____ _____    ______ ____
ROOT
ATOM      1  S   UNL     1      89.577  69.068  85.656  0.00  0.00    +0.000 S 
ENDROOT
BRANCH   1   5
ATOM      2  C   UNL     1      85.198  71.983  86.560  0.00  0.00    +0.000 C 
ATOM      3  C   UNL     1      86.431  71.306  87.083  0.00  0.00    +0.000 A 
ATOM      4  C   UNL     1      87.285  70.603  86.221  0.00  0.00    +0.000 A 
ATOM      5  C   UNL     1      88.449  69.988  86.701  0.00  0.00    +0.000 A 
ATOM      6  C   UNL     1      88.747  70.080  88.066  0.00  0.00    +0.000 A 
ATOM      7  C   UNL     1      87.904  70.778  88.932  0.00  0.00    +0.000 A 
ATOM      8  C   UNL     1      86.752  71.391  88.442  0.00  0.00    +0.000 A 
ENDBRANCH   1   5
BRANCH   1   9
ATOM      9  O   UNL     1      90.157  67.952  86.746  0.00  0.00    +0.000 OA
BRANCH   9  10
ATOM     10  C   UNL     1      90.147  66.635  86.343  0.00  0.00    +0.000 A 
ATOM     11  C   UNL     1      91.132  66.112  85.499  0.00  0.00    +0.000 A 
ATOM     12  C   UNL     1      91.048  64.788  85.066  0.00  0.00    +0.000 A 
ATOM     13  C   UNL     1      89.975  63.993  85.461  0.00  0.00    +0.000 A 
ATOM     14  C   UNL     1      88.979  64.519  86.284  0.00  0.00    +0.000 A 
ATOM     15  C   UNL     1      89.049  65.849  86.726  0.00  0.00    +0.000 A 
ATOM     16  C   UNL     1      87.969  66.408  87.608  0.00  0.00    +0.000 C 
ENDBRANCH   9  10
ENDBRANCH   1   9
TORSDOF 3
ENDMDL
