MODEL 1
REMARK VINA RESULT:      -4.7      0.000      0.000
REMARK  Name = *****
REMARK  4 active torsions:
REMARK  status: ('A' for Active; 'I' for Inactive)
REMARK    1  A    between atoms: C_1  and  S_2
REMARK    2  A    between atoms: S_2  and  C_4
REMARK    3  A    between atoms: C_8  and  C_10
REMARK    4  A    between atoms: C_11  and  C_12
REMARK                            x       y       z     vdW  Elec       q    Type
REMARK                         _______ _______ _______ _____ _____    ______ ____
ROOT
ATOM      1  C   UNL     1     100.410 129.069  83.832  0.00  0.00    +0.000 A 
ATOM      2  C   UNL     1      99.068 128.708  83.672  0.00  0.00    +0.000 A 
ATOM      3  C   UNL     1      98.729 127.568  82.942  0.00  0.00    +0.000 A 
ATOM      4  C   UNL     1      99.731 126.780  82.377  0.00  0.00    +0.000 A 
ATOM      5  C   UNL     1     101.074 127.128  82.541  0.00  0.00    +0.000 A 
ATOM      6  C   UNL     1     101.415 128.274  83.267  0.00  0.00    +0.000 A 
ENDROOT
BRANCH   1   8
ATOM      7  C   UNL     1     100.985 129.735  86.392  0.00  0.00    +0.000 C 
ATOM      8  S   UNL     1     100.867 130.542  84.774  0.00  0.00    +0.000 S 
ATOM      9  O   UNL     1     102.266 130.883  84.349  0.00  0.00    +0.000 OA
ENDBRANCH   1   8
BRANCH   5  10
ATOM     10  C   UNL     1     102.098 126.306  81.975  0.00  0.00    +0.000 C 
ATOM     11  C   UNL     1     102.962 125.632  81.485  0.00  0.00    +0.000 C 
BRANCH  11  12
ATOM     12  C   UNL     1     103.999 124.848  80.887  0.00  0.00    +0.000 A 
ATOM     13  C   UNL     1     104.306 123.587  81.404  0.00  0.00    +0.000 A 
ATOM     14  C   UNL     1     105.322 122.822  80.828  0.00  0.00    +0.000 A 
ATOM     15  C   UNL     1     106.030 123.316  79.734  0.00  0.00    +0.000 A 
ATOM     16  C   UNL     1     105.725 124.575  79.215  0.00  0.00    +0.000 A 
ATOM     17  C   UNL     1     104.710 125.341  79.791  0.00  0.00    +0.000 A 
ENDBRANCH  11  12
ENDBRANCH   5  10
TORSDOF 3
ENDMDL
