MODEL 1
REMARK VINA RESULT:      -4.8      0.000      0.000
REMARK  Name = *****
REMARK  2 active torsions:
REMARK  status: ('A' for Active; 'I' for Inactive)
REMARK    1  A    between atoms: C_6  and  C_7
REMARK    2  A    between atoms: C_8  and  C_9
REMARK                            x       y       z     vdW  Elec       q    Type
REMARK                         _______ _______ _______ _____ _____    ______ ____
ROOT
ATOM      1  C   UNL     1     103.041 125.937  82.266  0.00  0.00    +0.000 C 
ATOM      2  C   UNL     1     101.700 125.957  82.346  0.00  0.00    +0.000 C 
ENDROOT
BRANCH   1   8
ATOM      3  C   UNL     1     104.215 124.549  80.528  0.00  0.00    +0.000 A 
ATOM      4  C   UNL     1     104.929 123.401  80.176  0.00  0.00    +0.000 A 
ATOM      5  C   UNL     1     105.235 122.457  81.148  0.00  0.00    +0.000 A 
ATOM      6  C   UNL     1     104.837 122.636  82.466  0.00  0.00    +0.000 A 
ATOM      7  C   UNL     1     104.122 123.784  82.821  0.00  0.00    +0.000 A 
ATOM      8  C   UNL     1     103.818 124.758  81.859  0.00  0.00    +0.000 A 
ATOM      9  F   UNL     1     105.918 121.356  80.808  0.00  0.00    +0.000 F 
ENDBRANCH   1   8
BRANCH   2  10
ATOM     10  C   UNL     1     100.921 127.137  82.749  0.00  0.00    +0.000 A 
ATOM     11  C   UNL     1      99.531 127.211  82.573  0.00  0.00    +0.000 A 
ATOM     12  C   UNL     1      98.822 128.337  82.999  0.00  0.00    +0.000 A 
ATOM     13  C   UNL     1      99.500 129.384  83.610  0.00  0.00    +0.000 A 
ATOM     14  C   UNL     1     100.874 129.324  83.810  0.00  0.00    +0.000 A 
ATOM     15  C   UNL     1     101.582 128.198  83.384  0.00  0.00    +0.000 A 
ATOM     16  F   UNL     1      98.819 130.462  84.021  0.00  0.00    +0.000 F 
ENDBRANCH   2  10
TORSDOF 2
ENDMDL
