MODEL 1
REMARK VINA RESULT:      -4.9      0.000      0.000
REMARK  Name = *****
REMARK  4 active torsions:
REMARK  status: ('A' for Active; 'I' for Inactive)
REMARK    1  A    between atoms: C_1  and  C_2
REMARK    2  A    between atoms: C_2  and  C_4
REMARK    3  A    between atoms: C_9  and  C_10
REMARK    4  A    between atoms: C_11  and  C_12
REMARK                            x       y       z     vdW  Elec       q    Type
REMARK                         _______ _______ _______ _____ _____    ______ ____
ROOT
ATOM      1  C   UNL     1      84.820  57.537  90.869  0.00  0.00    +0.000 A 
ATOM      2  C   UNL     1      83.939  56.442  90.816  0.00  0.00    +0.000 A 
ATOM      3  C   UNL     1      82.562  56.649  90.786  0.00  0.00    +0.000 A 
ATOM      4  C   UNL     1      82.057  57.944  90.805  0.00  0.00    +0.000 A 
ATOM      5  C   UNL     1      82.929  59.036  90.863  0.00  0.00    +0.000 A 
ATOM      6  C   UNL     1      84.324  58.854  90.915  0.00  0.00    +0.000 A 
ENDROOT
BRANCH   1   8
ATOM      7  C   UNL     1      86.851  56.671  92.172  0.00  0.00    +0.000 C 
ATOM      8  C   UNL     1      86.279  57.246  90.901  0.00  0.00    +0.000 C 
ATOM      9  O   UNL     1      86.989  57.493  89.931  0.00  0.00    +0.000 OA
ENDBRANCH   1   8
BRANCH   6  10
ATOM     10  C   UNL     1      85.208  60.035  90.919  0.00  0.00    +0.000 C 
ATOM     11  C   UNL     1      85.286  60.916  89.906  0.00  0.00    +0.000 C 
BRANCH  11  12
ATOM     12  C   UNL     1      86.153  62.104  89.913  0.00  0.00    +0.000 A 
ATOM     13  C   UNL     1      86.193  62.995  90.994  0.00  0.00    +0.000 A 
ATOM     14  C   UNL     1      87.057  64.093  90.978  0.00  0.00    +0.000 A 
ATOM     15  C   UNL     1      87.898  64.306  89.888  0.00  0.00    +0.000 A 
ATOM     16  C   UNL     1      87.879  63.419  88.815  0.00  0.00    +0.000 A 
ATOM     17  C   UNL     1      87.014  62.321  88.830  0.00  0.00    +0.000 A 
ENDBRANCH  11  12
ENDBRANCH   6  10
TORSDOF 3
ENDMDL
