MODEL 1
REMARK VINA RESULT:      -5.2      0.000      0.000
REMARK  Name = *****
REMARK  4 active torsions:
REMARK  status: ('A' for Active; 'I' for Inactive)
REMARK    1  A    between atoms: C_4  and  C_7
REMARK    2  A    between atoms: C_7  and  C_9
REMARK    3  A    between atoms: C_9  and  C_10
REMARK    4  A    between atoms: C_12  and  C_16
REMARK                            x       y       z     vdW  Elec       q    Type
REMARK                         _______ _______ _______ _____ _____    ______ ____
ROOT
ATOM      1  C   UNL     1      89.086  68.258  86.707  0.00  0.00    +0.000 A 
ATOM      2  C   UNL     1      90.052  67.480  86.048  0.00  0.00    +0.000 A 
ATOM      3  C   UNL     1      89.965  66.078  86.032  0.00  0.00    +0.000 A 
ATOM      4  C   UNL     1      88.906  65.455  86.707  0.00  0.00    +0.000 A 
ATOM      5  C   UNL     1      87.954  66.217  87.381  0.00  0.00    +0.000 A 
ATOM      6  C   UNL     1      88.047  67.609  87.387  0.00  0.00    +0.000 A 
ENDROOT
BRANCH   3   7
ATOM      7  C   UNL     1      91.012  65.245  85.333  0.00  0.00    +0.000 C 
ATOM      8  F   UNL     1      90.833  65.176  83.984  0.00  0.00    +0.000 F 
ATOM      9  F   UNL     1      92.271  65.729  85.519  0.00  0.00    +0.000 F 
ATOM     10  F   UNL     1      91.038  63.955  85.769  0.00  0.00    +0.000 F 
ENDBRANCH   3   7
BRANCH   1  11
ATOM     11  C   UNL     1      89.215  69.764  86.730  0.00  0.00    +0.000 C 
BRANCH  11  12
ATOM     12  C   UNL     1      88.367  70.449  87.786  0.00  0.00    +0.000 C 
ATOM     13  O   UNL     1      88.735  70.489  88.961  0.00  0.00    +0.000 OA
BRANCH  12  17
ATOM     14  C   UNL     1      84.668  72.272  86.569  0.00  0.00    +0.000 A 
ATOM     15  C   UNL     1      85.604  71.858  85.624  0.00  0.00    +0.000 A 
ATOM     16  C   UNL     1      86.799  71.271  86.040  0.00  0.00    +0.000 A 
ATOM     17  C   UNL     1      87.069  71.088  87.405  0.00  0.00    +0.000 A 
ATOM     18  C   UNL     1      86.124  71.510  88.347  0.00  0.00    +0.000 A 
ATOM     19  C   UNL     1      84.927  72.100  87.927  0.00  0.00    +0.000 A 
ENDBRANCH  12  17
ENDBRANCH  11  12
ENDBRANCH   1  11
TORSDOF 4
ENDMDL
