MODEL 1
REMARK VINA RESULT:      -4.8      0.000      0.000
REMARK  Name = *****
REMARK  4 active torsions:
REMARK  status: ('A' for Active; 'I' for Inactive)
REMARK    1  A    between atoms: C_1  and  C_2
REMARK    2  A    between atoms: C_5  and  C_8
REMARK    3  A    between atoms: C_8  and  C_9
REMARK    4  A    between atoms: C_9  and  C_10
REMARK                            x       y       z     vdW  Elec       q    Type
REMARK                         _______ _______ _______ _____ _____    ______ ____
ROOT
ATOM      1  C   UNL     1      88.925  70.090  86.719  0.00  0.00    +0.000 C 
ENDROOT
BRANCH   1   6
ATOM      2  C   UNL     1      88.944  64.266  86.974  0.00  0.00    +0.000 C 
ATOM      3  C   UNL     1      88.927  65.763  86.889  0.00  0.00    +0.000 A 
ATOM      4  C   UNL     1      89.984  66.451  86.282  0.00  0.00    +0.000 A 
ATOM      5  C   UNL     1      89.985  67.847  86.231  0.00  0.00    +0.000 A 
ATOM      6  C   UNL     1      88.936  68.579  86.799  0.00  0.00    +0.000 A 
ATOM      7  C   UNL     1      87.885  67.890  87.418  0.00  0.00    +0.000 A 
ATOM      8  C   UNL     1      87.885  66.495  87.467  0.00  0.00    +0.000 A 
ENDBRANCH   1   6
BRANCH   1   9
ATOM      9  C   UNL     1      87.876  70.627  85.731  0.00  0.00    +0.000 C 
ATOM     10 CL   UNL     1      88.646  71.819  84.623  0.00  0.00    +0.000 Cl
BRANCH   9  11
ATOM     11  C   UNL     1      86.670  71.263  86.398  0.00  0.00    +0.000 A 
ATOM     12  C   UNL     1      86.530  71.300  87.796  0.00  0.00    +0.000 A 
ATOM     13  C   UNL     1      85.399  71.868  88.385  0.00  0.00    +0.000 A 
ATOM     14  C   UNL     1      84.390  72.401  87.587  0.00  0.00    +0.000 A 
ATOM     15  C   UNL     1      84.510  72.368  86.200  0.00  0.00    +0.000 A 
ATOM     16  C   UNL     1      85.641  71.802  85.609  0.00  0.00    +0.000 A 
ENDBRANCH   9  11
ENDBRANCH   1   9
TORSDOF 3
ENDMDL
