REMARK  Name = *****
REMARK  5 active torsions:
REMARK  status: ('A' for Active; 'I' for Inactive)
REMARK    1  A    between atoms: C_1  and  S_2
REMARK    2  A    between atoms: S_2  and  C_3
REMARK    3  A    between atoms: C_3  and  C_4
REMARK    4  A    between atoms: C_9  and  C_10
REMARK    5  A    between atoms: C_11  and  C_12
REMARK                            x       y       z     vdW  Elec       q    Type
REMARK                         _______ _______ _______ _____ _____    ______ ____
ROOT
ATOM      1  C   UNL     1       4.949  -1.220   1.200  0.00  0.00    +0.000 A 
ATOM      2  C   UNL     1       5.661  -0.006   1.242  0.00  0.00    +0.000 A 
ATOM      3  C   UNL     1       7.056   0.011   1.288  0.00  0.00    +0.000 A 
ATOM      4  C   UNL     1       7.764  -1.186   1.295  0.00  0.00    +0.000 A 
ATOM      5  C   UNL     1       7.078  -2.399   1.255  0.00  0.00    +0.000 A 
ATOM      6  C   UNL     1       5.677  -2.425   1.208  0.00  0.00    +0.000 A 
ENDROOT
BRANCH   6   7
ATOM      7  C   UNL     1       5.030  -3.703   1.162  0.00  0.00    +0.000 C 
ATOM      8  C   UNL     1       4.484  -4.772   1.116  0.00  0.00    +0.000 C 
BRANCH   8   9
ATOM      9  C   UNL     1       3.822  -6.038   1.056  0.00  0.00    +0.000 A 
ATOM     10  C   UNL     1       4.565  -7.220   1.103  0.00  0.00    +0.000 A 
ATOM     11  C   UNL     1       3.917  -8.455   1.043  0.00  0.00    +0.000 A 
ATOM     12  C   UNL     1       2.527  -8.509   0.937  0.00  0.00    +0.000 A 
ATOM     13  C   UNL     1       1.784  -7.330   0.890  0.00  0.00    +0.000 A 
ATOM     14  C   UNL     1       2.430  -6.094   0.950  0.00  0.00    +0.000 A 
ENDBRANCH   8   9
ENDBRANCH   6   7
BRANCH   1  15
ATOM     15  C   UNL     1       3.439  -1.178   1.156  0.00  0.00    +0.000 C 
BRANCH  15  17
ATOM     16  C   UNL     1       3.240  -1.975  -1.493  0.00  0.00    +0.000 C 
ATOM     17  S   UNL     1       2.772  -0.585  -0.433  0.00  0.00    +0.000 S 
ENDBRANCH  15  17
ENDBRANCH   1  15
TORSDOF 4
