MODEL 1
REMARK VINA RESULT:      -3.4      0.000      0.000
REMARK  Name = *****
REMARK  4 active torsions:
REMARK  status: ('A' for Active; 'I' for Inactive)
REMARK    1  A    between atoms: C_1  and  C_2
REMARK    2  A    between atoms: C_3  and  S_7
REMARK    3  A    between atoms: S_7  and  S_8
REMARK    4  A    between atoms: S_8  and  C_9
REMARK                            x       y       z     vdW  Elec       q    Type
REMARK                         _______ _______ _______ _____ _____    ______ ____
ROOT
ATOM      1  S   UNL     1     102.267 125.940  82.434  0.00  0.00    +0.000 S 
ENDROOT
BRANCH   1   4
ATOM      2  C   UNL     1     102.247 128.897  83.905  0.00  0.00    +0.000 C 
ATOM      3  C   UNL     1     101.020 128.235  83.371  0.00  0.00    +0.000 A 
ATOM      4  C   UNL     1     100.891 127.009  82.739  0.00  0.00    +0.000 A 
ATOM      5  C   UNL     1      99.538 126.740  82.375  0.00  0.00    +0.000 A 
ATOM      6  C   UNL     1      98.686 127.759  82.739  0.00  0.00    +0.000 A 
ATOM      7  S   UNL     1      99.508 129.034  83.517  0.00  0.00    +0.000 S 
ENDBRANCH   1   4
BRANCH   1   8
ATOM      8  S   UNL     1     103.366 126.761  80.902  0.00  0.00    +0.000 S 
BRANCH   8   9
ATOM      9  C   UNL     1     104.365 125.375  80.486  0.00  0.00    +0.000 A 
ATOM     10  C   UNL     1     104.136 124.064  80.854  0.00  0.00    +0.000 A 
ATOM     11  C   UNL     1     105.158 123.184  80.388  0.00  0.00    +0.000 A 
ATOM     12  C   UNL     1     106.134 123.855  79.687  0.00  0.00    +0.000 A 
ATOM     13  S   UNL     1     105.823 125.536  79.606  0.00  0.00    +0.000 S 
ENDBRANCH   8   9
ENDBRANCH   1   8
TORSDOF 3
ENDMDL
