MODEL 1
REMARK VINA RESULT:      -4.9      0.000      0.000
REMARK  Name = *****
REMARK  4 active torsions:
REMARK  status: ('A' for Active; 'I' for Inactive)
REMARK    1  A    between atoms: C_1  and  C_2
REMARK    2  A    between atoms: C_5  and  C_8
REMARK    3  A    between atoms: C_9  and  C_10
REMARK    4  A    between atoms: C_14  and  C_16
REMARK                            x       y       z     vdW  Elec       q    Type
REMARK                         _______ _______ _______ _____ _____    ______ ____
ROOT
ATOM      1  C   UNL     1     102.830 125.388  82.098  0.00  0.00    +0.000 C 
ATOM      2  C   UNL     1     101.960 126.170  82.374  0.00  0.00    +0.000 C 
ENDROOT
BRANCH   1   7
ATOM      3  C   UNL     1     106.999 121.668  80.798  0.00  0.00    +0.000 C 
ATOM      4  C   UNL     1     105.889 122.621  81.131  0.00  0.00    +0.000 A 
ATOM      5  C   UNL     1     105.361 123.467  80.148  0.00  0.00    +0.000 A 
ATOM      6  C   UNL     1     104.349 124.377  80.466  0.00  0.00    +0.000 A 
ATOM      7  C   UNL     1     103.865 124.456  81.772  0.00  0.00    +0.000 A 
ATOM      8  C   UNL     1     104.397 123.627  82.761  0.00  0.00    +0.000 A 
ATOM      9  C   UNL     1     105.408 122.717  82.442  0.00  0.00    +0.000 A 
ENDBRANCH   1   7
BRANCH   2  10
ATOM     10  C   UNL     1     100.926 127.103  82.701  0.00  0.00    +0.000 A 
ATOM     11  C   UNL     1      99.599 126.818  82.373  0.00  0.00    +0.000 A 
ATOM     12  C   UNL     1      98.590 127.723  82.701  0.00  0.00    +0.000 A 
ATOM     13  C   UNL     1      98.906 128.916  83.354  0.00  0.00    +0.000 A 
ATOM     14  C   UNL     1     100.235 129.220  83.674  0.00  0.00    +0.000 A 
ATOM     15  C   UNL     1     101.241 128.297  83.354  0.00  0.00    +0.000 A 
ATOM     16  C   UNL     1     100.573 130.484  84.408  0.00  0.00    +0.000 C 
ENDBRANCH   2  10
TORSDOF 2
ENDMDL
