MODEL 1
REMARK VINA RESULT:      -3.8      0.000      0.000
REMARK  Name = *****
REMARK  5 active torsions:
REMARK  status: ('A' for Active; 'I' for Inactive)
REMARK    1  A    between atoms: C_1  and  C_2
REMARK    2  A    between atoms: N_7  and  O_8
REMARK    3  A    between atoms: O_8  and  C_9
REMARK    4  A    between atoms: C_9  and  C_10
REMARK    5  A    between atoms: C_9  and  C_11
REMARK                            x       y       z     vdW  Elec       q    Type
REMARK                         _______ _______ _______ _____ _____    ______ ____
ROOT
ATOM      1  O   UNL     1     103.210 126.148  83.348  0.00  0.00    +0.000 OA
ENDROOT
BRANCH   1   8
ATOM      2  C   UNL     1     103.173 127.295  80.736  0.00  0.00    +0.000 C 
ATOM      3  C   UNL     1     103.639 125.907  81.010  0.00  0.00    +0.000 A 
ATOM      4  C   UNL     1     104.240 125.109  80.115  0.00  0.00    +0.000 A 
ATOM      5  S   UNL     1     104.724 123.593  80.813  0.00  0.00    +0.000 S 
ATOM      6  C   UNL     1     104.160 124.104  82.422  0.00  0.00    +0.000 A 
ATOM      7  S   UNL     1     104.418 123.227  83.813  0.00  0.00    +0.000 S 
ATOM      8  N   UNL     1     103.512 125.314  82.251  0.00  0.00    +0.000 N 
ENDBRANCH   1   8
BRANCH   1   9
ATOM      9  C   UNL     1     101.898 125.849  83.865  0.00  0.00    +0.000 C 
ATOM     10  C   UNL     1     102.019 125.617  85.372  0.00  0.00    +0.000 C 
BRANCH   9  11
ATOM     11  C   UNL     1     100.950 127.001  83.587  0.00  0.00    +0.000 A 
ATOM     12  C   UNL     1      99.783 126.789  82.838  0.00  0.00    +0.000 A 
ATOM     13  C   UNL     1      98.900 127.841  82.586  0.00  0.00    +0.000 A 
ATOM     14  C   UNL     1      99.172 129.116  83.079  0.00  0.00    +0.000 A 
ATOM     15  C   UNL     1     100.326 129.341  83.825  0.00  0.00    +0.000 A 
ATOM     16  C   UNL     1     101.209 128.291  84.079  0.00  0.00    +0.000 A 
ENDBRANCH   9  11
ENDBRANCH   1   9
TORSDOF 3
ENDMDL
