REMARK  Name = *****
REMARK  4 active torsions:
REMARK  status: ('A' for Active; 'I' for Inactive)
REMARK    1  A    between atoms: C_1  and  C_2
REMARK    2  A    between atoms: C_5  and  S_8
REMARK    3  A    between atoms: S_8  and  C_10
REMARK    4  A    between atoms: C_10  and  C_11
REMARK                            x       y       z     vdW  Elec       q    Type
REMARK                         _______ _______ _______ _____ _____    ______ ____
ROOT
ATOM      1  S   UNL     1      -3.601   0.040  -0.242  0.00  0.00    +0.000 S 
ATOM      2  O   UNL     1      -4.327  -0.480   0.967  0.00  0.00    +0.000 OA
ENDROOT
BRANCH   1   7
ATOM      3  C   UNL     1       2.313   0.404   1.273  0.00  0.00    +0.000 C 
ATOM      4  C   UNL     1       0.859   0.344   0.909  0.00  0.00    +0.000 A 
ATOM      5  C   UNL     1      -0.115   0.183   1.901  0.00  0.00    +0.000 A 
ATOM      6  C   UNL     1      -1.466   0.091   1.558  0.00  0.00    +0.000 A 
ATOM      7  C   UNL     1      -1.862   0.161   0.219  0.00  0.00    +0.000 A 
ATOM      8  C   UNL     1      -0.887   0.287  -0.777  0.00  0.00    +0.000 A 
ATOM      9  C   UNL     1       0.464   0.379  -0.433  0.00  0.00    +0.000 A 
ENDBRANCH   1   7
BRANCH   1  10
ATOM     10  C   UNL     1      -4.011   1.816  -0.445  0.00  0.00    +0.000 C 
ATOM     11 CL   UNL     1      -3.391   2.476  -1.989  0.00  0.00    +0.000 Cl
BRANCH  10  12
ATOM     12  C   UNL     1      -3.697   2.696   0.754  0.00  0.00    +0.000 A 
ATOM     13  C   UNL     1      -2.499   3.426   0.876  0.00  0.00    +0.000 A 
ATOM     14  C   UNL     1      -2.248   4.204   2.010  0.00  0.00    +0.000 A 
ATOM     15  C   UNL     1      -3.186   4.254   3.032  0.00  0.00    +0.000 A 
ATOM     16  C   UNL     1      -4.371   3.536   2.945  0.00  0.00    +0.000 A 
ATOM     17  C   UNL     1      -4.623   2.758   1.814  0.00  0.00    +0.000 A 
ATOM     18  F   UNL     1      -2.941   4.998   4.118  0.00  0.00    +0.000 F 
ENDBRANCH  10  12
ENDBRANCH   1  10
TORSDOF 3
