MODEL 1
REMARK VINA RESULT:      -4.8      0.000      0.000
REMARK  Name = *****
REMARK  3 active torsions:
REMARK  status: ('A' for Active; 'I' for Inactive)
REMARK    1  A    between atoms: C_4  and  N_7
REMARK    2  A    between atoms: C_8  and  C_10
REMARK    3  A    between atoms: C_15  and  O_16
REMARK                            x       y       z     vdW  Elec       q    Type
REMARK                         _______ _______ _______ _____ _____    ______ ____
ROOT
ATOM      1  N   UNL     1     101.639 126.372  81.833  0.00  0.00    +0.000 N 
ATOM      2  C   UNL     1     102.613 125.569  82.397  0.00  0.00    +0.000 C 
ATOM      3  O   UNL     1     102.735 125.311  83.590  0.00  0.00    +0.000 OA
ATOM      4  H   UNL     1     101.700 126.510  80.860  0.00  0.00    +0.000 HD
ENDROOT
BRANCH   1   8
ATOM      5  C   UNL     1      98.547 128.415  83.847  0.00  0.00    +0.000 A 
ATOM      6  C   UNL     1      98.223 127.338  83.026  0.00  0.00    +0.000 A 
ATOM      7  C   UNL     1      99.227 126.641  82.346  0.00  0.00    +0.000 A 
ATOM      8  C   UNL     1     100.565 127.016  82.483  0.00  0.00    +0.000 A 
ATOM      9  C   UNL     1     100.881 128.102  83.311  0.00  0.00    +0.000 A 
ATOM     10  C   UNL     1      99.877 128.797  83.990  0.00  0.00    +0.000 A 
ENDBRANCH   1   8
BRANCH   2  11
ATOM     11  C   UNL     1     103.627 125.006  81.450  0.00  0.00    +0.000 A 
ATOM     12  C   UNL     1     104.141 123.732  81.744  0.00  0.00    +0.000 A 
ATOM     13  C   UNL     1     105.104 123.142  80.922  0.00  0.00    +0.000 A 
ATOM     14  C   UNL     1     105.567 123.816  79.794  0.00  0.00    +0.000 A 
ATOM     15  C   UNL     1     105.057 125.076  79.481  0.00  0.00    +0.000 A 
ATOM     16  C   UNL     1     104.076 125.658  80.294  0.00  0.00    +0.000 A 
BRANCH  16  17
ATOM     17  O   UNL     1     103.618 126.901  79.940  0.00  0.00    +0.000 OA
ATOM     18 BR   UNL     1     104.660 128.235  80.590  0.00  0.00    +0.000 Br
ENDBRANCH  16  17
ENDBRANCH   2  11
TORSDOF 3
ENDMDL
