REMARK  Name = *****
REMARK  4 active torsions:
REMARK  status: ('A' for Active; 'I' for Inactive)
REMARK    1  A    between atoms: C_1  and  C_2
REMARK    2  A    between atoms: C_7  and  C_9
REMARK    3  A    between atoms: C_9  and  C_10
REMARK    4  A    between atoms: C_10  and  C_11
REMARK                            x       y       z     vdW  Elec       q    Type
REMARK                         _______ _______ _______ _____ _____    ______ ____
ROOT
ATOM      1  C   UNL     1       1.226  -0.532   0.170  0.00  0.00    +0.000 C 
ATOM      2  C   UNL     1       2.734  -0.283   0.132  0.00  0.00    +0.000 C 
ATOM      3  C   UNL     1       3.016   1.070  -0.531  0.00  0.00    +0.000 C 
ATOM      4  C   UNL     1       4.460   1.568  -0.459  0.00  0.00    +0.000 C 
ATOM      5  C   UNL     1       5.465   0.871  -1.379  0.00  0.00    +0.000 C 
ATOM      6  C   UNL     1       5.299  -0.621  -1.675  0.00  0.00    +0.000 C 
ATOM      7  C   UNL     1       4.714  -1.472  -0.550  0.00  0.00    +0.000 C 
ATOM      8  O   UNL     1       3.291  -1.371  -0.597  0.00  0.00    +0.000 OA
ATOM      9 CL   UNL     1       5.062   1.599   1.233  0.00  0.00    +0.000 Cl
ENDROOT
BRANCH   7  10
ATOM     10  C   UNL     1       5.061  -2.952  -0.781  0.00  0.00    +0.000 C 
BRANCH  10  11
ATOM     11  C   UNL     1       4.505  -3.848   0.332  0.00  0.00    +0.000 C 
BRANCH  11  12
ATOM     12  C   UNL     1       4.903  -5.290   0.132  0.00  0.00    +0.000 A 
ATOM     13  C   UNL     1       6.078  -5.791   0.707  0.00  0.00    +0.000 A 
ATOM     14  C   UNL     1       6.452  -7.120   0.505  0.00  0.00    +0.000 A 
ATOM     15  C   UNL     1       5.658  -7.959  -0.275  0.00  0.00    +0.000 A 
ATOM     16  C   UNL     1       4.490  -7.468  -0.857  0.00  0.00    +0.000 A 
ATOM     17  C   UNL     1       4.115  -6.139  -0.656  0.00  0.00    +0.000 A 
ENDBRANCH  11  12
ENDBRANCH  10  11
ENDBRANCH   7  10
TORSDOF 3
