MODEL 1
REMARK VINA RESULT:      -4.5      0.000      0.000
REMARK  Name = *****
REMARK  2 active torsions:
REMARK  status: ('A' for Active; 'I' for Inactive)
REMARK    1  A    between atoms: C_5  and  N_7
REMARK    2  A    between atoms: C_8  and  C_9
REMARK                            x       y       z     vdW  Elec       q    Type
REMARK                         _______ _______ _______ _____ _____    ______ ____
ROOT
ATOM      1  N   UNL     1     101.488 125.917  82.613  0.00  0.00    +0.000 NA
ATOM      2  C   UNL     1     102.767 125.946  82.815  0.00  0.00    +0.000 C 
ENDROOT
BRANCH   2   3
ATOM      3  C   UNL     1     103.626 124.778  82.541  0.00  0.00    +0.000 A 
ATOM      4  C   UNL     1     104.055 124.549  81.224  0.00  0.00    +0.000 A 
ATOM      5  C   UNL     1     104.860 123.445  80.923  0.00  0.00    +0.000 A 
ATOM      6  C   UNL     1     105.249 122.564  81.929  0.00  0.00    +0.000 A 
ATOM      7  C   UNL     1     104.841 122.792  83.241  0.00  0.00    +0.000 A 
ATOM      8  C   UNL     1     104.036 123.896  83.554  0.00  0.00    +0.000 A 
ATOM      9 CL   UNL     1     103.673 124.130  85.230  0.00  0.00    +0.000 Cl
ATOM     10 CL   UNL     1     103.607 125.573  79.902  0.00  0.00    +0.000 Cl
ENDBRANCH   2   3
BRANCH   1  15
ATOM     11  C   UNL     1     100.749 129.324  83.852  0.00  0.00    +0.000 A 
ATOM     12  C   UNL     1      99.397 129.466  83.537  0.00  0.00    +0.000 A 
ATOM     13  C   UNL     1      98.719 128.424  82.906  0.00  0.00    +0.000 A 
ATOM     14  C   UNL     1      99.400 127.249  82.591  0.00  0.00    +0.000 A 
ATOM     15  C   UNL     1     100.762 127.093  82.884  0.00  0.00    +0.000 A 
ATOM     16  C   UNL     1     101.424 128.141  83.531  0.00  0.00    +0.000 A 
ATOM     17  F   UNL     1      98.720 126.261  81.986  0.00  0.00    +0.000 F 
ENDBRANCH   1  15
TORSDOF 2
ENDMDL
