MODEL 1
REMARK VINA RESULT:      -4.7      0.000      0.000
REMARK  Name = *****
REMARK  5 active torsions:
REMARK  status: ('A' for Active; 'I' for Inactive)
REMARK    1  A    between atoms: C_1  and  C_2
REMARK    2  A    between atoms: C_2  and  C_3
REMARK    3  A    between atoms: C_4  and  C_16
REMARK    4  A    between atoms: C_6  and  C_8
REMARK    5  A    between atoms: C_9  and  C_10
REMARK                            x       y       z     vdW  Elec       q    Type
REMARK                         _______ _______ _______ _____ _____    ______ ____
ROOT
ATOM      1  C   UNL     1     104.915 123.419  80.452  0.00  0.00    +0.000 A 
ATOM      2  C   UNL     1     105.579 124.341  79.677  0.00  0.00    +0.000 A 
ATOM      3  N   UNL     1     104.969 125.569  79.821  0.00  0.00    +0.000 NA
ATOM      4  C   UNL     1     103.951 125.377  80.650  0.00  0.00    +0.000 A 
ATOM      5  O   UNL     1     103.883 124.060  81.071  0.00  0.00    +0.000 OA
ENDROOT
BRANCH   1   7
ATOM      6  C   UNL     1     105.734 121.742  82.085  0.00  0.00    +0.000 C 
ATOM      7  C   UNL     1     105.075 121.975  80.735  0.00  0.00    +0.000 C 
ENDBRANCH   1   7
BRANCH   4   8
ATOM      8  C   UNL     1     103.014 126.346  81.103  0.00  0.00    +0.000 C 
ATOM      9  C   UNL     1     102.058 126.030  81.991  0.00  0.00    +0.000 C 
BRANCH   9  10
ATOM     10  C   UNL     1     101.072 126.989  82.505  0.00  0.00    +0.000 A 
ATOM     11  C   UNL     1      99.691 126.792  82.362  0.00  0.00    +0.000 A 
ATOM     12  C   UNL     1      98.785 127.715  82.890  0.00  0.00    +0.000 A 
ATOM     13  C   UNL     1      99.247 128.837  83.573  0.00  0.00    +0.000 A 
ATOM     14  C   UNL     1     100.616 129.036  83.735  0.00  0.00    +0.000 A 
ATOM     15  C   UNL     1     101.524 128.113  83.208  0.00  0.00    +0.000 A 
ENDBRANCH   9  10
ENDBRANCH   4   8
BRANCH   2  16
ATOM     16  C   UNL     1     106.777 124.174  78.822  0.00  0.00    +0.000 C 
ATOM     17 CL   UNL     1     106.388 124.605  77.142  0.00  0.00    +0.000 Cl
ENDBRANCH   2  16
TORSDOF 4
ENDMDL
