REMARK  Name = *****
REMARK  4 active torsions:
REMARK  status: ('A' for Active; 'I' for Inactive)
REMARK    1  A    between atoms: C_4  and  C_8
REMARK    2  A    between atoms: C_8  and  O_9
REMARK    3  A    between atoms: O_9  and  C_10
REMARK    4  A    between atoms: C_10  and  C_12
REMARK                            x       y       z     vdW  Elec       q    Type
REMARK                         _______ _______ _______ _____ _____    ______ ____
ROOT
ATOM      1  O   UNL     1       2.169   1.063  -2.972  0.00  0.00    +0.000 OA
ENDROOT
BRANCH   1   2
ATOM      2  C   UNL     1       2.039  -0.113  -3.634  0.00  0.00    +0.000 C 
ATOM      3  O   UNL     1       1.069  -0.853  -3.597  0.00  0.00    +0.000 OA
BRANCH   2   4
ATOM      4  C   UNL     1       3.260  -0.403  -4.434  0.00  0.00    +0.000 A 
ATOM      5  C   UNL     1       4.397   0.416  -4.396  0.00  0.00    +0.000 A 
ATOM      6  C   UNL     1       5.519   0.094  -5.165  0.00  0.00    +0.000 A 
ATOM      7  C   UNL     1       5.512  -1.043  -5.972  0.00  0.00    +0.000 A 
ATOM      8  C   UNL     1       4.384  -1.862  -6.015  0.00  0.00    +0.000 A 
ATOM      9  C   UNL     1       3.262  -1.545  -5.248  0.00  0.00    +0.000 A 
ENDBRANCH   2   4
ENDBRANCH   1   2
BRANCH   1  10
ATOM     10  C   UNL     1       1.047   1.453  -2.163  0.00  0.00    +0.000 C 
BRANCH  10  14
ATOM     11  C   UNL     1       1.989   0.858   1.450  0.00  0.00    +0.000 C 
ATOM     12  C   UNL     1       0.752   1.763   1.436  0.00  0.00    +0.000 C 
ATOM     13  C   UNL     1       0.001   1.245   0.189  0.00  0.00    +0.000 C 
ATOM     14  C   UNL     1       1.164   0.843  -0.769  0.00  0.00    +0.000 C 
ATOM     15  C   UNL     1       2.423   1.265   0.035  0.00  0.00    +0.000 C 
ATOM     16  C   UNL     1       2.429   2.766   0.225  0.00  0.00    +0.000 C 
ATOM     17  C   UNL     1       1.421   3.064   1.059  0.00  0.00    +0.000 C 
ENDBRANCH  10  14
ENDBRANCH   1  10
TORSDOF 4
