MODEL 1
REMARK VINA RESULT:      -4.7      0.000      0.000
REMARK  Name = *****
REMARK  4 active torsions:
REMARK  status: ('A' for Active; 'I' for Inactive)
REMARK    1  A    between atoms: C_3  and  C_4
REMARK    2  A    between atoms: C_3  and  C_11
REMARK    3  A    between atoms: C_4  and  C_5
REMARK    4  A    between atoms: C_11  and  C_12
REMARK                            x       y       z     vdW  Elec       q    Type
REMARK                         _______ _______ _______ _____ _____    ______ ____
ROOT
ATOM      1  C   UNL     1      86.310  67.611  88.201  0.00  0.00    +0.000 C 
ATOM      2  C   UNL     1      87.033  68.688  88.213  0.00  0.00    +0.000 C 
ATOM      3  C   UNL     1      87.762  69.774  88.228  0.00  0.00    +0.000 C 
ENDROOT
BRANCH   3   4
ATOM      4  C   UNL     1      87.165  71.126  88.565  0.00  0.00    +0.000 C 
BRANCH   4   5
ATOM      5  C   UNL     1      86.118  71.591  87.578  0.00  0.00    +0.000 A 
ATOM      6  C   UNL     1      86.353  71.511  86.197  0.00  0.00    +0.000 A 
ATOM      7  C   UNL     1      85.387  71.942  85.286  0.00  0.00    +0.000 A 
ATOM      8  C   UNL     1      84.175  72.451  85.744  0.00  0.00    +0.000 A 
ATOM      9  C   UNL     1      83.926  72.530  87.114  0.00  0.00    +0.000 A 
ATOM     10  C   UNL     1      84.891  72.102  88.026  0.00  0.00    +0.000 A 
ENDBRANCH   4   5
ENDBRANCH   3   4
BRANCH   3  11
ATOM     11  C   UNL     1      89.244  69.741  87.920  0.00  0.00    +0.000 C 
BRANCH  11  12
ATOM     12  C   UNL     1      89.551  69.702  86.439  0.00  0.00    +0.000 A 
ATOM     13  C   UNL     1      89.818  70.887  85.737  0.00  0.00    +0.000 A 
ATOM     14  C   UNL     1      90.096  70.853  84.370  0.00  0.00    +0.000 A 
ATOM     15  C   UNL     1      90.111  69.636  83.691  0.00  0.00    +0.000 A 
ATOM     16  C   UNL     1      89.847  68.452  84.378  0.00  0.00    +0.000 A 
ATOM     17  C   UNL     1      89.569  68.484  85.745  0.00  0.00    +0.000 A 
ENDBRANCH  11  12
ENDBRANCH   3  11
TORSDOF 4
ENDMDL
