MODEL 1
REMARK VINA RESULT:      -4.6      0.000      0.000
REMARK  Name = *****
REMARK  5 active torsions:
REMARK  status: ('A' for Active; 'I' for Inactive)
REMARK    1  A    between atoms: C_4  and  C_7
REMARK    2  A    between atoms: N_8  and  C_9
REMARK    3  A    between atoms: C_12  and  C_15
REMARK    4  A    between atoms: C_15  and  S_18
REMARK    5  A    between atoms: C_16  and  S_17
REMARK                            x       y       z     vdW  Elec       q    Type
REMARK                         _______ _______ _______ _____ _____    ______ ____
ROOT
ATOM      1  C   UNL     1     103.662 124.960  81.378  0.00  0.00    +0.000 A 
ATOM      2  C   UNL     1     104.323 124.730  80.169  0.00  0.00    +0.000 A 
ATOM      3  C   UNL     1     105.269 123.707  80.063  0.00  0.00    +0.000 A 
ATOM      4  C   UNL     1     105.567 122.904  81.171  0.00  0.00    +0.000 A 
ATOM      5  C   UNL     1     104.917 123.148  82.389  0.00  0.00    +0.000 A 
ATOM      6  C   UNL     1     103.972 124.173  82.489  0.00  0.00    +0.000 A 
ENDROOT
BRANCH   1   8
ATOM      7  C   UNL     1     101.945 125.947  82.523  0.00  0.00    +0.000 C 
ATOM      8  N   UNL     1     102.727 125.997  81.491  0.00  0.00    +0.000 NA
BRANCH   7  12
ATOM      9  C   UNL     1      98.989 128.929  83.264  0.00  0.00    +0.000 A 
ATOM     10  C   UNL     1      98.623 127.735  82.643  0.00  0.00    +0.000 A 
ATOM     11  C   UNL     1      99.582 126.752  82.396  0.00  0.00    +0.000 A 
ATOM     12  C   UNL     1     100.911 126.971  82.773  0.00  0.00    +0.000 A 
ATOM     13  C   UNL     1     101.280 128.165  83.395  0.00  0.00    +0.000 A 
ATOM     14  C   UNL     1     100.316 129.144  83.641  0.00  0.00    +0.000 A 
ENDBRANCH   7  12
ENDBRANCH   1   8
BRANCH   4  15
ATOM     15  C   UNL     1     106.574 121.837  81.066  0.00  0.00    +0.000 C 
ATOM     16  C   UNL     1     106.289 120.619  81.559  0.00  0.00    +0.000 C 
BRANCH  16  17
ATOM     17  S   UNL     1     107.341 119.242  81.532  0.00  0.00    +0.000 S 
ATOM     18  H   UNL     1     106.897 118.315  82.421  0.00  0.00    +0.000 HD
ENDBRANCH  16  17
BRANCH  15  19
ATOM     19  S   UNL     1     108.061 122.286  80.293  0.00  0.00    +0.000 S 
ATOM     20  H   UNL     1     108.155 123.642  80.244  0.00  0.00    +0.000 HD
ENDBRANCH  15  19
ENDBRANCH   4  15
TORSDOF 5
ENDMDL
