REMARK  Name = *****
REMARK  5 active torsions:
REMARK  status: ('A' for Active; 'I' for Inactive)
REMARK    1  A    between atoms: C_1  and  C_2
REMARK    2  A    between atoms: C_2  and  O_3
REMARK    3  A    between atoms: O_3  and  C_4
REMARK    4  A    between atoms: C_10  and  C_11
REMARK    5  A    between atoms: C_12  and  C_13
REMARK                            x       y       z     vdW  Elec       q    Type
REMARK                         _______ _______ _______ _____ _____    ______ ____
ROOT
ATOM      1  C   UNL     1       4.524  -0.389   0.736  0.00  0.00    +0.000 C 
ATOM      2  C   UNL     1       5.012   0.880   0.075  0.00  0.00    +0.000 C 
ATOM      3  C   UNL     1       5.802   1.729   1.076  0.00  0.00    +0.000 C 
ATOM      4  C   UNL     1       6.902   0.949   1.817  0.00  0.00    +0.000 C 
ATOM      5  C   UNL     1       6.975  -0.529   1.423  0.00  0.00    +0.000 C 
ATOM      6  C   UNL     1       5.605  -1.139   1.480  0.00  0.00    +0.000 C 
ATOM      7  C   UNL     1       4.895  -1.808   0.327  0.00  0.00    +0.000 C 
ENDROOT
BRANCH   7   8
ATOM      8  C   UNL     1       5.551  -2.115  -0.952  0.00  0.00    +0.000 C 
ATOM      9  C   UNL     1       5.132  -1.697  -2.160  0.00  0.00    +0.000 C 
ATOM     10 CL   UNL     1       6.856  -3.258  -0.789  0.00  0.00    +0.000 Cl
BRANCH   9  11
ATOM     11  C   UNL     1       5.731  -2.018  -3.460  0.00  0.00    +0.000 A 
ATOM     12  C   UNL     1       4.975  -2.709  -4.413  0.00  0.00    +0.000 A 
ATOM     13  C   UNL     1       5.518  -3.000  -5.667  0.00  0.00    +0.000 A 
ATOM     14  C   UNL     1       6.816  -2.596  -5.976  0.00  0.00    +0.000 A 
ATOM     15  C   UNL     1       7.571  -1.898  -5.035  0.00  0.00    +0.000 A 
ATOM     16  C   UNL     1       7.029  -1.606  -3.782  0.00  0.00    +0.000 A 
ENDBRANCH   9  11
ENDBRANCH   7   8
BRANCH   1  17
ATOM     17  O   UNL     1       3.302  -0.231   1.496  0.00  0.00    +0.000 OA
BRANCH  17  19
ATOM     18  C   UNL     1       0.920  -0.251   1.638  0.00  0.00    +0.000 C 
ATOM     19  C   UNL     1       2.116  -0.325   0.709  0.00  0.00    +0.000 C 
ENDBRANCH  17  19
ENDBRANCH   1  17
TORSDOF 4
