MODEL 1
REMARK VINA RESULT:      -4.1      0.000      0.000
REMARK  Name = *****
REMARK  3 active torsions:
REMARK  status: ('A' for Active; 'I' for Inactive)
REMARK    1  A    between atoms: C_6  and  C_8
REMARK    2  A    between atoms: C_8  and  C_9
REMARK    3  A    between atoms: C_10  and  C_11
REMARK                            x       y       z     vdW  Elec       q    Type
REMARK                         _______ _______ _______ _____ _____    ______ ____
ROOT
ATOM      1  C   UNL     1     101.138 128.174  83.812  0.00  0.00    +0.000 C 
ENDROOT
BRANCH   1   7
ATOM      2  C   UNL     1      98.554 129.272  85.341  0.00  0.00    +0.000 C 
ATOM      3  C   UNL     1      97.575 128.114  85.159  0.00  0.00    +0.000 C 
ATOM      4  C   UNL     1      98.207 126.945  84.419  0.00  0.00    +0.000 C 
ATOM      5  C   UNL     1      98.824 127.420  83.122  0.00  0.00    +0.000 C 
ATOM      6  O   UNL     1      98.602 126.845  82.056  0.00  0.00    +0.000 OA
ATOM      7  C   UNL     1      99.790 128.594  83.205  0.00  0.00    +0.000 C 
ATOM      8  C   UNL     1      99.125 129.729  83.997  0.00  0.00    +0.000 C 
ENDBRANCH   1   7
BRANCH   1   9
ATOM      9  C   UNL     1     102.003 127.414  82.843  0.00  0.00    +0.000 C 
ATOM     10  C   UNL     1     102.361 126.132  83.022  0.00  0.00    +0.000 C 
BRANCH  10  11
ATOM     11  C   UNL     1     103.169 125.423  82.085  0.00  0.00    +0.000 A 
ATOM     12  C   UNL     1     103.374 125.620  80.728  0.00  0.00    +0.000 A 
ATOM     13  C   UNL     1     104.268 124.672  80.150  0.00  0.00    +0.000 A 
ATOM     14  C   UNL     1     104.725 123.766  81.076  0.00  0.00    +0.000 A 
ATOM     15  S   UNL     1     104.073 124.055  82.627  0.00  0.00    +0.000 S 
ENDBRANCH  10  11
ENDBRANCH   1   9
TORSDOF 3
ENDMDL
