MODEL 1
REMARK VINA RESULT:      -4.8      0.000      0.000
REMARK  Name = *****
REMARK  5 active torsions:
REMARK  status: ('A' for Active; 'I' for Inactive)
REMARK    1  A    between atoms: C_1  and  C_2
REMARK    2  A    between atoms: C_2  and  O_3
REMARK    3  A    between atoms: O_3  and  C_4
REMARK    4  A    between atoms: C_4  and  C_12
REMARK    5  A    between atoms: C_5  and  C_6
REMARK                            x       y       z     vdW  Elec       q    Type
REMARK                         _______ _______ _______ _____ _____    ______ ____
ROOT
ATOM      1  C   UNL     1     102.884 126.096  81.564  0.00  0.00    +0.000 C 
ATOM      2  C   UNL     1     101.854 125.981  82.424  0.00  0.00    +0.000 C 
ENDROOT
BRANCH   2   3
ATOM      3  C   UNL     1     100.848 127.015  82.713  0.00  0.00    +0.000 A 
ATOM      4  C   UNL     1      99.501 126.871  82.355  0.00  0.00    +0.000 A 
ATOM      5  C   UNL     1      98.570 127.862  82.676  0.00  0.00    +0.000 A 
ATOM      6  C   UNL     1      98.973 129.000  83.370  0.00  0.00    +0.000 A 
ATOM      7  C   UNL     1     100.307 129.147  83.748  0.00  0.00    +0.000 A 
ATOM      8  C   UNL     1     101.238 128.157  83.425  0.00  0.00    +0.000 A 
ENDBRANCH   2   3
BRANCH   1   9
ATOM      9  C   UNL     1     103.815 124.976  81.310  0.00  0.00    +0.000 A 
ATOM     10  C   UNL     1     104.066 124.035  82.320  0.00  0.00    +0.000 A 
ATOM     11  C   UNL     1     104.930 122.961  82.094  0.00  0.00    +0.000 A 
ATOM     12  C   UNL     1     105.549 122.812  80.855  0.00  0.00    +0.000 A 
ATOM     13  C   UNL     1     105.302 123.734  79.840  0.00  0.00    +0.000 A 
ATOM     14  C   UNL     1     104.438 124.808  80.064  0.00  0.00    +0.000 A 
ENDBRANCH   1   9
BRANCH   1  15
ATOM     15  O   UNL     1     103.075 127.221  80.781  0.00  0.00    +0.000 OA
BRANCH  15  17
ATOM     16  C   UNL     1     104.744 128.826  80.211  0.00  0.00    +0.000 C 
ATOM     17  C   UNL     1     104.078 128.070  81.346  0.00  0.00    +0.000 C 
ENDBRANCH  15  17
ENDBRANCH   1  15
TORSDOF 4
ENDMDL
