MODEL 1
REMARK VINA RESULT:      -4.9      0.000      0.000
REMARK  Name = *****
REMARK  2 active torsions:
REMARK  status: ('A' for Active; 'I' for Inactive)
REMARK    1  A    between atoms: C_1  and  C_2
REMARK    2  A    between atoms: C_9  and  C_11
REMARK                            x       y       z     vdW  Elec       q    Type
REMARK                         _______ _______ _______ _____ _____    ______ ____
ROOT
ATOM      1  C   UNL     1     106.317 121.688  81.123  0.00  0.00    +0.000 C 
ATOM      2  C   UNL     1     105.495 122.935  80.951  0.00  0.00    +0.000 A 
ATOM      3  C   UNL     1     104.582 123.314  81.949  0.00  0.00    +0.000 A 
ATOM      4  C   UNL     1     103.887 124.497  81.725  0.00  0.00    +0.000 A 
ATOM      5  C   UNL     1     104.043 125.307  80.615  0.00  0.00    +0.000 A 
ATOM      6  C   UNL     1     104.963 124.934  79.629  0.00  0.00    +0.000 A 
ATOM      7  C   UNL     1     105.687 123.745  79.816  0.00  0.00    +0.000 A 
ATOM      8  N   UNL     1     103.204 126.388  80.707  0.00  0.00    +0.000 NA
ATOM      9  C   UNL     1     102.596 126.218  81.870  0.00  0.00    +0.000 A 
ATOM     10  O   UNL     1     102.947 125.068  82.529  0.00  0.00    +0.000 OA
ENDROOT
BRANCH   9  11
ATOM     11  C   UNL     1     101.542 127.034  82.467  0.00  0.00    +0.000 A 
ATOM     12  C   UNL     1     100.212 126.596  82.306  0.00  0.00    +0.000 A 
ATOM     13  C   UNL     1      99.139 127.304  82.851  0.00  0.00    +0.000 A 
ATOM     14  C   UNL     1      99.375 128.474  83.565  0.00  0.00    +0.000 A 
ATOM     15  C   UNL     1     100.681 128.936  83.722  0.00  0.00    +0.000 A 
ATOM     16  C   UNL     1     101.761 128.227  83.175  0.00  0.00    +0.000 A 
ATOM     17 CL   UNL     1     103.326 128.941  83.378  0.00  0.00    +0.000 Cl
ENDBRANCH   9  11
TORSDOF 1
ENDMDL
