MODEL 1
REMARK VINA RESULT:      -4.8      0.000      0.000
REMARK  Name = *****
REMARK  6 active torsions:
REMARK  status: ('A' for Active; 'I' for Inactive)
REMARK    1  A    between atoms: C_1  and  C_2
REMARK    2  A    between atoms: C_5  and  C_8
REMARK    3  A    between atoms: C_8  and  N_10
REMARK    4  A    between atoms: N_10  and  C_11
REMARK    5  A    between atoms: N_10  and  C_12
REMARK    6  A    between atoms: C_15  and  C_18
REMARK                            x       y       z     vdW  Elec       q    Type
REMARK                         _______ _______ _______ _____ _____    ______ ____
ROOT
ATOM      1  C   UNL     1      88.393  70.526  86.292  0.00  0.00    +0.000 C 
ATOM      2  C   UNL     1      89.194  69.988  87.229  0.00  0.00    +0.000 C 
ENDROOT
BRANCH   1   7
ATOM      3  C   UNL     1      83.385  72.808  88.162  0.00  0.00    +0.000 C 
ATOM      4  C   UNL     1      84.665  72.191  87.684  0.00  0.00    +0.000 A 
ATOM      5  C   UNL     1      85.610  71.716  88.600  0.00  0.00    +0.000 A 
ATOM      6  C   UNL     1      86.820  71.174  88.154  0.00  0.00    +0.000 A 
ATOM      7  C   UNL     1      87.112  71.105  86.784  0.00  0.00    +0.000 A 
ATOM      8  C   UNL     1      86.168  71.598  85.872  0.00  0.00    +0.000 A 
ATOM      9  C   UNL     1      84.959  72.140  86.317  0.00  0.00    +0.000 A 
ENDBRANCH   1   7
BRANCH   1  10
ATOM     10  N   UNL     1      88.616  70.488  84.907  0.00  0.00    +0.000 N 
ATOM     11  C   UNL     1      88.492  69.246  84.131  0.00  0.00    +0.000 C 
BRANCH  10  12
ATOM     12  C   UNL     1      89.506  71.396  84.257  0.00  0.00    +0.000 A 
ATOM     13  C   UNL     1      89.102  72.688  83.891  0.00  0.00    +0.000 A 
ATOM     14  C   UNL     1      89.988  73.569  83.263  0.00  0.00    +0.000 A 
ATOM     15  C   UNL     1      91.298  73.174  82.977  0.00  0.00    +0.000 A 
ATOM     16  C   UNL     1      91.715  71.892  83.351  0.00  0.00    +0.000 A 
ATOM     17  C   UNL     1      90.826  71.013  83.978  0.00  0.00    +0.000 A 
ATOM     18  C   UNL     1      92.257  74.129  82.333  0.00  0.00    +0.000 C 
ENDBRANCH  10  12
ENDBRANCH   1  10
TORSDOF 3
ENDMDL
