MODEL 1
REMARK VINA RESULT:      -4.4      0.000      0.000
REMARK  Name = *****
REMARK  4 active torsions:
REMARK  status: ('A' for Active; 'I' for Inactive)
REMARK    1  A    between atoms: C_1  and  C_2
REMARK    2  A    between atoms: C_6  and  C_8
REMARK    3  A    between atoms: C_8  and  C_9
REMARK    4  A    between atoms: C_9  and  C_10
REMARK                            x       y       z     vdW  Elec       q    Type
REMARK                         _______ _______ _______ _____ _____    ______ ____
ROOT
ATOM      1  C   UNL     1      86.942  69.709  88.588  0.00  0.00    +0.000 C 
ENDROOT
BRANCH   1   7
ATOM      2  C   UNL     1      90.081  67.336  86.205  0.00  0.00    +0.000 C 
ATOM      3  C   UNL     1      89.056  68.297  85.595  0.00  0.00    +0.000 C 
ATOM      4  C   UNL     1      89.689  69.655  85.242  0.00  0.00    +0.000 C 
ATOM      5  C   UNL     1      89.813  70.586  86.414  0.00  0.00    +0.000 C 
ATOM      6  C   UNL     1      89.160  70.405  87.571  0.00  0.00    +0.000 C 
ATOM      7  C   UNL     1      88.202  69.263  87.817  0.00  0.00    +0.000 C 
ATOM      8  C   UNL     1      87.845  68.505  86.520  0.00  0.00    +0.000 C 
ENDBRANCH   1   7
BRANCH   1   9
ATOM      9  C   UNL     1      86.755  71.226  88.717  0.00  0.00    +0.000 C 
BRANCH   9  10
ATOM     10  C   UNL     1      85.685  71.728  87.776  0.00  0.00    +0.000 A 
ATOM     11  C   UNL     1      85.879  71.680  86.388  0.00  0.00    +0.000 A 
ATOM     12  C   UNL     1      84.897  72.159  85.521  0.00  0.00    +0.000 A 
ATOM     13  C   UNL     1      83.716  72.694  86.030  0.00  0.00    +0.000 A 
ATOM     14  C   UNL     1      83.516  72.753  87.407  0.00  0.00    +0.000 A 
ATOM     15  C   UNL     1      84.495  72.274  88.278  0.00  0.00    +0.000 A 
ENDBRANCH   9  10
ENDBRANCH   1   9
TORSDOF 3
ENDMDL
