MODEL 1
REMARK VINA RESULT:      -4.8      0.000      0.000
REMARK  Name = *****
REMARK  4 active torsions:
REMARK  status: ('A' for Active; 'I' for Inactive)
REMARK    1  A    between atoms: C_4  and  C_7
REMARK    2  A    between atoms: C_7  and  C_8
REMARK    3  A    between atoms: C_8  and  O_10
REMARK    4  A    between atoms: O_10  and  C_11
REMARK                            x       y       z     vdW  Elec       q    Type
REMARK                         _______ _______ _______ _____ _____    ______ ____
ROOT
ATOM      1  C   UNL     1     102.829 125.331  83.281  0.00  0.00    +0.000 C 
ATOM      2  O   UNL     1     102.426 125.092  84.412  0.00  0.00    +0.000 OA
ENDROOT
BRANCH   1   3
ATOM      3  C   UNL     1     102.029 125.946  82.151  0.00  0.00    +0.000 C 
BRANCH   3   7
ATOM      4  C   UNL     1      99.125 128.881  83.405  0.00  0.00    +0.000 A 
ATOM      5  C   UNL     1      98.708 127.715  82.766  0.00  0.00    +0.000 A 
ATOM      6  C   UNL     1      99.646 126.765  82.362  0.00  0.00    +0.000 A 
ATOM      7  C   UNL     1     101.013 126.971  82.594  0.00  0.00    +0.000 A 
ATOM      8  C   UNL     1     101.423 128.152  83.228  0.00  0.00    +0.000 A 
ATOM      9  C   UNL     1     100.482 129.101  83.635  0.00  0.00    +0.000 A 
ENDBRANCH   3   7
ENDBRANCH   1   3
BRANCH   1  10
ATOM     10  O   UNL     1     104.134 125.140  82.822  0.00  0.00    +0.000 OA
BRANCH  10  11
ATOM     11  C   UNL     1     104.347 123.848  82.336  0.00  0.00    +0.000 A 
ATOM     12  C   UNL     1     104.396 122.799  83.254  0.00  0.00    +0.000 A 
ATOM     13  C   UNL     1     104.643 121.503  82.800  0.00  0.00    +0.000 A 
ATOM     14  C   UNL     1     104.853 121.266  81.439  0.00  0.00    +0.000 A 
ATOM     15  C   UNL     1     104.823 122.326  80.527  0.00  0.00    +0.000 A 
ATOM     16  C   UNL     1     104.576 123.623  80.975  0.00  0.00    +0.000 A 
ATOM     17 CL   UNL     1     104.578 124.919  79.836  0.00  0.00    +0.000 Cl
ENDBRANCH  10  11
ENDBRANCH   1  10
TORSDOF 4
ENDMDL
