MODEL 1
REMARK VINA RESULT:      -3.9      0.000      0.000
REMARK  Name = *****
REMARK  5 active torsions:
REMARK  status: ('A' for Active; 'I' for Inactive)
REMARK    1  A    between atoms: C_1  and  C_2
REMARK    2  A    between atoms: C_7  and  C_8
REMARK    3  A    between atoms: N_9  and  O_10
REMARK    4  A    between atoms: O_10  and  C_11
REMARK    5  A    between atoms: C_11  and  C_12
REMARK                            x       y       z     vdW  Elec       q    Type
REMARK                         _______ _______ _______ _____ _____    ______ ____
ROOT
ATOM      1  C   UNL     1      87.726  65.414  87.352  0.00  0.00    +0.000 C 
ATOM      2  N   UNL     1      87.567  64.707  86.272  0.00  0.00    +0.000 NA
ENDROOT
BRANCH   1   9
ATOM      3  C   UNL     1      85.458  66.177  89.072  0.00  0.00    +0.000 C 
ATOM      4  C   UNL     1      86.611  65.365  89.591  0.00  0.00    +0.000 A 
ATOM      5  C   UNL     1      86.630  64.985  90.942  0.00  0.00    +0.000 A 
ATOM      6  C   UNL     1      87.686  64.230  91.457  0.00  0.00    +0.000 A 
ATOM      7  C   UNL     1      88.742  63.851  90.633  0.00  0.00    +0.000 A 
ATOM      8  C   UNL     1      88.745  64.227  89.291  0.00  0.00    +0.000 A 
ATOM      9  C   UNL     1      87.681  64.972  88.765  0.00  0.00    +0.000 A 
ENDBRANCH   1   9
BRANCH   2  10
ATOM     10  O   UNL     1      87.246  63.373  86.558  0.00  0.00    +0.000 OA
BRANCH  10  11
ATOM     11  C   UNL     1      85.830  63.203  86.464  0.00  0.00    +0.000 C 
BRANCH  11  12
ATOM     12  C   UNL     1      85.301  62.617  87.750  0.00  0.00    +0.000 A 
ATOM     13  C   UNL     1      86.120  61.820  88.565  0.00  0.00    +0.000 A 
ATOM     14  C   UNL     1      85.638  61.304  89.769  0.00  0.00    +0.000 A 
ATOM     15  C   UNL     1      84.337  61.588  90.178  0.00  0.00    +0.000 A 
ATOM     16  C   UNL     1      83.516  62.387  89.384  0.00  0.00    +0.000 A 
ATOM     17  C   UNL     1      83.997  62.903  88.178  0.00  0.00    +0.000 A 
ENDBRANCH  11  12
ENDBRANCH  10  11
ENDBRANCH   2  10
TORSDOF 4
ENDMDL
