MODEL 1
REMARK VINA RESULT:      -4.0      0.000      0.000
REMARK  Name = *****
REMARK  3 active torsions:
REMARK  status: ('A' for Active; 'I' for Inactive)
REMARK    1  A    between atoms: C_5  and  O_7
REMARK    2  A    between atoms: O_7  and  C_8
REMARK    3  A    between atoms: C_8  and  C_10
REMARK                            x       y       z     vdW  Elec       q    Type
REMARK                         _______ _______ _______ _____ _____    ______ ____
ROOT
ATOM      1  O   UNL     1     102.658 127.035  83.105  0.00  0.00    +0.000 OA
ENDROOT
BRANCH   1   6
ATOM      2  C   UNL     1      99.047 127.070  82.432  0.00  0.00    +0.000 A 
ATOM      3  C   UNL     1      98.695 128.330  82.928  0.00  0.00    +0.000 A 
ATOM      4  C   UNL     1      99.668 129.160  83.488  0.00  0.00    +0.000 A 
ATOM      5  C   UNL     1     100.986 128.724  83.555  0.00  0.00    +0.000 A 
ATOM      6  C   UNL     1     101.330 127.460  83.078  0.00  0.00    +0.000 A 
ATOM      7  C   UNL     1     100.371 126.632  82.498  0.00  0.00    +0.000 A 
ATOM      8  F   UNL     1     101.925 129.530  84.069  0.00  0.00    +0.000 F 
ENDBRANCH   1   6
BRANCH   1   9
ATOM      9  C   UNL     1     103.254 127.006  81.844  0.00  0.00    +0.000 C 
ATOM     10  O   UNL     1     103.361 127.974  81.096  0.00  0.00    +0.000 OA
BRANCH   9  11
ATOM     11  C   UNL     1     103.748 125.663  81.585  0.00  0.00    +0.000 A 
ATOM     12  C   UNL     1     104.074 125.057  80.383  0.00  0.00    +0.000 A 
ATOM     13  C   UNL     1     104.529 123.716  80.551  0.00  0.00    +0.000 A 
ATOM     14  C   UNL     1     104.538 123.339  81.874  0.00  0.00    +0.000 A 
ATOM     15  S   UNL     1     104.000 124.593  82.902  0.00  0.00    +0.000 S 
ENDBRANCH   9  11
ENDBRANCH   1   9
TORSDOF 3
ENDMDL
