REMARK  Name = *****
REMARK  4 active torsions:
REMARK  status: ('A' for Active; 'I' for Inactive)
REMARK    1  A    between atoms: N_2  and  C_3
REMARK    2  A    between atoms: C_6  and  C_9
REMARK    3  A    between atoms: C_10  and  C_11
REMARK    4  A    between atoms: C_16  and  N_17
REMARK                            x       y       z     vdW  Elec       q    Type
REMARK                         _______ _______ _______ _____ _____    ______ ____
ROOT
ATOM      1  C   UNL     1       3.765  -0.099  -0.027  0.00  0.00    +0.000 C 
ATOM      2  C   UNL     1       4.511  -1.213   0.032  0.00  0.00    +0.000 C 
ENDROOT
BRANCH   1   6
ATOM      3  C   UNL     1      -0.495   0.029  -0.071  0.00  0.00    +0.000 A 
ATOM      4  C   UNL     1       0.136  -0.993   0.633  0.00  0.00    +0.000 A 
ATOM      5  C   UNL     1       1.532  -1.045   0.652  0.00  0.00    +0.000 A 
ATOM      6  C   UNL     1       2.295  -0.091  -0.041  0.00  0.00    +0.000 A 
ATOM      7  C   UNL     1       1.632   0.940  -0.726  0.00  0.00    +0.000 A 
ATOM      8  C   UNL     1       0.237   1.001  -0.748  0.00  0.00    +0.000 A 
BRANCH   3  10
ATOM      9  C   UNL     1      -3.052   0.129  -0.114  0.00  0.00    +0.000 C 
ATOM     10  N   UNL     1      -1.881   0.084  -0.093  0.00  0.00    +0.000 NA
ENDBRANCH   3  10
ENDBRANCH   1   6
BRANCH   2  11
ATOM     11  C   UNL     1       5.975  -1.155   0.043  0.00  0.00    +0.000 A 
ATOM     12  C   UNL     1       6.665  -1.121  -1.175  0.00  0.00    +0.000 A 
ATOM     13  C   UNL     1       8.062  -1.071  -1.197  0.00  0.00    +0.000 A 
ATOM     14  C   UNL     1       8.785  -1.050  -0.003  0.00  0.00    +0.000 A 
ATOM     15  C   UNL     1       8.113  -1.079   1.218  0.00  0.00    +0.000 A 
ATOM     16  C   UNL     1       6.717  -1.131   1.231  0.00  0.00    +0.000 A 
BRANCH  16  17
ATOM     17  N   UNL     1       6.076  -1.164   2.465  0.00  0.00    +0.000 NA
ATOM     18  C   UNL     1       5.554  -1.195   3.514  0.00  0.00    +0.000 C 
ENDBRANCH  16  17
ENDBRANCH   2  11
TORSDOF 4
