MODEL 1
REMARK VINA RESULT:      -4.6      0.000      0.000
REMARK  Name = *****
REMARK  2 active torsions:
REMARK  status: ('A' for Active; 'I' for Inactive)
REMARK    1  A    between atoms: C_3  and  C_6
REMARK    2  A    between atoms: C_7  and  C_8
REMARK                            x       y       z     vdW  Elec       q    Type
REMARK                         _______ _______ _______ _____ _____    ______ ____
ROOT
ATOM      1  C   UNL     1      97.980 118.452  80.541  0.00  0.00    +0.000 C 
ATOM      2  C   UNL     1      97.534 117.554  79.880  0.00  0.00    +0.000 C 
ENDROOT
BRANCH   2   3
ATOM      3  C   UNL     1      97.001 116.486  79.092  0.00  0.00    +0.000 A 
ATOM      4  C   UNL     1      97.180 116.482  77.706  0.00  0.00    +0.000 A 
ATOM      5  C   UNL     1      96.657 115.439  76.937  0.00  0.00    +0.000 A 
ATOM      6  C   UNL     1      95.956 114.405  77.557  0.00  0.00    +0.000 A 
ATOM      7  C   UNL     1      95.777 114.403  78.939  0.00  0.00    +0.000 A 
ATOM      8  C   UNL     1      96.300 115.445  79.708  0.00  0.00    +0.000 A 
ATOM      9 CL   UNL     1      95.311 113.122  76.609  0.00  0.00    +0.000 Cl
ENDBRANCH   2   3
BRANCH   1  12
ATOM     10  C   UNL     1      98.127 119.740  83.649  0.00  0.00    +0.000 C 
ATOM     11  C   UNL     1      98.858 119.073  82.741  0.00  0.00    +0.000 C 
ATOM     12  C   UNL     1      98.516 119.547  81.355  0.00  0.00    +0.000 C 
ATOM     13  C   UNL     1      97.456 120.575  81.646  0.00  0.00    +0.000 C 
ATOM     14  C   UNL     1      97.258 120.670  82.969  0.00  0.00    +0.000 C 
ENDBRANCH   1  12
TORSDOF 2
ENDMDL
