REMARK  Name = *****
REMARK  5 active torsions:
REMARK  status: ('A' for Active; 'I' for Inactive)
REMARK    1  A    between atoms: C_3  and  N_17
REMARK    2  A    between atoms: C_6  and  C_7
REMARK    3  A    between atoms: C_7  and  C_8
REMARK    4  A    between atoms: C_8  and  C_9
REMARK    5  A    between atoms: C_12  and  N_15
REMARK                            x       y       z     vdW  Elec       q    Type
REMARK                         _______ _______ _______ _____ _____    ______ ____
ROOT
ATOM      1  C   UNL     1       1.773   2.241  -0.257  0.00  0.00    +0.000 C 
ENDROOT
BRANCH   1   7
ATOM      2  C   UNL     1       0.265   0.421  -1.151  0.00  0.00    +0.000 A 
ATOM      3  C   UNL     1      -0.569  -0.686  -0.962  0.00  0.00    +0.000 A 
ATOM      4  C   UNL     1      -0.831  -1.178   0.326  0.00  0.00    +0.000 A 
ATOM      5  C   UNL     1      -0.226  -0.543   1.417  0.00  0.00    +0.000 A 
ATOM      6  C   UNL     1       0.609   0.565   1.233  0.00  0.00    +0.000 A 
ATOM      7  C   UNL     1       0.856   1.059  -0.053  0.00  0.00    +0.000 A 
BRANCH   4   8
ATOM      8  N   UNL     1      -1.631  -2.277   0.573  0.00  0.00    +0.000 NA
ATOM      9  O   UNL     1      -2.413  -2.553  -0.344  0.00  0.00    +0.000 OA
ENDBRANCH   4   8
ENDBRANCH   1   7
BRANCH   1  10
ATOM     10  C   UNL     1       3.231   1.804  -0.422  0.00  0.00    +0.000 C 
BRANCH  10  11
ATOM     11  C   UNL     1       4.147   2.987  -0.621  0.00  0.00    +0.000 A 
ATOM     12  C   UNL     1       4.724   3.631   0.480  0.00  0.00    +0.000 A 
ATOM     13  C   UNL     1       5.557   4.741   0.296  0.00  0.00    +0.000 A 
ATOM     14  C   UNL     1       5.829   5.230  -0.990  0.00  0.00    +0.000 A 
ATOM     15  C   UNL     1       5.241   4.585  -2.086  0.00  0.00    +0.000 A 
ATOM     16  C   UNL     1       4.408   3.476  -1.906  0.00  0.00    +0.000 A 
BRANCH  14  17
ATOM     17  N   UNL     1       6.633   6.328  -1.240  0.00  0.00    +0.000 NA
ATOM     18  O   UNL     1       7.279   6.724  -0.263  0.00  0.00    +0.000 OA
ENDBRANCH  14  17
ENDBRANCH  10  11
ENDBRANCH   1  10
TORSDOF 5
