MODEL 1
REMARK VINA RESULT:      -4.4      0.000      0.000
REMARK  Name = *****
REMARK  3 active torsions:
REMARK  status: ('A' for Active; 'I' for Inactive)
REMARK    1  A    between atoms: C_7  and  O_18
REMARK    2  A    between atoms: N_8  and  C_11
REMARK    3  A    between atoms: O_18  and  O_19
REMARK                            x       y       z     vdW  Elec       q    Type
REMARK                         _______ _______ _______ _____ _____    ______ ____
ROOT
ATOM      1  C   UNL     1      92.342  92.278  84.135  0.00  0.00    +0.000 C 
ATOM      2  C   UNL     1      92.285  91.927  85.623  0.00  0.00    +0.000 C 
ATOM      3  C   UNL     1      93.499  92.476  86.381  0.00  0.00    +0.000 C 
ATOM      4  C   UNL     1      93.826  93.873  85.968  0.00  0.00    +0.000 C 
ATOM      5  C   UNL     1      93.334  94.466  84.873  0.00  0.00    +0.000 C 
ATOM      6  C   UNL     1      92.417  93.793  83.906  0.00  0.00    +0.000 C 
ATOM      7  C   UNL     1      93.807  95.868  84.652  0.00  0.00    +0.000 C 
ATOM      8  N   UNL     1      94.813  96.120  85.688  0.00  0.00    +0.000 N 
ATOM      9  S   UNL     1      94.834  94.980  86.923  0.00  0.00    +0.000 S 
ATOM     10  O   UNL     1      96.184  94.344  87.034  0.00  0.00    +0.000 OA
ENDROOT
BRANCH   8  11
ATOM     11  C   UNL     1      95.335  97.418  85.849  0.00  0.00    +0.000 A 
ATOM     12  C   UNL     1      96.368  97.877  84.999  0.00  0.00    +0.000 A 
ATOM     13  C   UNL     1      96.944  99.143  85.145  0.00  0.00    +0.000 A 
ATOM     14  C   UNL     1      96.498 100.000  86.141  0.00  0.00    +0.000 A 
ATOM     15  C   UNL     1      95.465  99.595  86.979  0.00  0.00    +0.000 A 
ATOM     16  C   UNL     1      94.883  98.325  86.834  0.00  0.00    +0.000 A 
ATOM     17 CL   UNL     1      93.529  97.998  87.863  0.00  0.00    +0.000 Cl
ENDBRANCH   8  11
BRANCH   7  18
ATOM     18  O   UNL     1      92.705  96.796  84.664  0.00  0.00    +0.000 OA
BRANCH  18  19
ATOM     19  O   UNL     1      92.830  97.687  83.506  0.00  0.00    +0.000 OA
ATOM     20  H   UNL     1      93.557  97.384  82.941  0.00  0.00    +0.000 HD
ENDBRANCH  18  19
ENDBRANCH   7  18
TORSDOF 3
ENDMDL
