MODEL 1
REMARK VINA RESULT:      -4.5      0.000      0.000
REMARK  Name = *****
REMARK  4 active torsions:
REMARK  status: ('A' for Active; 'I' for Inactive)
REMARK    1  A    between atoms: C_3  and  C_8
REMARK    2  A    between atoms: C_8  and  S_10
REMARK    3  A    between atoms: S_10  and  C_11
REMARK    4  A    between atoms: C_11  and  C_13
REMARK                            x       y       z     vdW  Elec       q    Type
REMARK                         _______ _______ _______ _____ _____    ______ ____
ROOT
ATOM      1  S   UNL     1      88.535  68.465  85.096  0.00  0.00    +0.000 S 
ENDROOT
BRANCH   1   2
ATOM      2  C   UNL     1      89.068  69.939  85.878  0.00  0.00    +0.000 C 
ATOM      3  O   UNL     1      90.063  70.520  85.461  0.00  0.00    +0.000 OA
BRANCH   2   6
ATOM      4  C   UNL     1      88.151  70.972  89.392  0.00  0.00    +0.000 A 
ATOM      5  C   UNL     1      88.843  70.470  88.287  0.00  0.00    +0.000 A 
ATOM      6  C   UNL     1      88.265  70.495  87.006  0.00  0.00    +0.000 A 
ATOM      7  C   UNL     1      86.974  71.019  86.852  0.00  0.00    +0.000 A 
ATOM      8  C   UNL     1      86.290  71.518  87.961  0.00  0.00    +0.000 A 
ATOM      9  C   UNL     1      86.872  71.500  89.227  0.00  0.00    +0.000 A 
ATOM     10 CL   UNL     1      84.707  72.164  87.766  0.00  0.00    +0.000 Cl
ENDBRANCH   2   6
ENDBRANCH   1   2
BRANCH   1  11
ATOM     11  C   UNL     1      89.215  67.436  86.340  0.00  0.00    +0.000 C 
ATOM     12  O   UNL     1      90.430  67.385  86.487  0.00  0.00    +0.000 OA
BRANCH  11  13
ATOM     13  C   UNL     1      88.296  66.681  87.242  0.00  0.00    +0.000 A 
ATOM     14  C   UNL     1      88.576  65.399  87.734  0.00  0.00    +0.000 A 
ATOM     15  C   UNL     1      87.659  64.762  88.573  0.00  0.00    +0.000 A 
ATOM     16  C   UNL     1      86.468  65.386  88.934  0.00  0.00    +0.000 A 
ATOM     17  C   UNL     1      86.186  66.665  88.458  0.00  0.00    +0.000 A 
ATOM     18  C   UNL     1      87.097  67.309  87.619  0.00  0.00    +0.000 A 
ATOM     19 CL   UNL     1      88.005  63.185  89.170  0.00  0.00    +0.000 Cl
ENDBRANCH  11  13
ENDBRANCH   1  11
TORSDOF 4
ENDMDL
