REMARK  Name = *****
REMARK  4 active torsions:
REMARK  status: ('A' for Active; 'I' for Inactive)
REMARK    1  A    between atoms: C_4  and  O_7
REMARK    2  A    between atoms: O_7  and  C_8
REMARK    3  A    between atoms: C_8  and  C_10
REMARK    4  A    between atoms: C_12  and  C_16
REMARK                            x       y       z     vdW  Elec       q    Type
REMARK                         _______ _______ _______ _____ _____    ______ ____
ROOT
ATOM      1  C   UNL     1      -3.629  -0.742  -0.171  0.00  0.00    +0.000 C 
ATOM      2  O   UNL     1      -3.313  -1.871   0.173  0.00  0.00    +0.000 OA
ENDROOT
BRANCH   1   3
ATOM      3  C   UNL     1      -5.031  -0.359  -0.506  0.00  0.00    +0.000 A 
ATOM      4  C   UNL     1      -5.393   0.946  -0.881  0.00  0.00    +0.000 A 
ATOM      5  C   UNL     1      -6.729   1.251  -1.184  0.00  0.00    +0.000 A 
ATOM      6  C   UNL     1      -7.698   0.237  -1.110  0.00  0.00    +0.000 A 
ATOM      7  C   UNL     1      -7.342  -1.059  -0.738  0.00  0.00    +0.000 A 
ATOM      8  C   UNL     1      -6.014  -1.356  -0.436  0.00  0.00    +0.000 A 
BRANCH   5   9
ATOM      9  C   UNL     1      -7.161   2.632  -1.588  0.00  0.00    +0.000 C 
ATOM     10  O   UNL     1      -8.352   2.795  -1.847  0.00  0.00    +0.000 OA
ATOM     11 CL   UNL     1      -5.984   3.926  -1.670  0.00  0.00    +0.000 Cl
ENDBRANCH   5   9
ENDBRANCH   1   3
BRANCH   1  12
ATOM     12  O   UNL     1      -2.801   0.356  -0.311  0.00  0.00    +0.000 OA
BRANCH  12  16
ATOM     13  C   UNL     1       1.279  -0.105   0.446  0.00  0.00    +0.000 A 
ATOM     14  C   UNL     1       0.676  -0.891  -0.539  0.00  0.00    +0.000 A 
ATOM     15  C   UNL     1      -0.689  -0.761  -0.797  0.00  0.00    +0.000 A 
ATOM     16  C   UNL     1      -1.440   0.145  -0.049  0.00  0.00    +0.000 A 
ATOM     17  C   UNL     1      -0.844   0.948   0.921  0.00  0.00    +0.000 A 
ATOM     18  C   UNL     1       0.521   0.815   1.173  0.00  0.00    +0.000 A 
ENDBRANCH  12  16
ENDBRANCH   1  12
TORSDOF 4
