REMARK  Name = *****
REMARK  1 active torsions:
REMARK  status: ('A' for Active; 'I' for Inactive)
REMARK    1  A    between atoms: C_4  and  C_6
REMARK                            x       y       z     vdW  Elec       q    Type
REMARK                         _______ _______ _______ _____ _____    ______ ____
ROOT
ATOM      1  C   UNL     1      -0.552  -2.540   0.537  0.00  0.00    +0.000 C 
ATOM      2  S   UNL     1      -0.493  -2.169   2.349  0.00  0.00    +0.000 S 
ATOM      3  C   UNL     1       0.885  -3.149   2.687  0.00  0.00    +0.000 A 
ATOM      4  C   UNL     1       1.339  -3.970   1.735  0.00  0.00    +0.000 A 
ATOM      5  S   UNL     1       0.527  -4.009   0.213  0.00  0.00    +0.000 S 
ATOM      6  S   UNL     1       2.711  -4.950   2.107  0.00  0.00    +0.000 S 
ATOM      7  C   UNL     1       2.909  -4.348   3.749  0.00  0.00    +0.000 A 
ATOM      8  O   UNL     1       3.789  -4.734   4.503  0.00  0.00    +0.000 OA
ATOM      9  S   UNL     1       1.711  -3.141   4.202  0.00  0.00    +0.000 S 
ENDROOT
BRANCH   1  13
ATOM     10  C   UNL     1      -0.439   1.239   0.441  0.00  0.00    +0.000 C 
ATOM     11  C   UNL     1       0.941   1.141  -0.173  0.00  0.00    +0.000 C 
ATOM     12  S   UNL     1       1.464  -0.591  -0.102  0.00  0.00    +0.000 S 
ATOM     13  C   UNL     1      -0.190  -1.350  -0.395  0.00  0.00    +0.000 C 
ATOM     14  S   UNL     1      -1.468  -0.028  -0.342  0.00  0.00    +0.000 S 
ENDBRANCH   1  13
TORSDOF 1
