MODEL 1
REMARK VINA RESULT:      -4.5      0.000      0.000
REMARK  Name = *****
REMARK  4 active torsions:
REMARK  status: ('A' for Active; 'I' for Inactive)
REMARK    1  A    between atoms: C_4  and  C_7
REMARK    2  A    between atoms: C_7  and  C_8
REMARK    3  A    between atoms: C_7  and  C_10
REMARK    4  A    between atoms: C_10  and  C_12
REMARK                            x       y       z     vdW  Elec       q    Type
REMARK                         _______ _______ _______ _____ _____    ______ ____
ROOT
ATOM      1  C   UNL     1     102.891 125.709  81.874  0.00  0.00    +0.000 C 
ENDROOT
BRANCH   1   5
ATOM      2  C   UNL     1     105.234 129.251  81.022  0.00  0.00    +0.000 A 
ATOM      3  C   UNL     1     104.393 128.714  80.049  0.00  0.00    +0.000 A 
ATOM      4  C   UNL     1     103.638 127.574  80.328  0.00  0.00    +0.000 A 
ATOM      5  C   UNL     1     103.714 126.956  81.585  0.00  0.00    +0.000 A 
ATOM      6  C   UNL     1     104.563 127.512  82.557  0.00  0.00    +0.000 A 
ATOM      7  C   UNL     1     105.319 128.651  82.275  0.00  0.00    +0.000 A 
ENDBRANCH   1   5
BRANCH   1   8
ATOM      8  C   UNL     1     103.751 124.445  82.026  0.00  0.00    +0.000 C 
ATOM      9 CL   UNL     1     104.472 123.951  80.466  0.00  0.00    +0.000 Cl
ENDBRANCH   1   8
BRANCH   1  10
ATOM     10  C   UNL     1     102.065 125.889  83.147  0.00  0.00    +0.000 C 
ATOM     11  O   UNL     1     102.292 125.247  84.174  0.00  0.00    +0.000 OA
BRANCH  10  12
ATOM     12  C   UNL     1     100.995 126.924  83.177  0.00  0.00    +0.000 A 
ATOM     13  C   UNL     1     101.155 128.142  83.846  0.00  0.00    +0.000 A 
ATOM     14  C   UNL     1     100.129 129.091  83.822  0.00  0.00    +0.000 A 
ATOM     15  C   UNL     1      98.947 128.827  83.131  0.00  0.00    +0.000 A 
ATOM     16  C   UNL     1      98.788 127.619  82.454  0.00  0.00    +0.000 A 
ATOM     17  C   UNL     1      99.812 126.671  82.472  0.00  0.00    +0.000 A 
ENDBRANCH  10  12
ENDBRANCH   1  10
TORSDOF 4
ENDMDL
