MODEL 1
REMARK VINA RESULT:      -4.6      0.000      0.000
REMARK  Name = *****
REMARK  3 active torsions:
REMARK  status: ('A' for Active; 'I' for Inactive)
REMARK    1  A    between atoms: C_3  and  C_4
REMARK    2  A    between atoms: C_4  and  C_10
REMARK    3  A    between atoms: C_11  and  C_12
REMARK                            x       y       z     vdW  Elec       q    Type
REMARK                         _______ _______ _______ _____ _____    ______ ____
ROOT
ATOM      1  C   UNL     1     101.197 127.134  82.822  0.00  0.00    +0.000 C 
ATOM      2  C   UNL     1      99.739 126.904  82.415  0.00  0.00    +0.000 C 
ATOM      3  C   UNL     1     100.253 126.369  83.739  0.00  0.00    +0.000 C 
ATOM      4  C   UNL     1      99.432 127.050  84.754  0.00  0.00    +0.000 C 
ATOM      5  C   UNL     1      98.478 127.838  84.233  0.00  0.00    +0.000 C 
ATOM      6  C   UNL     1      98.561 127.796  82.731  0.00  0.00    +0.000 C 
ENDROOT
BRANCH   1   9
ATOM      7  C   UNL     1     103.297 128.859  83.209  0.00  0.00    +0.000 C 
ATOM      8  C   UNL     1     102.713 128.507  84.539  0.00  0.00    +0.000 C 
ATOM      9  C   UNL     1     101.847 128.454  83.296  0.00  0.00    +0.000 C 
ENDBRANCH   1   9
BRANCH   1  10
ATOM     10  C   UNL     1     102.143 126.291  82.110  0.00  0.00    +0.000 C 
ATOM     11  C   UNL     1     102.967 125.633  81.534  0.00  0.00    +0.000 C 
BRANCH  11  12
ATOM     12  C   UNL     1     103.990 124.890  80.866  0.00  0.00    +0.000 A 
ATOM     13  C   UNL     1     104.297 123.592  81.279  0.00  0.00    +0.000 A 
ATOM     14  C   UNL     1     105.319 122.880  80.647  0.00  0.00    +0.000 A 
ATOM     15  C   UNL     1     106.034 123.465  79.603  0.00  0.00    +0.000 A 
ATOM     16  C   UNL     1     105.727 124.761  79.185  0.00  0.00    +0.000 A 
ATOM     17  C   UNL     1     104.705 125.473  79.817  0.00  0.00    +0.000 A 
ENDBRANCH  11  12
ENDBRANCH   1  10
TORSDOF 3
ENDMDL
