MODEL 1
REMARK VINA RESULT:      -4.5      0.000      0.000
REMARK  Name = *****
REMARK  6 active torsions:
REMARK  status: ('A' for Active; 'I' for Inactive)
REMARK    1  A    between atoms: C_1  and  C_2
REMARK    2  A    between atoms: C_2  and  C_3
REMARK    3  A    between atoms: C_2  and  C_10
REMARK    4  A    between atoms: C_2  and  O_16
REMARK    5  A    between atoms: C_3  and  C_4
REMARK    6  A    between atoms: O_16  and  C_17
REMARK                            x       y       z     vdW  Elec       q    Type
REMARK                         _______ _______ _______ _____ _____    ______ ____
ROOT
ATOM      1  C   UNL     1      88.655  71.694  84.682  0.00  0.00    +0.000 C 
ATOM      2  C   UNL     1      87.871  70.703  85.569  0.00  0.00    +0.000 C 
ENDROOT
BRANCH   2   3
ATOM      3  C   UNL     1      86.620  71.289  86.241  0.00  0.00    +0.000 A 
ATOM      4  C   UNL     1      86.518  71.293  87.648  0.00  0.00    +0.000 A 
ATOM      5  C   UNL     1      85.405  71.832  88.294  0.00  0.00    +0.000 A 
ATOM      6  C   UNL     1      84.370  72.386  87.547  0.00  0.00    +0.000 A 
ATOM      7  C   UNL     1      84.450  72.401  86.158  0.00  0.00    +0.000 A 
ATOM      8  C   UNL     1      85.564  71.859  85.510  0.00  0.00    +0.000 A 
ENDBRANCH   2   3
BRANCH   2   9
ATOM      9  O   UNL     1      87.483  69.552  84.765  0.00  0.00    +0.000 OA
ATOM     10  C   UNL     1      87.763  69.632  83.373  0.00  0.00    +0.000 C 
ENDBRANCH   2   9
BRANCH   2  11
ATOM     11  C   UNL     1      88.827  70.097  86.650  0.00  0.00    +0.000 C 
BRANCH  11  12
ATOM     12  C   UNL     1      88.903  68.590  86.750  0.00  0.00    +0.000 A 
ATOM     13  C   UNL     1      87.891  67.863  87.393  0.00  0.00    +0.000 A 
ATOM     14  C   UNL     1      87.967  66.472  87.487  0.00  0.00    +0.000 A 
ATOM     15  C   UNL     1      89.050  65.792  86.934  0.00  0.00    +0.000 A 
ATOM     16  C   UNL     1      90.057  66.501  86.285  0.00  0.00    +0.000 A 
ATOM     17  C   UNL     1      89.983  67.893  86.191  0.00  0.00    +0.000 A 
ENDBRANCH  11  12
ENDBRANCH   2  11
TORSDOF 4
ENDMDL
