MODEL 1
REMARK VINA RESULT:      -3.7      0.000      0.000
REMARK  Name = *****
REMARK  4 active torsions:
REMARK  status: ('A' for Active; 'I' for Inactive)
REMARK    1  A    between atoms: C_7  and  C_8
REMARK    2  A    between atoms: C_8  and  O_9
REMARK    3  A    between atoms: O_9  and  C_10
REMARK    4  A    between atoms: C_10  and  C_11
REMARK                            x       y       z     vdW  Elec       q    Type
REMARK                         _______ _______ _______ _____ _____    ______ ____
ROOT
ATOM      1  C   UNL     1      96.334 115.126  81.390  0.00  0.00    +0.000 C 
ENDROOT
BRANCH   1   8
ATOM      2  C   UNL     1      96.424 116.486  77.226  0.00  0.00    +0.000 C 
ATOM      3  C   UNL     1      97.324 115.314  77.642  0.00  0.00    +0.000 C 
ATOM      4  C   UNL     1      97.528 115.554  79.151  0.00  0.00    +0.000 C 
ATOM      5  C   UNL     1      97.618 117.082  79.197  0.00  0.00    +0.000 C 
ATOM      6  C   UNL     1      96.257 117.277  78.534  0.00  0.00    +0.000 C 
ATOM      7  C   UNL     1      95.331 116.493  79.483  0.00  0.00    +0.000 C 
ATOM      8  C   UNL     1      96.186 115.270  79.874  0.00  0.00    +0.000 C 
ENDBRANCH   1   8
BRANCH   1   9
ATOM      9  O   UNL     1      95.482 116.080  82.022  0.00  0.00    +0.000 OA
BRANCH   9  10
ATOM     10  C   UNL     1      96.154 116.777  83.070  0.00  0.00    +0.000 C 
BRANCH  10  11
ATOM     11  C   UNL     1      96.745 118.060  82.540  0.00  0.00    +0.000 A 
ATOM     12  C   UNL     1      98.134 118.257  82.514  0.00  0.00    +0.000 A 
ATOM     13  C   UNL     1      98.677 119.429  81.986  0.00  0.00    +0.000 A 
ATOM     14  C   UNL     1      97.839 120.414  81.468  0.00  0.00    +0.000 A 
ATOM     15  C   UNL     1      96.459 120.226  81.475  0.00  0.00    +0.000 A 
ATOM     16  C   UNL     1      95.914 119.054  82.004  0.00  0.00    +0.000 A 
ENDBRANCH  10  11
ENDBRANCH   9  10
ENDBRANCH   1   9
TORSDOF 4
ENDMDL
