REMARK  Name = *****
REMARK  6 active torsions:
REMARK  status: ('A' for Active; 'I' for Inactive)
REMARK    1  A    between atoms: C_1  and  C_2
REMARK    2  A    between atoms: C_2  and  N_3
REMARK    3  A    between atoms: N_3  and  C_4
REMARK    4  A    between atoms: N_3  and  C_12
REMARK    5  A    between atoms: C_4  and  C_5
REMARK    6  A    between atoms: C_8  and  C_11
REMARK                            x       y       z     vdW  Elec       q    Type
REMARK                         _______ _______ _______ _____ _____    ______ ____
ROOT
ATOM      1  N   UNL     1       3.051  -0.391   1.484  0.00  0.00    +0.000 N 
ENDROOT
BRANCH   1   2
ATOM      2  C   UNL     1       4.438  -0.363   1.722  0.00  0.00    +0.000 A 
ATOM      3  C   UNL     1       5.368  -0.015   0.723  0.00  0.00    +0.000 A 
ATOM      4  C   UNL     1       6.751   0.018   0.957  0.00  0.00    +0.000 A 
ATOM      5  C   UNL     1       7.254  -0.303   2.209  0.00  0.00    +0.000 A 
ATOM      6  C   UNL     1       6.373  -0.658   3.220  0.00  0.00    +0.000 A 
ATOM      7  C   UNL     1       4.992  -0.688   2.975  0.00  0.00    +0.000 A 
ENDBRANCH   1   2
BRANCH   1   9
ATOM      8  C   UNL     1       1.104  -0.430  -0.134  0.00  0.00    +0.000 C 
ATOM      9  C   UNL     1       2.557  -0.062   0.133  0.00  0.00    +0.000 C 
ENDBRANCH   1   9
BRANCH   1  10
ATOM     10  C   UNL     1       2.119  -0.314   2.625  0.00  0.00    +0.000 C 
BRANCH  10  11
ATOM     11  C   UNL     1       2.002   1.038   3.308  0.00  0.00    +0.000 A 
ATOM     12  C   UNL     1       2.632   2.204   2.855  0.00  0.00    +0.000 A 
ATOM     13  C   UNL     1       2.481   3.417   3.536  0.00  0.00    +0.000 A 
ATOM     14  C   UNL     1       1.692   3.494   4.686  0.00  0.00    +0.000 A 
ATOM     15  C   UNL     1       1.050   2.339   5.142  0.00  0.00    +0.000 A 
ATOM     16  C   UNL     1       1.203   1.128   4.461  0.00  0.00    +0.000 A 
ATOM     17  C   UNL     1       1.530   4.787   5.428  0.00  0.00    +0.000 C 
ENDBRANCH  10  11
ENDBRANCH   1  10
TORSDOF 4
