MODEL 1
REMARK VINA RESULT:      -4.5      0.000      0.000
REMARK  Name = *****
REMARK  5 active torsions:
REMARK  status: ('A' for Active; 'I' for Inactive)
REMARK    1  A    between atoms: C_1  and  C_2
REMARK    2  A    between atoms: C_4  and  C_15
REMARK    3  A    between atoms: C_4  and  C_16
REMARK    4  A    between atoms: C_5  and  C_7
REMARK    5  A    between atoms: C_8  and  C_9
REMARK                            x       y       z     vdW  Elec       q    Type
REMARK                         _______ _______ _______ _____ _____    ______ ____
ROOT
ATOM      1  C   UNL     1      89.086  64.328  86.669  0.00  0.00    +0.000 C 
ATOM      2  C   UNL     1      87.711  64.588  87.273  0.00  0.00    +0.000 C 
ATOM      3  C   UNL     1      87.773  65.319  88.625  0.00  0.00    +0.000 C 
ATOM      4  C   UNL     1      87.498  64.264  89.727  0.00  0.00    +0.000 C 
ATOM      5  C   UNL     1      86.873  63.141  88.933  0.00  0.00    +0.000 C 
ATOM      6  C   UNL     1      86.996  63.321  87.613  0.00  0.00    +0.000 C 
ATOM      7  C   UNL     1      88.803  63.809  90.395  0.00  0.00    +0.000 C 
ATOM      8  C   UNL     1      86.549  64.839  90.787  0.00  0.00    +0.000 C 
ENDROOT
BRANCH   5   9
ATOM      9  C   UNL     1      86.243  62.002  89.496  0.00  0.00    +0.000 C 
ATOM     10  C   UNL     1      85.702  61.041  89.973  0.00  0.00    +0.000 C 
BRANCH  10  11
ATOM     11  C   UNL     1      85.056  59.896  90.535  0.00  0.00    +0.000 A 
ATOM     12  C   UNL     1      85.811  58.787  90.925  0.00  0.00    +0.000 A 
ATOM     13  C   UNL     1      85.181  57.669  91.473  0.00  0.00    +0.000 A 
ATOM     14  C   UNL     1      83.795  57.658  91.630  0.00  0.00    +0.000 A 
ATOM     15  C   UNL     1      83.039  58.763  91.242  0.00  0.00    +0.000 A 
ATOM     16  C   UNL     1      83.669  59.883  90.694  0.00  0.00    +0.000 A 
ENDBRANCH  10  11
ENDBRANCH   5   9
TORSDOF 2
ENDMDL
