MODEL 1
REMARK VINA RESULT:      -4.0      0.000      0.000
REMARK  Name = *****
REMARK  4 active torsions:
REMARK  status: ('A' for Active; 'I' for Inactive)
REMARK    1  A    between atoms: C_1  and  C_2
REMARK    2  A    between atoms: C_5  and  C_7
REMARK    3  A    between atoms: C_8  and  C_9
REMARK    4  A    between atoms: C_12  and  C_14
REMARK                            x       y       z     vdW  Elec       q    Type
REMARK                         _______ _______ _______ _____ _____    ______ ____
ROOT
ATOM      1  C   UNL     1     103.006 125.356  81.709  0.00  0.00    +0.000 C 
ATOM      2  C   UNL     1     102.139 126.089  82.102  0.00  0.00    +0.000 C 
ENDROOT
BRANCH   1   7
ATOM      3  C   UNL     1     106.615 121.542  81.093  0.00  0.00    +0.000 C 
ATOM      4  C   UNL     1     105.725 122.722  80.906  0.00  0.00    +0.000 A 
ATOM      5  C   UNL     1     105.646 123.580  79.828  0.00  0.00    +0.000 A 
ATOM      6  C   UNL     1     104.666 124.598  80.021  0.00  0.00    +0.000 A 
ATOM      7  C   UNL     1     104.030 124.485  81.238  0.00  0.00    +0.000 A 
ATOM      8  S   UNL     1     104.616 123.156  82.137  0.00  0.00    +0.000 S 
ENDBRANCH   1   7
BRANCH   2   9
ATOM      9  C   UNL     1     101.108 126.959  82.564  0.00  0.00    +0.000 A 
ATOM     10  C   UNL     1      99.760 126.755  82.372  0.00  0.00    +0.000 A 
ATOM     11  C   UNL     1      98.972 127.795  82.949  0.00  0.00    +0.000 A 
ATOM     12  C   UNL     1      99.747 128.757  83.563  0.00  0.00    +0.000 A 
ATOM     13  S   UNL     1     101.416 128.394  83.436  0.00  0.00    +0.000 S 
ATOM     14  C   UNL     1      99.309 129.990  84.274  0.00  0.00    +0.000 C 
ENDBRANCH   2   9
TORSDOF 2
ENDMDL
