REMARK  Name = *****
REMARK  2 active torsions:
REMARK  status: ('A' for Active; 'I' for Inactive)
REMARK    1  A    between atoms: C_6  and  C_7
REMARK    2  A    between atoms: N_8  and  C_9
REMARK                            x       y       z     vdW  Elec       q    Type
REMARK                         _______ _______ _______ _____ _____    ______ ____
ROOT
ATOM      1  C   UNL     1       3.927   0.212   0.189  0.00  0.00    +0.000 C 
ATOM      2  N   UNL     1       4.610   1.198  -0.302  0.00  0.00    +0.000 NA
ENDROOT
BRANCH   1   8
ATOM      3  C   UNL     1       1.783  -0.944   0.627  0.00  0.00    +0.000 A 
ATOM      4  C   UNL     1       0.390  -1.014   0.539  0.00  0.00    +0.000 A 
ATOM      5  C   UNL     1      -0.320   0.012  -0.087  0.00  0.00    +0.000 A 
ATOM      6  C   UNL     1       0.350   1.109  -0.626  0.00  0.00    +0.000 A 
ATOM      7  C   UNL     1       1.742   1.183  -0.541  0.00  0.00    +0.000 A 
ATOM      8  C   UNL     1       2.456   0.156   0.086  0.00  0.00    +0.000 A 
ATOM      9 CL   UNL     1      -2.034  -0.079  -0.193  0.00  0.00    +0.000 Cl
ENDBRANCH   1   8
BRANCH   2  10
ATOM     10  C   UNL     1       5.998   1.126  -0.134  0.00  0.00    +0.000 A 
ATOM     11  C   UNL     1       6.790   0.447  -1.068  0.00  0.00    +0.000 A 
ATOM     12  C   UNL     1       8.176   0.390  -0.907  0.00  0.00    +0.000 A 
ATOM     13  C   UNL     1       8.764   1.023   0.182  0.00  0.00    +0.000 A 
ATOM     14  C   UNL     1       7.994   1.715   1.110  0.00  0.00    +0.000 A 
ATOM     15  C   UNL     1       6.608   1.770   0.947  0.00  0.00    +0.000 A 
ATOM     16  F   UNL     1      10.093   0.970   0.336  0.00  0.00    +0.000 F 
ENDBRANCH   2  10
TORSDOF 2
