MODEL 1
REMARK VINA RESULT:      -4.8      0.000      0.000
REMARK  Name = *****
REMARK  3 active torsions:
REMARK  status: ('A' for Active; 'I' for Inactive)
REMARK    1  A    between atoms: C_1  and  C_2
REMARK    2  A    between atoms: C_5  and  C_8
REMARK    3  A    between atoms: C_9  and  C_10
REMARK                            x       y       z     vdW  Elec       q    Type
REMARK                         _______ _______ _______ _____ _____    ______ ____
ROOT
ATOM      1  C   UNL     1     102.895 125.380  82.105  0.00  0.00    +0.000 C 
ATOM      2  C   UNL     1     102.042 126.181  82.375  0.00  0.00    +0.000 C 
ENDROOT
BRANCH   1   7
ATOM      3  C   UNL     1     106.958 121.510  80.912  0.00  0.00    +0.000 C 
ATOM      4  C   UNL     1     105.874 122.505  81.207  0.00  0.00    +0.000 A 
ATOM      5  C   UNL     1     105.376 123.346  80.204  0.00  0.00    +0.000 A 
ATOM      6  C   UNL     1     104.385 124.287  80.497  0.00  0.00    +0.000 A 
ATOM      7  C   UNL     1     103.889 124.399  81.796  0.00  0.00    +0.000 A 
ATOM      8  C   UNL     1     104.379 123.564  82.802  0.00  0.00    +0.000 A 
ATOM      9  C   UNL     1     105.369 122.623  82.508  0.00  0.00    +0.000 A 
ENDBRANCH   1   7
BRANCH   2  10
ATOM     10  C   UNL     1     101.007 127.113  82.713  0.00  0.00    +0.000 A 
ATOM     11  C   UNL     1      99.684 126.785  82.386  0.00  0.00    +0.000 A 
ATOM     12  C   UNL     1      98.643 127.668  82.677  0.00  0.00    +0.000 A 
ATOM     13  C   UNL     1      98.915 128.887  83.297  0.00  0.00    +0.000 A 
ATOM     14  C   UNL     1     100.228 129.222  83.629  0.00  0.00    +0.000 A 
ATOM     15  C   UNL     1     101.274 128.338  83.338  0.00  0.00    +0.000 A 
ATOM     16 BR   UNL     1     103.035 128.868  83.819  0.00  0.00    +0.000 Br
ENDBRANCH   2  10
TORSDOF 2
ENDMDL
