MODEL 1
REMARK VINA RESULT:      -4.2      0.000      0.000
REMARK  Name = *****
REMARK  5 active torsions:
REMARK  status: ('A' for Active; 'I' for Inactive)
REMARK    1  A    between atoms: C_1  and  C_2
REMARK    2  A    between atoms: C_4  and  C_8
REMARK    3  A    between atoms: C_8  and  N_9
REMARK    4  A    between atoms: N_9  and  S_10
REMARK    5  A    between atoms: S_10  and  C_11
REMARK                            x       y       z     vdW  Elec       q    Type
REMARK                         _______ _______ _______ _____ _____    ______ ____
ROOT
ATOM      1  C   UNL     1      89.505  69.776  86.484  0.00  0.00    +0.000 C 
ENDROOT
BRANCH   1   5
ATOM      2  C   UNL     1      85.031  72.013  86.895  0.00  0.00    +0.000 C 
ATOM      3  C   UNL     1      86.272  71.452  87.522  0.00  0.00    +0.000 A 
ATOM      4  C   UNL     1      87.272  70.881  86.724  0.00  0.00    +0.000 A 
ATOM      5  C   UNL     1      88.445  70.390  87.310  0.00  0.00    +0.000 A 
ATOM      6  C   UNL     1      88.632  70.476  88.692  0.00  0.00    +0.000 A 
ATOM      7  C   UNL     1      87.645  71.058  89.487  0.00  0.00    +0.000 A 
ATOM      8  C   UNL     1      86.475  71.548  88.904  0.00  0.00    +0.000 A 
ENDBRANCH   1   5
BRANCH   1   9
ATOM      9  N   UNL     1      89.903  68.562  86.682  0.00  0.00    +0.000 NA
BRANCH   9  10
ATOM     10  S   UNL     1      89.052  67.402  85.826  0.00  0.00    +0.000 S 
BRANCH  10  11
ATOM     11  C   UNL     1      88.205  66.573  87.166  0.00  0.00    +0.000 A 
ATOM     12  C   UNL     1      88.656  65.311  87.573  0.00  0.00    +0.000 A 
ATOM     13  C   UNL     1      88.031  64.642  88.629  0.00  0.00    +0.000 A 
ATOM     14  C   UNL     1      86.954  65.230  89.288  0.00  0.00    +0.000 A 
ATOM     15  C   UNL     1      86.502  66.489  88.894  0.00  0.00    +0.000 A 
ATOM     16  C   UNL     1      87.126  67.158  87.839  0.00  0.00    +0.000 A 
ENDBRANCH  10  11
ENDBRANCH   9  10
ENDBRANCH   1   9
TORSDOF 4
ENDMDL
