MODEL 1
REMARK VINA RESULT:      -4.6      0.000      0.000
REMARK  Name = *****
REMARK  1 active torsions:
REMARK  status: ('A' for Active; 'I' for Inactive)
REMARK    1  A    between atoms: C_8  and  C_10
REMARK                            x       y       z     vdW  Elec       q    Type
REMARK                         _______ _______ _______ _____ _____    ______ ____
ROOT
ATOM      1  C   UNL     1     105.184 122.637  82.126  0.00  0.00    +0.000 C 
ATOM      2  C   UNL     1     104.698 122.888  80.696  0.00  0.00    +0.000 C 
ATOM      3  C   UNL     1     104.467 124.376  80.412  0.00  0.00    +0.000 C 
ATOM      4  C   UNL     1     103.532 124.970  81.463  0.00  0.00    +0.000 C 
ATOM      5  C   UNL     1     104.114 124.782  82.861  0.00  0.00    +0.000 C 
ATOM      6  C   UNL     1     104.280 123.296  83.173  0.00  0.00    +0.000 C 
ATOM      7  S   UNL     1     102.988 125.621  84.008  0.00  0.00    +0.000 S 
ATOM      8  C   UNL     1     102.679 127.080  82.946  0.00  0.00    +0.000 C 
ATOM      9  S   UNL     1     103.267 126.751  81.243  0.00  0.00    +0.000 S 
ENDROOT
BRANCH   8  10
ATOM     10  C   UNL     1     101.230 127.522  82.976  0.00  0.00    +0.000 A 
ATOM     11  C   UNL     1     100.236 126.685  82.437  0.00  0.00    +0.000 A 
ATOM     12  C   UNL     1      98.892 127.064  82.456  0.00  0.00    +0.000 A 
ATOM     13  C   UNL     1      98.518 128.283  83.014  0.00  0.00    +0.000 A 
ATOM     14  C   UNL     1      99.486 129.125  83.555  0.00  0.00    +0.000 A 
ATOM     15  C   UNL     1     100.831 128.748  83.537  0.00  0.00    +0.000 A 
ENDBRANCH   8  10
TORSDOF 1
ENDMDL
