REMARK  Name = *****
REMARK  4 active torsions:
REMARK  status: ('A' for Active; 'I' for Inactive)
REMARK    1  A    between atoms: C_1  and  O_2
REMARK    2  A    between atoms: O_2  and  C_3
REMARK    3  A    between atoms: C_7  and  C_9
REMARK    4  A    between atoms: C_10  and  C_11
REMARK                            x       y       z     vdW  Elec       q    Type
REMARK                         _______ _______ _______ _____ _____    ______ ____
ROOT
ATOM      1  C   UNL     1       3.147  -0.116  -1.194  0.00  0.00    +0.000 A 
ATOM      2  C   UNL     1       2.734   0.724  -2.230  0.00  0.00    +0.000 A 
ATOM      3  C   UNL     1       3.411   0.714  -3.453  0.00  0.00    +0.000 A 
ATOM      4  C   UNL     1       4.501  -0.134  -3.646  0.00  0.00    +0.000 A 
ATOM      5  C   UNL     1       4.918  -0.975  -2.614  0.00  0.00    +0.000 A 
ATOM      6  C   UNL     1       4.240  -0.964  -1.392  0.00  0.00    +0.000 A 
ENDROOT
BRANCH   1   8
ATOM      7  C   UNL     1       1.454   0.635   0.298  0.00  0.00    +0.000 C 
ATOM      8  O   UNL     1       2.574  -0.204   0.046  0.00  0.00    +0.000 OA
ENDBRANCH   1   8
BRANCH   5   9
ATOM      9  C   UNL     1       6.035  -1.847  -2.808  0.00  0.00    +0.000 C 
ATOM     10  C   UNL     1       6.974  -2.579  -2.974  0.00  0.00    +0.000 C 
BRANCH  10  11
ATOM     11  C   UNL     1       8.091  -3.449  -3.173  0.00  0.00    +0.000 A 
ATOM     12  C   UNL     1       8.816  -3.395  -4.366  0.00  0.00    +0.000 A 
ATOM     13  C   UNL     1       9.906  -4.246  -4.560  0.00  0.00    +0.000 A 
ATOM     14  C   UNL     1      10.272  -5.150  -3.563  0.00  0.00    +0.000 A 
ATOM     15  C   UNL     1       9.549  -5.206  -2.372  0.00  0.00    +0.000 A 
ATOM     16  C   UNL     1       8.459  -4.356  -2.176  0.00  0.00    +0.000 A 
ENDBRANCH  10  11
ENDBRANCH   5   9
TORSDOF 3
