MODEL 1
REMARK VINA RESULT:      -3.9      0.000      0.000
REMARK  Name = *****
REMARK  4 active torsions:
REMARK  status: ('A' for Active; 'I' for Inactive)
REMARK    1  A    between atoms: C_4  and  C_7
REMARK    2  A    between atoms: C_7  and  C_8
REMARK    3  A    between atoms: C_8  and  C_9
REMARK    4  A    between atoms: C_10  and  C_11
REMARK                            x       y       z     vdW  Elec       q    Type
REMARK                         _______ _______ _______ _____ _____    ______ ____
ROOT
ATOM      1  C   UNL     1      87.539  63.208  86.330  0.00  0.00    +0.000 C 
ENDROOT
BRANCH   1   2
ATOM      2  C   UNL     1      88.129  64.593  86.363  0.00  0.00    +0.000 C 
ATOM      3  C   UNL     1      88.287  65.383  87.437  0.00  0.00    +0.000 C 
BRANCH   3   4
ATOM      4  C   UNL     1      87.892  65.027  88.801  0.00  0.00    +0.000 A 
ATOM      5  C   UNL     1      86.700  65.514  89.346  0.00  0.00    +0.000 A 
ATOM      6  C   UNL     1      86.332  65.172  90.648  0.00  0.00    +0.000 A 
ATOM      7  C   UNL     1      87.153  64.340  91.410  0.00  0.00    +0.000 A 
ATOM      8  C   UNL     1      88.342  63.851  90.870  0.00  0.00    +0.000 A 
ATOM      9  C   UNL     1      88.712  64.193  89.568  0.00  0.00    +0.000 A 
ENDBRANCH   3   4
ENDBRANCH   1   2
BRANCH   1  10
ATOM     10  C   UNL     1      86.010  63.255  86.374  0.00  0.00    +0.000 C 
BRANCH  10  14
ATOM     11  C   UNL     1      84.479  61.649  90.072  0.00  0.00    +0.000 A 
ATOM     12  C   UNL     1      83.683  62.487  89.292  0.00  0.00    +0.000 A 
ATOM     13  C   UNL     1      84.177  63.002  88.093  0.00  0.00    +0.000 A 
ATOM     14  C   UNL     1      85.471  62.680  87.660  0.00  0.00    +0.000 A 
ATOM     15  C   UNL     1      86.265  61.842  88.455  0.00  0.00    +0.000 A 
ATOM     16  C   UNL     1      85.769  61.328  89.655  0.00  0.00    +0.000 A 
ENDBRANCH  10  14
ENDBRANCH   1  10
TORSDOF 4
ENDMDL
