MODEL 1
REMARK VINA RESULT:      -4.6      0.000      0.000
REMARK  Name = *****
REMARK  5 active torsions:
REMARK  status: ('A' for Active; 'I' for Inactive)
REMARK    1  A    between atoms: C_1  and  C_2
REMARK    2  A    between atoms: C_5  and  C_16
REMARK    3  A    between atoms: C_6  and  C_8
REMARK    4  A    between atoms: C_9  and  C_10
REMARK    5  A    between atoms: C_16  and  C_18
REMARK                            x       y       z     vdW  Elec       q    Type
REMARK                         _______ _______ _______ _____ _____    ______ ____
ROOT
ATOM      1  C   UNL     1      86.092  64.362  85.633  0.00  0.00    +0.000 C 
ATOM      2  C   UNL     1      86.008  64.817  87.088  0.00  0.00    +0.000 C 
ATOM      3  C   UNL     1      87.242  65.595  87.549  0.00  0.00    +0.000 C 
ATOM      4  C   UNL     1      88.436  64.683  87.817  0.00  0.00    +0.000 C 
ATOM      5  C   UNL     1      88.063  63.514  88.749  0.00  0.00    +0.000 C 
ATOM      6  C   UNL     1      86.798  62.809  88.175  0.00  0.00    +0.000 C 
ATOM      7  O   UNL     1      85.716  63.722  87.959  0.00  0.00    +0.000 OA
ENDROOT
BRANCH   5   8
ATOM      8  C   UNL     1      88.034  63.984  90.211  0.00  0.00    +0.000 C 
ATOM      9  C   UNL     1      86.945  64.451  90.847  0.00  0.00    +0.000 C 
ATOM     10  C   UNL     1      89.345  63.875  90.949  0.00  0.00    +0.000 C 
ENDBRANCH   5   8
BRANCH   6  11
ATOM     11  C   UNL     1      86.341  61.635  89.013  0.00  0.00    +0.000 C 
ATOM     12  C   UNL     1      85.147  61.512  89.617  0.00  0.00    +0.000 C 
BRANCH  12  13
ATOM     13  C   UNL     1      84.748  60.351  90.422  0.00  0.00    +0.000 A 
ATOM     14  C   UNL     1      83.415  60.114  90.780  0.00  0.00    +0.000 A 
ATOM     15  C   UNL     1      83.067  58.980  91.520  0.00  0.00    +0.000 A 
ATOM     16  C   UNL     1      84.049  58.068  91.900  0.00  0.00    +0.000 A 
ATOM     17  C   UNL     1      85.377  58.284  91.535  0.00  0.00    +0.000 A 
ATOM     18  C   UNL     1      85.723  59.417  90.794  0.00  0.00    +0.000 A 
ENDBRANCH  12  13
ENDBRANCH   6  11
TORSDOF 3
ENDMDL
