MODEL 1
REMARK VINA RESULT:      -3.5      0.000      0.000
REMARK  Name = *****
REMARK  4 active torsions:
REMARK  status: ('A' for Active; 'I' for Inactive)
REMARK    1  A    between atoms: C_2  and  C_3
REMARK    2  A    between atoms: C_2  and  O_9
REMARK    3  A    between atoms: O_9  and  C_10
REMARK    4  A    between atoms: C_10  and  C_11
REMARK                            x       y       z     vdW  Elec       q    Type
REMARK                         _______ _______ _______ _____ _____    ______ ____
ROOT
ATOM      1  C   UNL     1     103.273 124.982  84.461  0.00  0.00    +0.000 C 
ATOM      2  C   UNL     1     103.391 124.903  83.123  0.00  0.00    +0.000 C 
ENDROOT
BRANCH   2   3
ATOM      3  C   UNL     1     104.626 124.275  82.472  0.00  0.00    +0.000 C 
ATOM      4  C   UNL     1     105.827 125.190  82.599  0.00  0.00    +0.000 C 
ATOM      5  C   UNL     1     106.533 125.638  81.546  0.00  0.00    +0.000 C 
ATOM      6  C   UNL     1     106.208 125.282  80.123  0.00  0.00    +0.000 C 
ATOM      7  C   UNL     1     105.050 124.334  79.987  0.00  0.00    +0.000 C 
ATOM      8  C   UNL     1     104.342 123.880  81.036  0.00  0.00    +0.000 C 
ENDBRANCH   2   3
BRANCH   2   9
ATOM      9  O   UNL     1     102.454 125.351  82.212  0.00  0.00    +0.000 OA
BRANCH   9  10
ATOM     10  C   UNL     1     101.990 126.697  82.300  0.00  0.00    +0.000 C 
BRANCH  10  11
ATOM     11  C   UNL     1     103.089 127.640  81.867  0.00  0.00    +0.000 A 
ATOM     12  C   UNL     1     103.758 128.444  82.803  0.00  0.00    +0.000 A 
ATOM     13  C   UNL     1     104.799 129.283  82.406  0.00  0.00    +0.000 A 
ATOM     14  C   UNL     1     105.192 129.322  81.069  0.00  0.00    +0.000 A 
ATOM     15  C   UNL     1     104.544 128.520  80.131  0.00  0.00    +0.000 A 
ATOM     16  C   UNL     1     103.502 127.680  80.527  0.00  0.00    +0.000 A 
ENDBRANCH  10  11
ENDBRANCH   9  10
ENDBRANCH   2   9
TORSDOF 4
ENDMDL
