MODEL 1
REMARK VINA RESULT:      -5.1      0.000      0.000
REMARK  Name = *****
REMARK  2 active torsions:
REMARK  status: ('A' for Active; 'I' for Inactive)
REMARK    1  A    between atoms: C_4  and  C_8
REMARK    2  A    between atoms: N_9  and  C_10
REMARK                            x       y       z     vdW  Elec       q    Type
REMARK                         _______ _______ _______ _____ _____    ______ ____
ROOT
ATOM      1  C   UNL     1     102.717 125.911  82.525  0.00  0.00    +0.000 C 
ATOM      2  N   UNL     1     101.443 125.923  82.298  0.00  0.00    +0.000 NA
ENDROOT
BRANCH   1   6
ATOM      3  C   UNL     1     105.236 122.599  81.528  0.00  0.00    +0.000 A 
ATOM      4  C   UNL     1     104.836 122.827  82.844  0.00  0.00    +0.000 A 
ATOM      5  C   UNL     1     104.014 123.915  83.140  0.00  0.00    +0.000 A 
ATOM      6  C   UNL     1     103.583 124.785  82.140  0.00  0.00    +0.000 A 
ATOM      7  C   UNL     1     103.989 124.552  80.827  0.00  0.00    +0.000 A 
ATOM      8  C   UNL     1     104.809 123.465  80.520  0.00  0.00    +0.000 A 
ATOM      9  F   UNL     1     103.611 125.350  79.819  0.00  0.00    +0.000 F 
ATOM     10  F   UNL     1     103.650 124.108  84.417  0.00  0.00    +0.000 F 
ENDBRANCH   1   6
BRANCH   2  11
ATOM     11  C   UNL     1     100.715 127.049  82.727  0.00  0.00    +0.000 A 
ATOM     12  C   UNL     1      99.328 127.188  82.545  0.00  0.00    +0.000 A 
ATOM     13  C   UNL     1      98.651 128.335  82.956  0.00  0.00    +0.000 A 
ATOM     14  C   UNL     1      99.363 129.375  83.549  0.00  0.00    +0.000 A 
ATOM     15  C   UNL     1     100.738 129.251  83.717  0.00  0.00    +0.000 A 
ATOM     16  C   UNL     1     101.416 128.107  83.308  0.00  0.00    +0.000 A 
ATOM     17  F   UNL     1     101.422 130.255  84.283  0.00  0.00    +0.000 F 
ATOM     18  F   UNL     1      98.621 126.200  81.973  0.00  0.00    +0.000 F 
ENDBRANCH   2  11
TORSDOF 2
ENDMDL
