MODEL 1
REMARK VINA RESULT:      -4.7      0.000      0.000
REMARK  Name = *****
REMARK  5 active torsions:
REMARK  status: ('A' for Active; 'I' for Inactive)
REMARK    1  A    between atoms: C_4  and  C_7
REMARK    2  A    between atoms: C_7  and  C_8
REMARK    3  A    between atoms: C_8  and  C_9
REMARK    4  A    between atoms: C_8  and  C_12
REMARK    5  A    between atoms: C_9  and  C_10
REMARK                            x       y       z     vdW  Elec       q    Type
REMARK                         _______ _______ _______ _____ _____    ______ ____
ROOT
ATOM      1  C   UNL     1     102.933 126.838  81.282  0.00  0.00    +0.000 C 
ENDROOT
BRANCH   1   2
ATOM      2  C   UNL     1     103.585 125.467  81.442  0.00  0.00    +0.000 A 
ATOM      3  C   UNL     1     103.609 124.861  82.710  0.00  0.00    +0.000 A 
ATOM      4  C   UNL     1     104.183 123.599  82.892  0.00  0.00    +0.000 A 
ATOM      5  C   UNL     1     104.734 122.928  81.804  0.00  0.00    +0.000 A 
ATOM      6  C   UNL     1     104.714 123.507  80.539  0.00  0.00    +0.000 A 
ATOM      7  C   UNL     1     104.141 124.769  80.360  0.00  0.00    +0.000 A 
ATOM      8 CL   UNL     1     105.437 121.374  82.025  0.00  0.00    +0.000 Cl
ENDBRANCH   1   2
BRANCH   1   9
ATOM      9  C   UNL     1     102.568 127.507  82.628  0.00  0.00    +0.000 C 
BRANCH   9  13
ATOM     10  C   UNL     1      98.319 127.953  83.229  0.00  0.00    +0.000 A 
ATOM     11  C   UNL     1      98.813 126.829  82.571  0.00  0.00    +0.000 A 
ATOM     12  C   UNL     1     100.188 126.679  82.382  0.00  0.00    +0.000 A 
ATOM     13  C   UNL     1     101.080 127.653  82.848  0.00  0.00    +0.000 A 
ATOM     14  C   UNL     1     100.572 128.779  83.510  0.00  0.00    +0.000 A 
ATOM     15  C   UNL     1      99.196 128.928  83.699  0.00  0.00    +0.000 A 
ENDBRANCH   9  13
ENDBRANCH   1   9
BRANCH   1  16
ATOM     16  C   UNL     1     103.722 127.720  80.297  0.00  0.00    +0.000 C 
BRANCH  16  17
ATOM     17  C   UNL     1     104.800 128.607  80.875  0.00  0.00    +0.000 C 
ATOM     18  O   UNL     1     105.908 128.237  81.249  0.00  0.00    +0.000 OA
ENDBRANCH  16  17
ENDBRANCH   1  16
TORSDOF 5
ENDMDL
