MODEL 1
REMARK VINA RESULT:      -4.7      0.000      0.000
REMARK  Name = *****
REMARK  5 active torsions:
REMARK  status: ('A' for Active; 'I' for Inactive)
REMARK    1  A    between atoms: C_1  and  O_2
REMARK    2  A    between atoms: O_2  and  C_3
REMARK    3  A    between atoms: C_3  and  C_12
REMARK    4  A    between atoms: N_4  and  C_5
REMARK    5  A    between atoms: C_12  and  C_13
REMARK                            x       y       z     vdW  Elec       q    Type
REMARK                         _______ _______ _______ _____ _____    ______ ____
ROOT
ATOM      1  C   UNL     1      89.622  68.652  85.685  0.00  0.00    +0.000 C 
ATOM      2  N   UNL     1      90.155  67.808  86.513  0.00  0.00    +0.000 NA
ENDROOT
BRANCH   2   3
ATOM      3  C   UNL     1      90.226  66.443  86.187  0.00  0.00    +0.000 A 
ATOM      4  C   UNL     1      91.305  65.967  85.430  0.00  0.00    +0.000 A 
ATOM      5  C   UNL     1      91.421  64.609  85.120  0.00  0.00    +0.000 A 
ATOM      6  C   UNL     1      90.464  63.705  85.580  0.00  0.00    +0.000 A 
ATOM      7  C   UNL     1      89.394  64.159  86.352  0.00  0.00    +0.000 A 
ATOM      8  C   UNL     1      89.279  65.518  86.659  0.00  0.00    +0.000 A 
ATOM      9 CL   UNL     1      87.933  66.026  87.619  0.00  0.00    +0.000 Cl
ENDBRANCH   2   3
BRANCH   1  11
ATOM     10  C   UNL     1      89.563  69.061  83.369  0.00  0.00    +0.000 C 
ATOM     11  O   UNL     1      89.045  68.345  84.494  0.00  0.00    +0.000 OA
ENDBRANCH   1  11
BRANCH   1  12
ATOM     12  C   UNL     1      89.647  70.136  85.947  0.00  0.00    +0.000 C 
BRANCH  12  13
ATOM     13  C   UNL     1      88.397  70.619  86.639  0.00  0.00    +0.000 A 
ATOM     14  C   UNL     1      88.285  70.564  88.036  0.00  0.00    +0.000 A 
ATOM     15  C   UNL     1      87.120  71.003  88.668  0.00  0.00    +0.000 A 
ATOM     16  C   UNL     1      86.056  71.492  87.913  0.00  0.00    +0.000 A 
ATOM     17  C   UNL     1      86.154  71.542  86.524  0.00  0.00    +0.000 A 
ATOM     18  C   UNL     1      87.317  71.107  85.890  0.00  0.00    +0.000 A 
ENDBRANCH  12  13
ENDBRANCH   1  12
TORSDOF 4
ENDMDL
