MODEL 1
REMARK VINA RESULT:      -4.5      0.000      0.000
REMARK  Name = *****
REMARK  3 active torsions:
REMARK  status: ('A' for Active; 'I' for Inactive)
REMARK    1  A    between atoms: C_4  and  C_7
REMARK    2  A    between atoms: C_7  and  O_9
REMARK    3  A    between atoms: O_9  and  C_10
REMARK                            x       y       z     vdW  Elec       q    Type
REMARK                         _______ _______ _______ _____ _____    ______ ____
ROOT
ATOM      1  O   UNL     1     102.825 126.992  83.077  0.00  0.00    +0.000 OA
ENDROOT
BRANCH   1   2
ATOM      2  C   UNL     1     101.499 127.434  83.102  0.00  0.00    +0.000 A 
ATOM      3  C   UNL     1     101.182 128.714  83.571  0.00  0.00    +0.000 A 
ATOM      4  C   UNL     1      99.853 129.144  83.553  0.00  0.00    +0.000 A 
ATOM      5  C   UNL     1      98.857 128.300  83.055  0.00  0.00    +0.000 A 
ATOM      6  C   UNL     1      99.196 127.037  82.576  0.00  0.00    +0.000 A 
ATOM      7  C   UNL     1     100.513 126.593  82.586  0.00  0.00    +0.000 A 
ATOM      8  F   UNL     1      98.237 126.239  82.090  0.00  0.00    +0.000 F 
ATOM      9 CL   UNL     1     102.399 129.785  84.156  0.00  0.00    +0.000 Cl
ENDBRANCH   1   2
BRANCH   1  10
ATOM     10  C   UNL     1     103.273 126.760  81.791  0.00  0.00    +0.000 C 
ATOM     11  O   UNL     1     103.274 127.553  80.860  0.00  0.00    +0.000 OA
BRANCH  10  15
ATOM     12  C   UNL     1     104.786 122.750  81.593  0.00  0.00    +0.000 A 
ATOM     13  C   UNL     1     104.713 123.507  80.424  0.00  0.00    +0.000 A 
ATOM     14  C   UNL     1     104.224 124.816  80.464  0.00  0.00    +0.000 A 
ATOM     15  C   UNL     1     103.804 125.371  81.682  0.00  0.00    +0.000 A 
ATOM     16  C   UNL     1     103.885 124.605  82.852  0.00  0.00    +0.000 A 
ATOM     17  C   UNL     1     104.374 123.297  82.806  0.00  0.00    +0.000 A 
ENDBRANCH  10  15
ENDBRANCH   1  10
TORSDOF 3
ENDMDL
