MODEL 1
REMARK VINA RESULT:      -5.0      0.000      0.000
REMARK  Name = *****
REMARK  2 active torsions:
REMARK  status: ('A' for Active; 'I' for Inactive)
REMARK    1  A    between atoms: C_5  and  C_6
REMARK    2  A    between atoms: C_6  and  C_7
REMARK                            x       y       z     vdW  Elec       q    Type
REMARK                         _______ _______ _______ _____ _____    ______ ____
ROOT
ATOM      1  C   UNL     1     100.723 127.026  83.049  0.00  0.00    +0.000 C 
ATOM      2  C   UNL     1      99.499 126.844  82.519  0.00  0.00    +0.000 C 
ATOM      3  C   UNL     1      98.606 128.050  82.669  0.00  0.00    +0.000 C 
ATOM      4  C   UNL     1      99.526 129.000  83.369  0.00  0.00    +0.000 A 
ATOM      5  C   UNL     1      99.277 130.300  83.778  0.00  0.00    +0.000 A 
ATOM      6  C   UNL     1     100.306 130.999  84.412  0.00  0.00    +0.000 A 
ATOM      7  C   UNL     1     101.555 130.394  84.625  0.00  0.00    +0.000 A 
ATOM      8  C   UNL     1     101.794 129.081  84.207  0.00  0.00    +0.000 A 
ATOM      9  C   UNL     1     100.770 128.389  83.582  0.00  0.00    +0.000 A 
ENDROOT
BRANCH   1  10
ATOM     10  C   UNL     1     101.865 126.065  83.070  0.00  0.00    +0.000 C 
BRANCH  10  15
ATOM     11  C   UNL     1     103.443 124.980  81.260  0.00  0.00    +0.000 C 
ATOM     12  C   UNL     1     104.194 125.612  80.124  0.00  0.00    +0.000 C 
ATOM     13  C   UNL     1     103.942 126.929  80.089  0.00  0.00    +0.000 C 
ATOM     14  C   UNL     1     103.043 127.272  81.162  0.00  0.00    +0.000 C 
ATOM     15  C   UNL     1     102.735 126.167  81.860  0.00  0.00    +0.000 C 
ENDBRANCH  10  15
ENDBRANCH   1  10
TORSDOF 2
ENDMDL
