MODEL 1
REMARK VINA RESULT:      -4.7      0.000      0.000
REMARK  Name = *****
REMARK  6 active torsions:
REMARK  status: ('A' for Active; 'I' for Inactive)
REMARK    1  A    between atoms: C_1  and  C_2
REMARK    2  A    between atoms: C_3  and  C_9
REMARK    3  A    between atoms: C_4  and  C_8
REMARK    4  A    between atoms: C_9  and  C_10
REMARK    5  A    between atoms: C_10  and  C_11
REMARK    6  A    between atoms: C_11  and  C_13
REMARK                            x       y       z     vdW  Elec       q    Type
REMARK                         _______ _______ _______ _____ _____    ______ ____
ROOT
ATOM      1  C   UNL     1      88.335  69.005  85.598  0.00  0.00    +0.000 C 
ENDROOT
BRANCH   1   2
ATOM      2  C   UNL     1      89.089  67.996  86.443  0.00  0.00    +0.000 C 
ATOM      3  O   UNL     1      90.316  67.977  86.507  0.00  0.00    +0.000 OA
BRANCH   2   4
ATOM      4  C   UNL     1      88.306  66.988  87.225  0.00  0.00    +0.000 A 
ATOM      5  C   UNL     1      87.113  67.315  87.888  0.00  0.00    +0.000 A 
ATOM      6  C   UNL     1      86.421  66.335  88.606  0.00  0.00    +0.000 A 
ATOM      7  C   UNL     1      86.917  65.038  88.662  0.00  0.00    +0.000 A 
ATOM      8  C   UNL     1      88.096  64.696  88.011  0.00  0.00    +0.000 A 
ATOM      9  C   UNL     1      88.791  65.671  87.291  0.00  0.00    +0.000 A 
ATOM     10  F   UNL     1      86.250  64.105  89.352  0.00  0.00    +0.000 F 
ENDBRANCH   2   4
ENDBRANCH   1   2
BRANCH   1  11
ATOM     11  C   UNL     1      88.576  70.438  86.077  0.00  0.00    +0.000 C 
BRANCH  11  14
ATOM     12  C   UNL     1      88.426  70.479  89.065  0.00  0.00    +0.000 C 
ATOM     13  C   UNL     1      87.292  70.984  88.211  0.00  0.00    +0.000 A 
ATOM     14  C   UNL     1      87.361  71.000  86.795  0.00  0.00    +0.000 A 
ATOM     15  C   UNL     1      86.267  71.518  86.055  0.00  0.00    +0.000 A 
ATOM     16  C   UNL     1      85.144  72.014  86.735  0.00  0.00    +0.000 A 
ATOM     17  C   UNL     1      85.085  71.997  88.125  0.00  0.00    +0.000 A 
ATOM     18  C   UNL     1      86.153  71.489  88.856  0.00  0.00    +0.000 A 
ATOM     19  C   UNL     1      86.279  71.596  84.551  0.00  0.00    +0.000 C 
ENDBRANCH  11  14
ENDBRANCH   1  11
TORSDOF 4
ENDMDL
