MODEL 1
REMARK VINA RESULT:      -4.9      0.000      0.000
REMARK  Name = *****
REMARK  5 active torsions:
REMARK  status: ('A' for Active; 'I' for Inactive)
REMARK    1  A    between atoms: C_1  and  C_2
REMARK    2  A    between atoms: C_4  and  N_8
REMARK    3  A    between atoms: N_8  and  N_9
REMARK    4  A    between atoms: N_9  and  C_11
REMARK    5  A    between atoms: C_15  and  C_17
REMARK                            x       y       z     vdW  Elec       q    Type
REMARK                         _______ _______ _______ _____ _____    ______ ____
ROOT
ATOM      1  N   UNL     1     102.562 126.738  82.971  0.00  0.00    +0.000 N 
ATOM      2  H   UNL     1     103.287 127.326  82.658  0.00  0.00    +0.000 HD
ENDROOT
BRANCH   1   6
ATOM      3  C   UNL     1      99.551 130.557  84.084  0.00  0.00    +0.000 C 
ATOM      4  C   UNL     1      99.766 129.176  83.537  0.00  0.00    +0.000 A 
ATOM      5  C   UNL     1     101.054 128.613  83.532  0.00  0.00    +0.000 A 
ATOM      6  C   UNL     1     101.294 127.339  83.007  0.00  0.00    +0.000 A 
ATOM      7  C   UNL     1     100.207 126.645  82.453  0.00  0.00    +0.000 A 
ATOM      8  C   UNL     1      98.924 127.199  82.436  0.00  0.00    +0.000 A 
ATOM      9  C   UNL     1      98.706 128.463  82.973  0.00  0.00    +0.000 A 
ENDBRANCH   1   6
BRANCH   1  10
ATOM     10  N   UNL     1     102.973 125.421  83.312  0.00  0.00    +0.000 N 
ATOM     11  O   UNL     1     102.706 124.911  84.381  0.00  0.00    +0.000 OA
BRANCH  10  12
ATOM     12  C   UNL     1     103.694 124.625  82.338  0.00  0.00    +0.000 A 
ATOM     13  C   UNL     1     103.940 125.135  81.059  0.00  0.00    +0.000 A 
ATOM     14  C   UNL     1     104.619 124.349  80.129  0.00  0.00    +0.000 A 
ATOM     15  C   UNL     1     105.054 123.067  80.476  0.00  0.00    +0.000 A 
ATOM     16  C   UNL     1     104.834 122.562  81.764  0.00  0.00    +0.000 A 
ATOM     17  C   UNL     1     104.141 123.347  82.695  0.00  0.00    +0.000 A 
ATOM     18  C   UNL     1     105.283 121.179  82.130  0.00  0.00    +0.000 C 
ENDBRANCH  10  12
ENDBRANCH   1  10
TORSDOF 3
ENDMDL
