REMARK  Name = *****
REMARK  2 active torsions:
REMARK  status: ('A' for Active; 'I' for Inactive)
REMARK    1  A    between atoms: C_3  and  C_8
REMARK    2  A    between atoms: C_9  and  C_10
REMARK                            x       y       z     vdW  Elec       q    Type
REMARK                         _______ _______ _______ _____ _____    ______ ____
ROOT
ATOM      1  C   UNL     1      -1.105   1.385   1.832  0.00  0.00    +0.000 C 
ATOM      2  C   UNL     1      -1.646   2.406   2.513  0.00  0.00    +0.000 C 
ATOM      3  F   UNL     1      -0.422   0.441   2.521  0.00  0.00    +0.000 F 
ENDROOT
BRANCH   1   6
ATOM      4  C   UNL     1      -1.190  -1.304   0.178  0.00  0.00    +0.000 C 
ATOM      5  C   UNL     1      -1.952  -0.009  -0.099  0.00  0.00    +0.000 C 
ATOM      6  C   UNL     1      -1.180   1.250   0.328  0.00  0.00    +0.000 C 
ATOM      7  C   UNL     1       0.220   1.278  -0.288  0.00  0.00    +0.000 C 
ATOM      8  C   UNL     1       0.955  -0.032  -0.102  0.00  0.00    +0.000 C 
ATOM      9  O   UNL     1       2.160  -0.058   0.149  0.00  0.00    +0.000 OA
ATOM     10  C   UNL     1       0.199  -1.295  -0.443  0.00  0.00    +0.000 C 
ENDBRANCH   1   6
BRANCH   2  11
ATOM     11  C   UNL     1      -1.492   2.530   3.966  0.00  0.00    +0.000 A 
ATOM     12  C   UNL     1      -2.401   1.862   4.799  0.00  0.00    +0.000 A 
ATOM     13  C   UNL     1      -2.274   1.936   6.189  0.00  0.00    +0.000 A 
ATOM     14  C   UNL     1      -1.238   2.672   6.759  0.00  0.00    +0.000 A 
ATOM     15  C   UNL     1      -0.327   3.341   5.941  0.00  0.00    +0.000 A 
ATOM     16  C   UNL     1      -0.453   3.273   4.550  0.00  0.00    +0.000 A 
ATOM     17 CL   UNL     1       0.702   4.134   3.590  0.00  0.00    +0.000 Cl
ENDBRANCH   2  11
TORSDOF 2
