MODEL 1
REMARK VINA RESULT:      -5.1      0.000      0.000
REMARK  Name = *****
REMARK  1 active torsions:
REMARK  status: ('A' for Active; 'I' for Inactive)
REMARK    1  A    between atoms: C_4  and  C_7
REMARK                            x       y       z     vdW  Elec       q    Type
REMARK                         _______ _______ _______ _____ _____    ______ ____
ROOT
ATOM      1  C   UNL     1     103.097 125.946  82.426  0.00  0.00    +0.000 A 
ATOM      2  C   UNL     1     101.753 125.900  82.380  0.00  0.00    +0.000 A 
ATOM      3  C   UNL     1     100.862 127.012  82.720  0.00  0.00    +0.000 A 
ATOM      4  C   UNL     1      99.494 126.897  82.428  0.00  0.00    +0.000 A 
ATOM      5  C   UNL     1      98.607 127.927  82.746  0.00  0.00    +0.000 A 
ATOM      6  C   UNL     1      99.078 129.080  83.364  0.00  0.00    +0.000 A 
ATOM      7  C   UNL     1     100.435 129.200  83.664  0.00  0.00    +0.000 A 
ATOM      8  C   UNL     1     101.333 128.173  83.343  0.00  0.00    +0.000 A 
ATOM      9  S   UNL     1     103.040 128.393  83.774  0.00  0.00    +0.000 S 
ATOM     10  C   UNL     1     103.862 127.167  82.831  0.00  0.00    +0.000 A 
ATOM     11  O   UNL     1     105.051 127.302  82.566  0.00  0.00    +0.000 OA
ENDROOT
BRANCH   1  15
ATOM     12  C   UNL     1     105.189 122.427  81.166  0.00  0.00    +0.000 A 
ATOM     13  C   UNL     1     104.854 123.410  80.237  0.00  0.00    +0.000 A 
ATOM     14  C   UNL     1     104.177 124.561  80.647  0.00  0.00    +0.000 A 
ATOM     15  C   UNL     1     103.828 124.737  81.993  0.00  0.00    +0.000 A 
ATOM     16  C   UNL     1     104.172 123.742  82.922  0.00  0.00    +0.000 A 
ATOM     17  C   UNL     1     104.849 122.593  82.508  0.00  0.00    +0.000 A 
ENDBRANCH   1  15
TORSDOF 1
ENDMDL
