MODEL 1
REMARK VINA RESULT:      -4.6      0.000      0.000
REMARK  Name = *****
REMARK  5 active torsions:
REMARK  status: ('A' for Active; 'I' for Inactive)
REMARK    1  A    between atoms: C_1  and  C_2
REMARK    2  A    between atoms: C_4  and  C_17
REMARK    3  A    between atoms: C_5  and  C_9
REMARK    4  A    between atoms: C_6  and  C_8
REMARK    5  A    between atoms: N_10  and  C_11
REMARK                            x       y       z     vdW  Elec       q    Type
REMARK                         _______ _______ _______ _____ _____    ______ ____
ROOT
ATOM      1  C   UNL     1      99.052 131.064  85.037  0.00  0.00    +0.000 C 
ATOM      2  C   UNL     1      99.783 129.912  84.412  0.00  0.00    +0.000 A 
ATOM      3  C   UNL     1      99.081 128.919  83.723  0.00  0.00    +0.000 A 
ATOM      4  C   UNL     1      99.746 127.843  83.108  0.00  0.00    +0.000 A 
ATOM      5  C   UNL     1     101.156 127.789  83.163  0.00  0.00    +0.000 A 
ATOM      6  C   UNL     1     101.879 128.800  83.839  0.00  0.00    +0.000 A 
ATOM      7  C   UNL     1     101.176 129.849  84.457  0.00  0.00    +0.000 A 
ATOM      8  C   UNL     1     103.382 128.808  83.921  0.00  0.00    +0.000 C 
ATOM      9  C   UNL     1      98.908 126.800  82.417  0.00  0.00    +0.000 C 
ENDROOT
BRANCH   5  10
ATOM     10  C   UNL     1     101.924 126.681  82.534  0.00  0.00    +0.000 C 
ATOM     11  N   UNL     1     102.431 126.753  81.350  0.00  0.00    +0.000 NA
BRANCH  11  12
ATOM     12  C   UNL     1     103.157 125.556  80.908  0.00  0.00    +0.000 C 
ATOM     13  C   UNL     1     103.626 124.765  82.135  0.00  0.00    +0.000 C 
ATOM     14  C   UNL     1     104.519 123.593  81.740  0.00  0.00    +0.000 C 
ATOM     15  C   UNL     1     105.703 124.049  80.892  0.00  0.00    +0.000 C 
ATOM     16  C   UNL     1     105.249 124.846  79.672  0.00  0.00    +0.000 C 
ATOM     17  C   UNL     1     104.355 126.018  80.069  0.00  0.00    +0.000 C 
ENDBRANCH  11  12
ENDBRANCH   5  10
TORSDOF 2
ENDMDL
