MODEL 1
REMARK VINA RESULT:      -4.5      0.000      0.000
REMARK  Name = *****
REMARK  4 active torsions:
REMARK  status: ('A' for Active; 'I' for Inactive)
REMARK    1  A    between atoms: C_1  and  C_2
REMARK    2  A    between atoms: C_5  and  C_8
REMARK    3  A    between atoms: C_8  and  C_9
REMARK    4  A    between atoms: C_10  and  C_11
REMARK                            x       y       z     vdW  Elec       q    Type
REMARK                         _______ _______ _______ _____ _____    ______ ____
ROOT
ATOM      1  C   UNL     1      89.138  70.114  86.947  0.00  0.00    +0.000 C 
ENDROOT
BRANCH   1   6
ATOM      2  C   UNL     1      83.869  72.602  87.045  0.00  0.00    +0.000 C 
ATOM      3  C   UNL     1      85.240  71.994  87.024  0.00  0.00    +0.000 A 
ATOM      4  C   UNL     1      85.859  71.594  88.213  0.00  0.00    +0.000 A 
ATOM      5  C   UNL     1      87.121  70.997  88.190  0.00  0.00    +0.000 A 
ATOM      6  C   UNL     1      87.784  70.782  86.974  0.00  0.00    +0.000 A 
ATOM      7  C   UNL     1      87.153  71.162  85.782  0.00  0.00    +0.000 A 
ATOM      8  C   UNL     1      85.892  71.760  85.808  0.00  0.00    +0.000 A 
ENDBRANCH   1   6
BRANCH   1   9
ATOM      9  C   UNL     1      89.151  68.609  86.863  0.00  0.00    +0.000 C 
ATOM     10  C   UNL     1      90.008  67.842  86.166  0.00  0.00    +0.000 C 
BRANCH  10  11
ATOM     11  C   UNL     1      89.933  66.416  86.150  0.00  0.00    +0.000 A 
ATOM     12  C   UNL     1      89.046  65.537  86.755  0.00  0.00    +0.000 A 
ATOM     13  C   UNL     1      89.329  64.167  86.479  0.00  0.00    +0.000 A 
ATOM     14  C   UNL     1      90.427  64.025  85.666  0.00  0.00    +0.000 A 
ATOM     15  S   UNL     1      91.107  65.531  85.242  0.00  0.00    +0.000 S 
ENDBRANCH  10  11
ENDBRANCH   1   9
TORSDOF 3
ENDMDL
