REMARK  Name = *****
REMARK  3 active torsions:
REMARK  status: ('A' for Active; 'I' for Inactive)
REMARK    1  A    between atoms: C_4  and  C_7
REMARK    2  A    between atoms: C_7  and  C_9
REMARK    3  A    between atoms: C_10  and  C_11
REMARK                            x       y       z     vdW  Elec       q    Type
REMARK                         _______ _______ _______ _____ _____    ______ ____
ROOT
ATOM      1  C   UNL     1       0.978  -2.458   0.804  0.00  0.00    +0.000 C 
ATOM      2  O   UNL     1       2.188  -2.627   0.907  0.00  0.00    +0.000 OA
ENDROOT
BRANCH   1   6
ATOM      3  C   UNL     1      -0.710   1.413  -0.338  0.00  0.00    +0.000 C 
ATOM      4  C   UNL     1      -1.156   0.188  -1.129  0.00  0.00    +0.000 C 
ATOM      5  C   UNL     1      -0.939  -1.096  -0.323  0.00  0.00    +0.000 C 
ATOM      6  C   UNL     1       0.408  -1.148   0.348  0.00  0.00    +0.000 C 
ATOM      7  C   UNL     1       1.181  -0.054   0.485  0.00  0.00    +0.000 C 
ATOM      8  C   UNL     1       0.768   1.319   0.041  0.00  0.00    +0.000 C 
ENDBRANCH   1   6
BRANCH   1   9
ATOM      9  C   UNL     1      -0.013  -3.511   1.166  0.00  0.00    +0.000 C 
ATOM     10  C   UNL     1       0.208  -4.835   1.201  0.00  0.00    +0.000 C 
BRANCH  10  11
ATOM     11  C   UNL     1       1.425  -5.563   0.826  0.00  0.00    +0.000 A 
ATOM     12  C   UNL     1       1.990  -6.462   1.739  0.00  0.00    +0.000 A 
ATOM     13  C   UNL     1       3.120  -7.207   1.392  0.00  0.00    +0.000 A 
ATOM     14  C   UNL     1       3.686  -7.067   0.126  0.00  0.00    +0.000 A 
ATOM     15  C   UNL     1       3.122  -6.185  -0.793  0.00  0.00    +0.000 A 
ATOM     16  C   UNL     1       1.992  -5.439  -0.447  0.00  0.00    +0.000 A 
ENDBRANCH  10  11
ENDBRANCH   1   9
TORSDOF 3
