REMARK  Name = *****
REMARK  2 active torsions:
REMARK  status: ('A' for Active; 'I' for Inactive)
REMARK    1  A    between atoms: C_5  and  S_8
REMARK    2  A    between atoms: S_8  and  C_9
REMARK                            x       y       z     vdW  Elec       q    Type
REMARK                         _______ _______ _______ _____ _____    ______ ____
ROOT
ATOM      1  C   UNL     1       1.774   0.012   0.368  0.00  0.00    +0.000 C 
ATOM      2  C   UNL     1       0.916   1.252   0.592  0.00  0.00    +0.000 C 
ATOM      3  C   UNL     1      -0.150   1.514  -0.467  0.00  0.00    +0.000 C 
ATOM      4  C   UNL     1      -1.455   0.769  -0.181  0.00  0.00    +0.000 C 
ATOM      5  C   UNL     1      -1.462  -0.742  -0.448  0.00  0.00    +0.000 C 
ATOM      6  C   UNL     1      -0.311  -1.506   0.233  0.00  0.00    +0.000 C 
ATOM      7  C   UNL     1       1.103  -1.202  -0.266  0.00  0.00    +0.000 C 
ENDROOT
BRANCH   5   8
ATOM      8  S   UNL     1      -1.518  -1.122  -2.257  0.00  0.00    +0.000 S 
BRANCH   8   9
ATOM      9  C   UNL     1      -3.168  -0.585  -2.671  0.00  0.00    +0.000 A 
ATOM     10  C   UNL     1      -3.337   0.445  -3.601  0.00  0.00    +0.000 A 
ATOM     11  C   UNL     1      -4.618   0.877  -3.950  0.00  0.00    +0.000 A 
ATOM     12  C   UNL     1      -5.737   0.275  -3.378  0.00  0.00    +0.000 A 
ATOM     13  C   UNL     1      -5.576  -0.764  -2.462  0.00  0.00    +0.000 A 
ATOM     14  C   UNL     1      -4.295  -1.197  -2.113  0.00  0.00    +0.000 A 
ENDBRANCH   8   9
ENDBRANCH   5   8
TORSDOF 2
