MODEL 1
REMARK VINA RESULT:      -4.8      0.000      0.000
REMARK  Name = *****
REMARK  6 active torsions:
REMARK  status: ('A' for Active; 'I' for Inactive)
REMARK    1  A    between atoms: C_1  and  C_2
REMARK    2  A    between atoms: C_5  and  C_8
REMARK    3  A    between atoms: C_8  and  O_10
REMARK    4  A    between atoms: O_10  and  C_11
REMARK    5  A    between atoms: C_11  and  C_12
REMARK    6  A    between atoms: C_16  and  C_18
REMARK                            x       y       z     vdW  Elec       q    Type
REMARK                         _______ _______ _______ _____ _____    ______ ____
ROOT
ATOM      1  C   UNL     1     104.619 124.469  80.084  0.00  0.00    +0.000 C 
ATOM      2  O   UNL     1     105.582 124.697  79.368  0.00  0.00    +0.000 OA
ENDROOT
BRANCH   1   7
ATOM      3  C   UNL     1     104.467 120.062  83.853  0.00  0.00    +0.000 C 
ATOM      4  C   UNL     1     104.536 121.212  82.893  0.00  0.00    +0.000 A 
ATOM      5  C   UNL     1     104.662 120.980  81.518  0.00  0.00    +0.000 A 
ATOM      6  C   UNL     1     104.692 122.050  80.619  0.00  0.00    +0.000 A 
ATOM      7  C   UNL     1     104.586 123.367  81.082  0.00  0.00    +0.000 A 
ATOM      8  C   UNL     1     104.440 123.601  82.456  0.00  0.00    +0.000 A 
ATOM      9  C   UNL     1     104.411 122.528  83.353  0.00  0.00    +0.000 A 
ENDBRANCH   1   7
BRANCH   1  10
ATOM     10  O   UNL     1     103.457 125.163  80.108  0.00  0.00    +0.000 OA
BRANCH  10  11
ATOM     11  C   UNL     1     103.575 126.576  80.314  0.00  0.00    +0.000 C 
BRANCH  11  12
ATOM     12  C   UNL     1     102.818 126.957  81.559  0.00  0.00    +0.000 A 
ATOM     13  C   UNL     1     101.796 126.131  82.044  0.00  0.00    +0.000 A 
ATOM     14  C   UNL     1     101.114 126.466  83.214  0.00  0.00    +0.000 A 
ATOM     15  C   UNL     1     101.448 127.627  83.911  0.00  0.00    +0.000 A 
ATOM     16  C   UNL     1     102.465 128.466  83.442  0.00  0.00    +0.000 A 
ATOM     17  C   UNL     1     103.157 128.114  82.276  0.00  0.00    +0.000 A 
ATOM     18  C   UNL     1     102.856 129.693  84.214  0.00  0.00    +0.000 C 
ENDBRANCH  11  12
ENDBRANCH  10  11
ENDBRANCH   1  10
TORSDOF 4
ENDMDL
