MODEL 1
REMARK VINA RESULT:      -4.2      0.000      0.000
REMARK  Name = *****
REMARK  3 active torsions:
REMARK  status: ('A' for Active; 'I' for Inactive)
REMARK    1  A    between atoms: C_3  and  C_9
REMARK    2  A    between atoms: C_9  and  C_10
REMARK    3  A    between atoms: C_10  and  C_11
REMARK                            x       y       z     vdW  Elec       q    Type
REMARK                         _______ _______ _______ _____ _____    ______ ____
ROOT
ATOM      1  C   UNL     1      89.755  68.273  84.328  0.00  0.00    +0.000 C 
ATOM      2  C   UNL     1      89.700  67.699  85.543  0.00  0.00    +0.000 C 
ATOM      3  C   UNL     1      88.957  68.274  86.743  0.00  0.00    +0.000 C 
ATOM      4  S   UNL     1      87.240  67.613  86.695  0.00  0.00    +0.000 S 
ATOM      5  C   UNL     1      87.420  66.089  87.676  0.00  0.00    +0.000 C 
ATOM      6  C   UNL     1      88.707  65.269  87.575  0.00  0.00    +0.000 C 
ATOM      7  C   UNL     1      89.257  65.058  86.168  0.00  0.00    +0.000 C 
ATOM      8  S   UNL     1      90.605  66.219  85.769  0.00  0.00    +0.000 S 
ENDROOT
BRANCH   3   9
ATOM      9  C   UNL     1      88.878  69.813  86.820  0.00  0.00    +0.000 C 
BRANCH   9  10
ATOM     10  C   UNL     1      88.056  70.289  88.025  0.00  0.00    +0.000 C 
BRANCH  10  11
ATOM     11  C   UNL     1      86.815  71.029  87.590  0.00  0.00    +0.000 A 
ATOM     12  C   UNL     1      86.583  71.292  86.233  0.00  0.00    +0.000 A 
ATOM     13  C   UNL     1      85.444  71.994  85.835  0.00  0.00    +0.000 A 
ATOM     14  C   UNL     1      84.531  72.443  86.788  0.00  0.00    +0.000 A 
ATOM     15  C   UNL     1      84.756  72.191  88.140  0.00  0.00    +0.000 A 
ATOM     16  C   UNL     1      85.894  71.489  88.540  0.00  0.00    +0.000 A 
ENDBRANCH  10  11
ENDBRANCH   9  10
ENDBRANCH   3   9
TORSDOF 3
ENDMDL
