MODEL 1
REMARK VINA RESULT:      -4.9      0.000      0.000
REMARK  Name = *****
REMARK  2 active torsions:
REMARK  status: ('A' for Active; 'I' for Inactive)
REMARK    1  A    between atoms: C_3  and  N_8
REMARK    2  A    between atoms: C_9  and  C_10
REMARK                            x       y       z     vdW  Elec       q    Type
REMARK                         _______ _______ _______ _____ _____    ______ ____
ROOT
ATOM      1  N   UNL     1     101.821 125.911  82.560  0.00  0.00    +0.000 NA
ATOM      2  C   UNL     1     102.658 126.124  81.596  0.00  0.00    +0.000 C 
ENDROOT
BRANCH   2   3
ATOM      3  C   UNL     1     103.667 125.116  81.218  0.00  0.00    +0.000 A 
ATOM      4  C   UNL     1     103.968 124.050  82.074  0.00  0.00    +0.000 A 
ATOM      5  C   UNL     1     104.927 123.116  81.690  0.00  0.00    +0.000 A 
ATOM      6  C   UNL     1     105.580 123.233  80.469  0.00  0.00    +0.000 A 
ATOM      7  C   UNL     1     105.274 124.294  79.627  0.00  0.00    +0.000 A 
ATOM      8  C   UNL     1     104.319 125.242  79.989  0.00  0.00    +0.000 A 
ATOM      9  F   UNL     1     105.897 124.418  78.447  0.00  0.00    +0.000 F 
ATOM     10  F   UNL     1     106.501 122.329  80.108  0.00  0.00    +0.000 F 
ATOM     11  F   UNL     1     105.214 122.098  82.511  0.00  0.00    +0.000 F 
ENDBRANCH   2   3
BRANCH   1  14
ATOM     12  C   UNL     1      98.653 127.834  82.682  0.00  0.00    +0.000 A 
ATOM     13  C   UNL     1      99.570 126.807  82.443  0.00  0.00    +0.000 A 
ATOM     14  C   UNL     1     100.910 126.945  82.823  0.00  0.00    +0.000 A 
ATOM     15  C   UNL     1     101.334 128.131  83.421  0.00  0.00    +0.000 A 
ATOM     16  C   UNL     1     100.415 129.148  83.657  0.00  0.00    +0.000 A 
ATOM     17  C   UNL     1      99.079 129.010  83.297  0.00  0.00    +0.000 A 
ATOM     18  F   UNL     1     100.824 130.282  84.241  0.00  0.00    +0.000 F 
ENDBRANCH   1  14
TORSDOF 2
ENDMDL
