MODEL 1
REMARK VINA RESULT:      -4.1      0.000      0.000
REMARK  Name = *****
REMARK  0 active torsions:
REMARK  status: ('A' for Active; 'I' for Inactive)
REMARK                            x       y       z     vdW  Elec       q    Type
REMARK                         _______ _______ _______ _____ _____    ______ ____
ROOT
ATOM      1  C   UNL     1      90.026  66.749  86.422  0.00  0.00    +0.000 C 
ATOM      2  C   UNL     1      89.952  68.243  86.063  0.00  0.00    +0.000 C 
ATOM      3  C   UNL     1      88.399  68.177  86.274  0.00  0.00    +0.000 C 
ATOM      4  C   UNL     1      88.545  66.634  86.018  0.00  0.00    +0.000 C 
ATOM      5  C   UNL     1      87.868  68.428  87.692  0.00  0.00    +0.000 C 
ATOM      6  S   UNL     1      88.187  70.090  88.332  0.00  0.00    +0.000 S 
ATOM      7  C   UNL     1      86.794  70.959  87.623  0.00  0.00    +0.000 A 
ATOM      8  C   UNL     1      85.851  71.483  88.520  0.00  0.00    +0.000 A 
ATOM      9  C   UNL     1      84.745  72.197  88.058  0.00  0.00    +0.000 A 
ATOM     10  C   UNL     1      84.577  72.407  86.693  0.00  0.00    +0.000 A 
ATOM     11  C   UNL     1      85.515  71.903  85.792  0.00  0.00    +0.000 A 
ATOM     12  C   UNL     1      86.625  71.172  86.243  0.00  0.00    +0.000 A 
ATOM     13  S   UNL     1      87.777  70.601  85.001  0.00  0.00    +0.000 S 
ATOM     14  C   UNL     1      87.548  68.815  85.172  0.00  0.00    +0.000 C 
ENDROOT
TORSDOF 0
ENDMDL
