REMARK  Name = *****
REMARK  4 active torsions:
REMARK  status: ('A' for Active; 'I' for Inactive)
REMARK    1  A    between atoms: C_4  and  C_7
REMARK    2  A    between atoms: C_7  and  C_9
REMARK    3  A    between atoms: C_9  and  C_10
REMARK    4  A    between atoms: C_10  and  C_11
REMARK                            x       y       z     vdW  Elec       q    Type
REMARK                         _______ _______ _______ _____ _____    ______ ____
ROOT
ATOM      1  C   UNL     1      -3.727  -0.706  -0.474  0.00  0.00    +0.000 C 
ENDROOT
BRANCH   1   2
ATOM      2  C   UNL     1      -2.776   0.473  -0.389  0.00  0.00    +0.000 C 
ATOM      3  O   UNL     1      -3.143   1.626  -0.611  0.00  0.00    +0.000 OA
BRANCH   2   7
ATOM      4  C   UNL     1       1.358  -0.163   0.604  0.00  0.00    +0.000 A 
ATOM      5  C   UNL     1       0.503  -1.259   0.504  0.00  0.00    +0.000 A 
ATOM      6  C   UNL     1      -0.845  -1.073   0.183  0.00  0.00    +0.000 A 
ATOM      7  C   UNL     1      -1.344   0.216  -0.039  0.00  0.00    +0.000 A 
ATOM      8  C   UNL     1      -0.476   1.313   0.062  0.00  0.00    +0.000 A 
ATOM      9  C   UNL     1       0.870   1.123   0.382  0.00  0.00    +0.000 A 
ENDBRANCH   2   7
ENDBRANCH   1   2
BRANCH   1  10
ATOM     10  C   UNL     1      -5.160  -0.254  -0.757  0.00  0.00    +0.000 C 
BRANCH  10  11
ATOM     11  C   UNL     1      -6.103  -1.429  -0.904  0.00  0.00    +0.000 A 
ATOM     12  C   UNL     1      -6.698  -2.075   0.194  0.00  0.00    +0.000 A 
ATOM     13  C   UNL     1      -7.549  -3.167   0.005  0.00  0.00    +0.000 A 
ATOM     14  C   UNL     1      -7.809  -3.625  -1.283  0.00  0.00    +0.000 A 
ATOM     15  C   UNL     1      -7.227  -3.005  -2.384  0.00  0.00    +0.000 A 
ATOM     16  C   UNL     1      -6.376  -1.914  -2.196  0.00  0.00    +0.000 A 
ATOM     17 CL   UNL     1      -8.855  -4.971  -1.517  0.00  0.00    +0.000 Cl
ATOM     18 CL   UNL     1      -6.407  -1.564   1.819  0.00  0.00    +0.000 Cl
ENDBRANCH  10  11
ENDBRANCH   1  10
TORSDOF 4
