MODEL 1
REMARK VINA RESULT:      -2.9      0.000      0.000
REMARK  Name = *****
REMARK  0 active torsions:
REMARK  status: ('A' for Active; 'I' for Inactive)
REMARK                            x       y       z     vdW  Elec       q    Type
REMARK                         _______ _______ _______ _____ _____    ______ ____
ROOT
ATOM      1  C   UNL     1      86.905  71.188  88.559  0.00  0.00    +0.000 C 
ATOM      2  C   UNL     1      85.920  70.392  88.975  0.00  0.00    +0.000 C 
ATOM      3  S   UNL     1      86.024  68.707  88.623  0.00  0.00    +0.000 S 
ATOM      4  C   UNL     1      87.571  68.842  87.778  0.00  0.00    +0.000 C 
ATOM      5  C   UNL     1      88.210  67.772  87.239  0.00  0.00    +0.000 C 
ATOM      6  S   UNL     1      89.760  67.909  86.395  0.00  0.00    +0.000 S 
ATOM      7  C   UNL     1      89.868  66.224  86.063  0.00  0.00    +0.000 A 
ATOM      8  C   UNL     1      88.882  65.426  86.479  0.00  0.00    +0.000 A 
ATOM      9  S   UNL     1      87.558  66.127  87.326  0.00  0.00    +0.000 S 
ATOM     10  S   UNL     1      89.014  63.739  86.135  0.00  0.00    +0.000 S 
ATOM     11  C   UNL     1      90.558  63.856  85.302  0.00  0.00    +0.000 A 
ATOM     12  O   UNL     1      91.139  62.892  84.827  0.00  0.00    +0.000 OA
ATOM     13  S   UNL     1      91.186  65.498  85.217  0.00  0.00    +0.000 S 
ATOM     14  S   UNL     1      88.220  70.484  87.695  0.00  0.00    +0.000 S 
ENDROOT
TORSDOF 0
ENDMDL
