MODEL 1
REMARK VINA RESULT:      -4.8      0.000      0.000
REMARK  Name = *****
REMARK  4 active torsions:
REMARK  status: ('A' for Active; 'I' for Inactive)
REMARK    1  A    between atoms: C_1  and  C_2
REMARK    2  A    between atoms: C_4  and  C_7
REMARK    3  A    between atoms: C_8  and  C_9
REMARK    4  A    between atoms: C_11  and  C_15
REMARK                            x       y       z     vdW  Elec       q    Type
REMARK                         _______ _______ _______ _____ _____    ______ ____
ROOT
ATOM      1  C   UNL     1     101.006 127.075  82.498  0.00  0.00    +0.000 A 
ATOM      2  C   UNL     1     101.317 128.258  83.176  0.00  0.00    +0.000 A 
ATOM      3  C   UNL     1     100.296 129.062  83.712  0.00  0.00    +0.000 A 
ATOM      4  C   UNL     1      98.962 128.649  83.570  0.00  0.00    +0.000 A 
ATOM      5  C   UNL     1      98.653 127.468  82.893  0.00  0.00    +0.000 A 
ATOM      6  C   UNL     1      99.674 126.683  82.356  0.00  0.00    +0.000 A 
ENDROOT
BRANCH   3   7
ATOM      7  C   UNL     1     100.629 130.326  84.464  0.00  0.00    +0.000 C 
ATOM      8  F   UNL     1     100.410 130.229  85.805  0.00  0.00    +0.000 F 
ATOM      9  F   UNL     1     101.933 130.697  84.328  0.00  0.00    +0.000 F 
ATOM     10  F   UNL     1      99.893 131.390  84.039  0.00  0.00    +0.000 F 
ENDBRANCH   3   7
BRANCH   1  12
ATOM     11  C   UNL     1     102.930 125.595  81.486  0.00  0.00    +0.000 C 
ATOM     12  C   UNL     1     102.054 126.270  81.953  0.00  0.00    +0.000 C 
BRANCH  11  16
ATOM     13  C   UNL     1     106.448 124.555  78.277  0.00  0.00    +0.000 C 
ATOM     14  C   UNL     1     105.541 124.389  79.443  0.00  0.00    +0.000 A 
ATOM     15  N   UNL     1     104.627 125.263  79.807  0.00  0.00    +0.000 NA
ATOM     16  C   UNL     1     103.967 124.797  80.923  0.00  0.00    +0.000 A 
ATOM     17  C   UNL     1     104.377 123.574  81.404  0.00  0.00    +0.000 A 
ATOM     18  S   UNL     1     105.647 122.974  80.420  0.00  0.00    +0.000 S 
ENDBRANCH  11  16
ENDBRANCH   1  12
TORSDOF 3
ENDMDL
