MODEL 1
REMARK VINA RESULT:      -4.8      0.000      0.000
REMARK  Name = *****
REMARK  3 active torsions:
REMARK  status: ('A' for Active; 'I' for Inactive)
REMARK    1  A    between atoms: C_4  and  C_7
REMARK    2  A    between atoms: C_8  and  C_9
REMARK    3  A    between atoms: C_12  and  C_15
REMARK                            x       y       z     vdW  Elec       q    Type
REMARK                         _______ _______ _______ _____ _____    ______ ____
ROOT
ATOM      1  C   UNL     1     103.929 124.366  81.760  0.00  0.00    +0.000 A 
ATOM      2  C   UNL     1     104.461 123.542  82.752  0.00  0.00    +0.000 A 
ATOM      3  C   UNL     1     105.463 122.619  82.433  0.00  0.00    +0.000 A 
ATOM      4  C   UNL     1     105.944 122.512  81.119  0.00  0.00    +0.000 A 
ATOM      5  C   UNL     1     105.404 123.344  80.128  0.00  0.00    +0.000 A 
ATOM      6  C   UNL     1     104.402 124.267  80.449  0.00  0.00    +0.000 A 
ENDROOT
BRANCH   4   7
ATOM      7  C   UNL     1     107.021 121.511  80.820  0.00  0.00    +0.000 C 
ATOM      8  O   UNL     1     107.923 121.864  80.060  0.00  0.00    +0.000 OA
ATOM      9 CL   UNL     1     106.958 119.918  81.544  0.00  0.00    +0.000 Cl
ENDBRANCH   4   7
BRANCH   1  11
ATOM     10  C   UNL     1     102.049 126.106  82.362  0.00  0.00    +0.000 C 
ATOM     11  C   UNL     1     102.907 125.311  82.085  0.00  0.00    +0.000 C 
BRANCH  10  15
ATOM     12  C   UNL     1      99.040 128.902  83.343  0.00  0.00    +0.000 A 
ATOM     13  C   UNL     1      98.702 127.713  82.696  0.00  0.00    +0.000 A 
ATOM     14  C   UNL     1      99.696 126.788  82.372  0.00  0.00    +0.000 A 
ATOM     15  C   UNL     1     101.029 127.052  82.694  0.00  0.00    +0.000 A 
ATOM     16  C   UNL     1     101.365 128.243  83.342  0.00  0.00    +0.000 A 
ATOM     17  C   UNL     1     100.371 129.167  83.666  0.00  0.00    +0.000 A 
ENDBRANCH  10  15
ENDBRANCH   1  11
TORSDOF 3
ENDMDL
