REMARK  Name = *****
REMARK  4 active torsions:
REMARK  status: ('A' for Active; 'I' for Inactive)
REMARK    1  A    between atoms: C_2  and  C_3
REMARK    2  A    between atoms: C_3  and  C_4
REMARK    3  A    between atoms: C_3  and  C_11
REMARK    4  A    between atoms: C_4  and  C_5
REMARK                            x       y       z     vdW  Elec       q    Type
REMARK                         _______ _______ _______ _____ _____    ______ ____
ROOT
ATOM      1  C   UNL     1       3.108   0.682   0.918  0.00  0.00    +0.000 C 
ENDROOT
BRANCH   1   2
ATOM      2  C   UNL     1       4.633   0.668   0.804  0.00  0.00    +0.000 A 
ATOM      3  C   UNL     1       5.323   1.833   0.432  0.00  0.00    +0.000 A 
ATOM      4  C   UNL     1       6.716   1.833   0.336  0.00  0.00    +0.000 A 
ATOM      5  C   UNL     1       7.436   0.673   0.610  0.00  0.00    +0.000 A 
ATOM      6  C   UNL     1       6.765  -0.491   0.979  0.00  0.00    +0.000 A 
ATOM      7  C   UNL     1       5.373  -0.494   1.077  0.00  0.00    +0.000 A 
ENDBRANCH   1   2
BRANCH   1   9
ATOM      8  C   UNL     1       1.801  -1.405   0.161  0.00  0.00    +0.000 C 
ATOM      9  C   UNL     1       2.501  -0.289  -0.083  0.00  0.00    +0.000 C 
ENDBRANCH   1   9
BRANCH   1  10
ATOM     10  C   UNL     1       2.698   0.528   2.408  0.00  0.00    +0.000 C 
BRANCH  10  11
ATOM     11  C   UNL     1       1.261   0.894   2.725  0.00  0.00    +0.000 A 
ATOM     12  C   UNL     1       0.406  -0.043   3.322  0.00  0.00    +0.000 A 
ATOM     13  C   UNL     1      -0.912   0.293   3.633  0.00  0.00    +0.000 A 
ATOM     14  C   UNL     1      -1.389   1.574   3.363  0.00  0.00    +0.000 A 
ATOM     15  C   UNL     1      -0.545   2.520   2.786  0.00  0.00    +0.000 A 
ATOM     16  C   UNL     1       0.774   2.185   2.474  0.00  0.00    +0.000 A 
ENDBRANCH  10  11
ENDBRANCH   1  10
TORSDOF 4
