MODEL 1
REMARK VINA RESULT:      -4.7      0.000      0.000
REMARK  Name = *****
REMARK  4 active torsions:
REMARK  status: ('A' for Active; 'I' for Inactive)
REMARK    1  A    between atoms: C_1  and  C_2
REMARK    2  A    between atoms: C_5  and  N_8
REMARK    3  A    between atoms: C_9  and  C_10
REMARK    4  A    between atoms: C_9  and  C_16
REMARK                            x       y       z     vdW  Elec       q    Type
REMARK                         _______ _______ _______ _____ _____    ______ ____
ROOT
ATOM      1  N   UNL     1      87.373  68.767  86.480  0.00  0.00    +0.000 NA
ATOM      2  C   UNL     1      87.654  69.918  87.034  0.00  0.00    +0.000 C 
ENDROOT
BRANCH   1   7
ATOM      3  C   UNL     1      91.500  65.077  85.078  0.00  0.00    +0.000 C 
ATOM      4  C   UNL     1      90.438  66.064  85.460  0.00  0.00    +0.000 A 
ATOM      5  C   UNL     1      89.664  65.863  86.608  0.00  0.00    +0.000 A 
ATOM      6  C   UNL     1      88.653  66.767  86.946  0.00  0.00    +0.000 A 
ATOM      7  C   UNL     1      88.404  67.883  86.146  0.00  0.00    +0.000 A 
ATOM      8  C   UNL     1      89.149  68.064  84.979  0.00  0.00    +0.000 A 
ATOM      9  C   UNL     1      90.161  67.164  84.637  0.00  0.00    +0.000 A 
ENDBRANCH   1   7
BRANCH   2  10
ATOM     10  C   UNL     1      86.504  70.843  87.291  0.00  0.00    +0.000 A 
ATOM     11  C   UNL     1      86.046  71.004  88.607  0.00  0.00    +0.000 A 
ATOM     12  C   UNL     1      84.970  71.849  88.881  0.00  0.00    +0.000 A 
ATOM     13  C   UNL     1      84.338  72.532  87.844  0.00  0.00    +0.000 A 
ATOM     14  C   UNL     1      84.777  72.366  86.531  0.00  0.00    +0.000 A 
ATOM     15  C   UNL     1      85.854  71.520  86.251  0.00  0.00    +0.000 A 
ENDBRANCH   2  10
BRANCH   2  16
ATOM     16  C   UNL     1      89.050  70.437  87.403  0.00  0.00    +0.000 C 
ATOM     17  F   UNL     1      89.020  71.364  88.404  0.00  0.00    +0.000 F 
ATOM     18  F   UNL     1      89.911  69.476  87.837  0.00  0.00    +0.000 F 
ATOM     19  F   UNL     1      89.651  71.050  86.344  0.00  0.00    +0.000 F 
ENDBRANCH   2  16
TORSDOF 3
ENDMDL
