MODEL 1
REMARK VINA RESULT:      -4.4      0.000      0.000
REMARK  Name = *****
REMARK  4 active torsions:
REMARK  status: ('A' for Active; 'I' for Inactive)
REMARK    1  A    between atoms: N_2  and  C_3
REMARK    2  A    between atoms: C_8  and  C_9
REMARK    3  A    between atoms: C_9  and  C_10
REMARK    4  A    between atoms: C_10  and  C_12
REMARK                            x       y       z     vdW  Elec       q    Type
REMARK                         _______ _______ _______ _____ _____    ______ ____
ROOT
ATOM      1  C   UNL     1     102.687 127.579  82.929  0.00  0.00    +0.000 C 
ENDROOT
BRANCH   1   7
ATOM      2  C   UNL     1     100.508 128.742  83.596  0.00  0.00    +0.000 A 
ATOM      3  C   UNL     1      99.113 128.817  83.623  0.00  0.00    +0.000 A 
ATOM      4  C   UNL     1      98.358 127.809  83.027  0.00  0.00    +0.000 A 
ATOM      5  C   UNL     1      99.000 126.742  82.405  0.00  0.00    +0.000 A 
ATOM      6  C   UNL     1     100.397 126.674  82.382  0.00  0.00    +0.000 A 
ATOM      7  C   UNL     1     101.180 127.668  82.995  0.00  0.00    +0.000 A 
BRANCH   2   9
ATOM      8  C   UNL     1     101.820 130.653  84.693  0.00  0.00    +0.000 C 
ATOM      9  N   UNL     1     101.212 129.784  84.192  0.00  0.00    +0.000 NA
ENDBRANCH   2   9
ENDBRANCH   1   7
BRANCH   1  10
ATOM     10  C   UNL     1     103.205 126.901  81.672  0.00  0.00    +0.000 C 
ATOM     11  O   UNL     1     103.185 127.492  80.590  0.00  0.00    +0.000 OA
BRANCH  10  12
ATOM     12  C   UNL     1     103.717 125.496  81.728  0.00  0.00    +0.000 A 
ATOM     13  C   UNL     1     103.775 124.752  82.912  0.00  0.00    +0.000 A 
ATOM     14  C   UNL     1     104.265 123.442  82.897  0.00  0.00    +0.000 A 
ATOM     15  C   UNL     1     104.699 122.867  81.705  0.00  0.00    +0.000 A 
ATOM     16  C   UNL     1     104.646 123.599  80.522  0.00  0.00    +0.000 A 
ATOM     17  C   UNL     1     104.157 124.908  80.533  0.00  0.00    +0.000 A 
ENDBRANCH  10  12
ENDBRANCH   1  10
TORSDOF 4
ENDMDL
