MODEL 1
REMARK VINA RESULT:      -4.9      0.000      0.000
REMARK  Name = *****
REMARK  5 active torsions:
REMARK  status: ('A' for Active; 'I' for Inactive)
REMARK    1  A    between atoms: C_1  and  O_2
REMARK    2  A    between atoms: O_2  and  C_3
REMARK    3  A    between atoms: C_3  and  C_5
REMARK    4  A    between atoms: C_9  and  C_11
REMARK    5  A    between atoms: C_12  and  C_13
REMARK                            x       y       z     vdW  Elec       q    Type
REMARK                         _______ _______ _______ _____ _____    ______ ____
ROOT
ATOM      1  C   UNL     1     104.939 123.064  80.919  0.00  0.00    +0.000 A 
ATOM      2  C   UNL     1     105.844 123.376  79.897  0.00  0.00    +0.000 A 
ATOM      3  C   UNL     1     105.817 124.639  79.304  0.00  0.00    +0.000 A 
ATOM      4  C   UNL     1     104.884 125.591  79.722  0.00  0.00    +0.000 A 
ATOM      5  C   UNL     1     103.960 125.290  80.731  0.00  0.00    +0.000 A 
ATOM      6  C   UNL     1     104.005 124.026  81.334  0.00  0.00    +0.000 A 
ENDROOT
BRANCH   1   7
ATOM      7  C   UNL     1     104.928 121.739  81.597  0.00  0.00    +0.000 C 
ATOM      8  O   UNL     1     104.268 120.788  81.210  0.00  0.00    +0.000 OA
BRANCH   7  10
ATOM      9  C   UNL     1     106.117 120.449  83.138  0.00  0.00    +0.000 C 
ATOM     10  O   UNL     1     105.741 121.749  82.683  0.00  0.00    +0.000 OA
ENDBRANCH   7  10
ENDBRANCH   1   7
BRANCH   5  11
ATOM     11  C   UNL     1     102.986 126.276  81.223  0.00  0.00    +0.000 C 
ATOM     12  C   UNL     1     102.014 125.994  82.105  0.00  0.00    +0.000 C 
BRANCH  12  13
ATOM     13  C   UNL     1     101.052 126.987  82.607  0.00  0.00    +0.000 A 
ATOM     14  C   UNL     1     101.458 128.154  83.267  0.00  0.00    +0.000 A 
ATOM     15  C   UNL     1     100.515 129.090  83.700  0.00  0.00    +0.000 A 
ATOM     16  C   UNL     1      99.158 128.874  83.467  0.00  0.00    +0.000 A 
ATOM     17  C   UNL     1      98.743 127.726  82.797  0.00  0.00    +0.000 A 
ATOM     18  C   UNL     1      99.686 126.790  82.364  0.00  0.00    +0.000 A 
ENDBRANCH  12  13
ENDBRANCH   5  11
TORSDOF 4
ENDMDL
