MODEL 1
REMARK VINA RESULT:      -4.8      0.000      0.000
REMARK  Name = *****
REMARK  4 active torsions:
REMARK  status: ('A' for Active; 'I' for Inactive)
REMARK    1  A    between atoms: C_3  and  C_11
REMARK    2  A    between atoms: C_5  and  C_7
REMARK    3  A    between atoms: C_12  and  C_13
REMARK    4  A    between atoms: C_15  and  C_18
REMARK                            x       y       z     vdW  Elec       q    Type
REMARK                         _______ _______ _______ _____ _____    ______ ____
ROOT
ATOM      1  C   UNL     1     105.806 125.326  79.452  0.00  0.00    +0.000 A 
ATOM      2  C   UNL     1     104.792 126.152  79.941  0.00  0.00    +0.000 A 
ATOM      3  C   UNL     1     103.807 125.643  80.797  0.00  0.00    +0.000 A 
ATOM      4  C   UNL     1     103.873 124.296  81.178  0.00  0.00    +0.000 A 
ATOM      5  C   UNL     1     104.889 123.454  80.694  0.00  0.00    +0.000 A 
ATOM      6  C   UNL     1     105.853 123.984  79.823  0.00  0.00    +0.000 A 
ENDROOT
BRANCH   5   7
ATOM      7  C   UNL     1     104.952 122.000  81.091  0.00  0.00    +0.000 C 
ATOM      8  F   UNL     1     106.184 121.442  80.929  0.00  0.00    +0.000 F 
ATOM      9  F   UNL     1     104.623 121.804  82.398  0.00  0.00    +0.000 F 
ATOM     10  F   UNL     1     104.095 121.224  80.371  0.00  0.00    +0.000 F 
ENDBRANCH   5   7
BRANCH   3  11
ATOM     11  C   UNL     1     102.741 126.484  81.356  0.00  0.00    +0.000 C 
ATOM     12  C   UNL     1     101.715 126.013  82.082  0.00  0.00    +0.000 C 
BRANCH  12  13
ATOM     13  C   UNL     1     100.719 126.884  82.606  0.00  0.00    +0.000 A 
ATOM     14  N   UNL     1     100.898 127.890  83.455  0.00  0.00    +0.000 NA
ATOM     15  C   UNL     1      99.649 128.440  83.655  0.00  0.00    +0.000 A 
ATOM     16  C   UNL     1      98.730 127.728  82.926  0.00  0.00    +0.000 A 
ATOM     17  O   UNL     1      99.387 126.746  82.257  0.00  0.00    +0.000 OA
BRANCH  15  18
ATOM     18  C   UNL     1      99.447 129.592  84.563  0.00  0.00    +0.000 C 
ATOM     19 CL   UNL     1      99.399 131.103  83.628  0.00  0.00    +0.000 Cl
ENDBRANCH  15  18
ENDBRANCH  12  13
ENDBRANCH   3  11
TORSDOF 4
ENDMDL
