MODEL 1
REMARK VINA RESULT:      -4.7      0.000      0.000
REMARK  Name = *****
REMARK  5 active torsions:
REMARK  status: ('A' for Active; 'I' for Inactive)
REMARK    1  A    between atoms: C_1  and  C_2
REMARK    2  A    between atoms: C_4  and  C_8
REMARK    3  A    between atoms: C_8  and  C_10
REMARK    4  A    between atoms: C_10  and  C_11
REMARK    5  A    between atoms: C_11  and  C_12
REMARK                            x       y       z     vdW  Elec       q    Type
REMARK                         _______ _______ _______ _____ _____    ______ ____
ROOT
ATOM      1  C   UNL     1      89.356  70.050  86.381  0.00  0.00    +0.000 C 
ATOM      2  O   UNL     1      90.018  70.830  85.698  0.00  0.00    +0.000 OA
ENDROOT
BRANCH   1   6
ATOM      3  C   UNL     1      84.769  72.174  86.734  0.00  0.00    +0.000 C 
ATOM      4  C   UNL     1      85.998  71.589  87.366  0.00  0.00    +0.000 A 
ATOM      5  C   UNL     1      87.058  71.112  86.579  0.00  0.00    +0.000 A 
ATOM      6  C   UNL     1      88.204  70.570  87.179  0.00  0.00    +0.000 A 
ATOM      7  C   UNL     1      88.282  70.509  88.577  0.00  0.00    +0.000 A 
ATOM      8  C   UNL     1      87.232  70.983  89.364  0.00  0.00    +0.000 A 
ATOM      9  C   UNL     1      86.096  71.520  88.762  0.00  0.00    +0.000 A 
ENDBRANCH   1   6
BRANCH   1  10
ATOM     10  C   UNL     1      89.672  68.567  86.441  0.00  0.00    +0.000 C 
BRANCH  10  11
ATOM     11  C   UNL     1      88.475  67.716  86.018  0.00  0.00    +0.000 C 
BRANCH  11  12
ATOM     12  C   UNL     1      88.068  66.759  87.113  0.00  0.00    +0.000 A 
ATOM     13  C   UNL     1      86.997  67.066  87.962  0.00  0.00    +0.000 A 
ATOM     14  C   UNL     1      86.636  66.191  88.990  0.00  0.00    +0.000 A 
ATOM     15  C   UNL     1      87.348  65.009  89.174  0.00  0.00    +0.000 A 
ATOM     16  C   UNL     1      88.419  64.693  88.340  0.00  0.00    +0.000 A 
ATOM     17  C   UNL     1      88.780  65.567  87.313  0.00  0.00    +0.000 A 
ATOM     18 CL   UNL     1      86.906  63.933  90.442  0.00  0.00    +0.000 Cl
ENDBRANCH  11  12
ENDBRANCH  10  11
ENDBRANCH   1  10
TORSDOF 4
ENDMDL
