MODEL 1
REMARK VINA RESULT:      -4.5      0.000      0.000
REMARK  Name = *****
REMARK  4 active torsions:
REMARK  status: ('A' for Active; 'I' for Inactive)
REMARK    1  A    between atoms: C_4  and  C_8
REMARK    2  A    between atoms: C_8  and  O_10
REMARK    3  A    between atoms: O_10  and  C_11
REMARK    4  A    between atoms: C_11  and  C_12
REMARK                            x       y       z     vdW  Elec       q    Type
REMARK                         _______ _______ _______ _____ _____    ______ ____
ROOT
ATOM      1  C   UNL     1     103.604 125.179  81.268  0.00  0.00    +0.000 C 
ATOM      2  O   UNL     1     104.002 124.085  81.649  0.00  0.00    +0.000 OA
ENDROOT
BRANCH   1   6
ATOM      3  C   UNL     1     104.867 127.889  82.160  0.00  0.00    +0.000 C 
ATOM      4  C   UNL     1     104.402 128.601  80.886  0.00  0.00    +0.000 C 
ATOM      5  C   UNL     1     103.610 127.478  80.177  0.00  0.00    +0.000 C 
ATOM      6  C   UNL     1     104.442 126.207  80.515  0.00  0.00    +0.000 C 
ATOM      7  C   UNL     1     105.592 126.777  81.386  0.00  0.00    +0.000 C 
ATOM      8  C   UNL     1     106.462 127.655  80.508  0.00  0.00    +0.000 C 
ATOM      9  C   UNL     1     105.739 128.743  80.199  0.00  0.00    +0.000 C 
ATOM     10  F   UNL     1     104.955 125.672  79.368  0.00  0.00    +0.000 F 
ENDBRANCH   1   6
BRANCH   1  11
ATOM     11  O   UNL     1     102.353 125.674  81.487  0.00  0.00    +0.000 OA
BRANCH  11  12
ATOM     12  C   UNL     1     101.978 125.842  82.859  0.00  0.00    +0.000 C 
BRANCH  12  13
ATOM     13  C   UNL     1     100.982 126.967  82.966  0.00  0.00    +0.000 A 
ATOM     14  C   UNL     1     101.348 128.182  83.563  0.00  0.00    +0.000 A 
ATOM     15  C   UNL     1     100.419 129.217  83.684  0.00  0.00    +0.000 A 
ATOM     16  C   UNL     1      99.117 129.045  83.219  0.00  0.00    +0.000 A 
ATOM     17  C   UNL     1      98.740 127.837  82.635  0.00  0.00    +0.000 A 
ATOM     18  C   UNL     1      99.668 126.800  82.512  0.00  0.00    +0.000 A 
ENDBRANCH  12  13
ENDBRANCH  11  12
ENDBRANCH   1  11
TORSDOF 4
ENDMDL
