REMARK  Name = *****
REMARK  5 active torsions:
REMARK  status: ('A' for Active; 'I' for Inactive)
REMARK    1  A    between atoms: C_1  and  C_2
REMARK    2  A    between atoms: C_2  and  C_3
REMARK    3  A    between atoms: C_3  and  C_4
REMARK    4  A    between atoms: C_3  and  C_11
REMARK    5  A    between atoms: C_4  and  C_5
REMARK                            x       y       z     vdW  Elec       q    Type
REMARK                         _______ _______ _______ _____ _____    ______ ____
ROOT
ATOM      1  C   UNL     1       3.165  -1.411   0.668  0.00  0.00    +0.000 C 
ENDROOT
BRANCH   1   2
ATOM      2  C   UNL     1       4.615  -1.886   0.327  0.00  0.00    +0.000 C 
ATOM      3  S   UNL     1       5.977  -0.789   0.898  0.00  0.00    +0.000 S 
ATOM      4  C   UNL     1       5.796  -0.962   2.694  0.00  0.00    +0.000 C 
ATOM      5  C   UNL     1       6.021  -2.389   3.174  0.00  0.00    +0.000 C 
ATOM      6  C   UNL     1       4.984  -3.385   2.676  0.00  0.00    +0.000 C 
ATOM      7  S   UNL     1       5.007  -3.600   0.874  0.00  0.00    +0.000 S 
ENDBRANCH   1   2
BRANCH   1   9
ATOM      8  C   UNL     1       1.602   0.639   0.812  0.00  0.00    +0.000 C 
ATOM      9  C   UNL     1       2.925   0.079   0.299  0.00  0.00    +0.000 C 
ENDBRANCH   1   9
BRANCH   1  10
ATOM     10  C   UNL     1       2.068  -2.350   0.079  0.00  0.00    +0.000 C 
BRANCH  10  11
ATOM     11  C   UNL     1       2.039  -2.510  -1.425  0.00  0.00    +0.000 A 
ATOM     12  C   UNL     1       2.667  -3.604  -2.037  0.00  0.00    +0.000 A 
ATOM     13  C   UNL     1       2.648  -3.758  -3.425  0.00  0.00    +0.000 A 
ATOM     14  C   UNL     1       1.990  -2.824  -4.221  0.00  0.00    +0.000 A 
ATOM     15  C   UNL     1       1.347  -1.741  -3.628  0.00  0.00    +0.000 A 
ATOM     16  C   UNL     1       1.367  -1.588  -2.239  0.00  0.00    +0.000 A 
ENDBRANCH  10  11
ENDBRANCH   1  10
TORSDOF 4
