MODEL 1
REMARK VINA RESULT:      -5.1      0.000      0.000
REMARK  Name = *****
REMARK  3 active torsions:
REMARK  status: ('A' for Active; 'I' for Inactive)
REMARK    1  A    between atoms: C_4  and  N_7
REMARK    2  A    between atoms: N_7  and  C_8
REMARK    3  A    between atoms: N_7  and  N_18
REMARK                            x       y       z     vdW  Elec       q    Type
REMARK                         _______ _______ _______ _____ _____    ______ ____
ROOT
ATOM      1  C   UNL     1      88.004  70.628  86.304  0.00  0.00    +0.000 A 
ATOM      2  C   UNL     1      88.866  70.203  87.336  0.00  0.00    +0.000 A 
ATOM      3  C   UNL     1      88.525  70.392  88.671  0.00  0.00    +0.000 A 
ATOM      4  C   UNL     1      87.319  71.006  88.995  0.00  0.00    +0.000 A 
ATOM      5  C   UNL     1      86.427  71.429  87.997  0.00  0.00    +0.000 A 
ATOM      6  C   UNL     1      85.212  72.036  88.351  0.00  0.00    +0.000 A 
ATOM      7  C   UNL     1      84.303  72.448  87.378  0.00  0.00    +0.000 A 
ATOM      8  C   UNL     1      84.594  72.250  86.036  0.00  0.00    +0.000 A 
ATOM      9  C   UNL     1      85.799  71.647  85.667  0.00  0.00    +0.000 A 
ATOM     10  C   UNL     1      86.752  71.235  86.630  0.00  0.00    +0.000 A 
ENDROOT
BRANCH   1  11
ATOM     11  N   UNL     1      88.426  70.451  84.932  0.00  0.00    +0.000 N 
BRANCH  11  15
ATOM     12  C   UNL     1      91.154  73.175  83.072  0.00  0.00    +0.000 A 
ATOM     13  C   UNL     1      89.835  73.553  83.293  0.00  0.00    +0.000 A 
ATOM     14  C   UNL     1      88.942  72.667  83.906  0.00  0.00    +0.000 A 
ATOM     15  C   UNL     1      89.347  71.379  84.310  0.00  0.00    +0.000 A 
ATOM     16  C   UNL     1      90.693  71.026  84.078  0.00  0.00    +0.000 A 
ATOM     17  C   UNL     1      91.585  71.912  83.464  0.00  0.00    +0.000 A 
ENDBRANCH  11  15
BRANCH  11  18
ATOM     18  N   UNL     1      88.093  69.311  84.247  0.00  0.00    +0.000 NA
ATOM     19  O   UNL     1      87.339  69.483  83.281  0.00  0.00    +0.000 OA
ENDBRANCH  11  18
ENDBRANCH   1  11
TORSDOF 3
ENDMDL
