MODEL 1
REMARK VINA RESULT:      -5.1      0.000      0.000
REMARK  Name = *****
REMARK  2 active torsions:
REMARK  status: ('A' for Active; 'I' for Inactive)
REMARK    1  A    between atoms: C_1  and  C_2
REMARK    2  A    between atoms: C_11  and  C_13
REMARK                            x       y       z     vdW  Elec       q    Type
REMARK                         _______ _______ _______ _____ _____    ______ ____
ROOT
ATOM      1  C   UNL     1     105.007 127.372  84.163  0.00  0.00    +0.000 C 
ATOM      2  C   UNL     1     103.484 127.299  84.237  0.00  0.00    +0.000 C 
ATOM      3  C   UNL     1     102.847 128.379  83.356  0.00  0.00    +0.000 C 
ATOM      4  C   UNL     1     101.370 128.159  83.196  0.00  0.00    +0.000 A 
ATOM      5  C   UNL     1     100.436 129.084  83.681  0.00  0.00    +0.000 A 
ATOM      6  C   UNL     1      99.071 128.855  83.514  0.00  0.00    +0.000 A 
ATOM      7  C   UNL     1      98.633 127.706  82.858  0.00  0.00    +0.000 A 
ATOM      8  C   UNL     1      99.563 126.785  82.374  0.00  0.00    +0.000 A 
ATOM      9  C   UNL     1     100.933 126.995  82.547  0.00  0.00    +0.000 A 
ATOM     10  N   UNL     1     101.826 126.057  82.008  0.00  0.00    +0.000 NA
ATOM     11  C   UNL     1     102.787 125.576  82.731  0.00  0.00    +0.000 C 
ATOM     12  O   UNL     1     103.085 125.939  83.997  0.00  0.00    +0.000 OA
ATOM     13  F   UNL     1     103.144 127.557  85.536  0.00  0.00    +0.000 F 
ENDROOT
BRANCH  11  14
ATOM     14  C   UNL     1     103.690 124.499  82.252  0.00  0.00    +0.000 A 
ATOM     15  C   UNL     1     104.186 123.571  83.177  0.00  0.00    +0.000 A 
ATOM     16  C   UNL     1     105.029 122.539  82.759  0.00  0.00    +0.000 A 
ATOM     17  C   UNL     1     105.383 122.431  81.415  0.00  0.00    +0.000 A 
ATOM     18  C   UNL     1     104.899 123.353  80.488  0.00  0.00    +0.000 A 
ATOM     19  C   UNL     1     104.055 124.387  80.903  0.00  0.00    +0.000 A 
ENDBRANCH  11  14
TORSDOF 1
ENDMDL
