MODEL 1
REMARK VINA RESULT:      -4.6      0.000      0.000
REMARK  Name = *****
REMARK  3 active torsions:
REMARK  status: ('A' for Active; 'I' for Inactive)
REMARK    1  A    between atoms: C_4  and  C_7
REMARK    2  A    between atoms: C_8  and  C_9
REMARK    3  A    between atoms: C_9  and  C_10
REMARK                            x       y       z     vdW  Elec       q    Type
REMARK                         _______ _______ _______ _____ _____    ______ ____
ROOT
ATOM      1  C   UNL     1      90.013  68.011  86.471  0.00  0.00    +0.000 C 
ATOM      2  C   UNL     1      89.665  68.903  85.530  0.00  0.00    +0.000 C 
ENDROOT
BRANCH   1   6
ATOM      3  C   UNL     1      90.250  63.810  85.699  0.00  0.00    +0.000 A 
ATOM      4  C   UNL     1      89.198  64.309  86.465  0.00  0.00    +0.000 A 
ATOM      5  C   UNL     1      89.113  65.679  86.730  0.00  0.00    +0.000 A 
ATOM      6  C   UNL     1      90.086  66.561  86.243  0.00  0.00    +0.000 A 
ATOM      7  C   UNL     1      91.130  66.049  85.462  0.00  0.00    +0.000 A 
ATOM      8  C   UNL     1      91.215  64.680  85.196  0.00  0.00    +0.000 A 
ENDBRANCH   1   6
BRANCH   2   9
ATOM      9  C   UNL     1      89.588  70.385  85.771  0.00  0.00    +0.000 C 
BRANCH   9  10
ATOM     10  C   UNL     1      88.224  70.816  86.248  0.00  0.00    +0.000 A 
ATOM     11  C   UNL     1      87.257  71.269  85.339  0.00  0.00    +0.000 A 
ATOM     12  C   UNL     1      85.991  71.659  85.786  0.00  0.00    +0.000 A 
ATOM     13  C   UNL     1      85.678  71.599  87.144  0.00  0.00    +0.000 A 
ATOM     14  C   UNL     1      86.629  71.148  88.055  0.00  0.00    +0.000 A 
ATOM     15  C   UNL     1      87.888  70.759  87.604  0.00  0.00    +0.000 A 
ATOM     16  F   UNL     1      88.786  70.323  88.500  0.00  0.00    +0.000 F 
ENDBRANCH   9  10
ENDBRANCH   2   9
TORSDOF 3
ENDMDL
