MODEL 1
REMARK VINA RESULT:      -4.9      0.000      0.000
REMARK  Name = *****
REMARK  3 active torsions:
REMARK  status: ('A' for Active; 'I' for Inactive)
REMARK    1  A    between atoms: C_4  and  C_16
REMARK    2  A    between atoms: C_5  and  C_7
REMARK    3  A    between atoms: C_8  and  C_9
REMARK                            x       y       z     vdW  Elec       q    Type
REMARK                         _______ _______ _______ _____ _____    ______ ____
ROOT
ATOM      1  C   UNL     1     101.809 127.617  83.002  0.00  0.00    +0.000 C 
ATOM      2  C   UNL     1     102.428 126.705  82.525  0.00  0.00    +0.000 C 
ENDROOT
BRANCH   2   3
ATOM      3  C   UNL     1     103.193 125.649  81.939  0.00  0.00    +0.000 A 
ATOM      4  C   UNL     1     103.609 124.571  82.727  0.00  0.00    +0.000 A 
ATOM      5  C   UNL     1     104.374 123.549  82.162  0.00  0.00    +0.000 A 
ATOM      6  C   UNL     1     104.717 123.614  80.815  0.00  0.00    +0.000 A 
ATOM      7  C   UNL     1     104.305 124.679  80.022  0.00  0.00    +0.000 A 
ATOM      8  C   UNL     1     103.540 125.702  80.585  0.00  0.00    +0.000 A 
ATOM      9  F   UNL     1     105.456 122.637  80.274  0.00  0.00    +0.000 F 
ENDBRANCH   2   3
BRANCH   1  14
ATOM     10  C   UNL     1     101.160 130.810  84.806  0.00  0.00    +0.000 A 
ATOM     11  C   UNL     1      99.776 130.922  84.695  0.00  0.00    +0.000 A 
ATOM     12  C   UNL     1      99.049 129.947  84.012  0.00  0.00    +0.000 A 
ATOM     13  C   UNL     1      99.705 128.848  83.437  0.00  0.00    +0.000 A 
ATOM     14  C   UNL     1     101.098 128.734  83.552  0.00  0.00    +0.000 A 
ATOM     15  C   UNL     1     101.821 129.720  84.236  0.00  0.00    +0.000 A 
BRANCH  13  16
ATOM     16  C   UNL     1      98.926 127.862  82.742  0.00  0.00    +0.000 C 
ATOM     17  N   UNL     1      98.311 127.056  82.176  0.00  0.00    +0.000 NA
ENDBRANCH  13  16
ENDBRANCH   1  14
TORSDOF 3
ENDMDL
