MODEL 1
REMARK VINA RESULT:      -4.5      0.000      0.000
REMARK  Name = *****
REMARK  4 active torsions:
REMARK  status: ('A' for Active; 'I' for Inactive)
REMARK    1  A    between atoms: C_1  and  C_2
REMARK    2  A    between atoms: C_4  and  C_8
REMARK    3  A    between atoms: C_8  and  O_10
REMARK    4  A    between atoms: O_10  and  C_11
REMARK                            x       y       z     vdW  Elec       q    Type
REMARK                         _______ _______ _______ _____ _____    ______ ____
ROOT
ATOM      1  C   UNL     1     102.351 126.245  83.152  0.00  0.00    +0.000 C 
ATOM      2  O   UNL     1     102.430 125.201  83.778  0.00  0.00    +0.000 OA
ENDROOT
BRANCH   1   6
ATOM      3  C   UNL     1     100.052 130.546  84.238  0.00  0.00    +0.000 C 
ATOM      4  C   UNL     1     100.021 129.189  83.602  0.00  0.00    +0.000 A 
ATOM      5  C   UNL     1     101.150 128.358  83.645  0.00  0.00    +0.000 A 
ATOM      6  C   UNL     1     101.117 127.074  83.081  0.00  0.00    +0.000 A 
ATOM      7  C   UNL     1      99.937 126.615  82.483  0.00  0.00    +0.000 A 
ATOM      8  C   UNL     1      98.806 127.432  82.450  0.00  0.00    +0.000 A 
ATOM      9  C   UNL     1      98.847 128.709  83.010  0.00  0.00    +0.000 A 
ENDBRANCH   1   6
BRANCH   1  10
ATOM     10  O   UNL     1     103.353 126.824  82.447  0.00  0.00    +0.000 OA
BRANCH  10  11
ATOM     11  C   UNL     1     103.158 126.914  81.018  0.00  0.00    +0.000 C 
ATOM     12  C   UNL     1     103.267 125.513  80.401  0.00  0.00    +0.000 C 
ATOM     13  C   UNL     1     104.667 124.918  80.580  0.00  0.00    +0.000 C 
ATOM     14  C   UNL     1     105.755 125.847  80.046  0.00  0.00    +0.000 C 
ATOM     15  C   UNL     1     105.646 127.252  80.632  0.00  0.00    +0.000 C 
ATOM     16  C   UNL     1     104.246 127.823  80.433  0.00  0.00    +0.000 C 
ATOM     17  F   UNL     1     104.186 129.046  81.030  0.00  0.00    +0.000 F 
ENDBRANCH  10  11
ENDBRANCH   1  10
TORSDOF 3
ENDMDL
