MODEL 1
REMARK VINA RESULT:      -4.6      0.000      0.000
REMARK  Name = *****
REMARK  2 active torsions:
REMARK  status: ('A' for Active; 'I' for Inactive)
REMARK    1  A    between atoms: C_4  and  C_7
REMARK    2  A    between atoms: C_7  and  N_8
REMARK                            x       y       z     vdW  Elec       q    Type
REMARK                         _______ _______ _______ _____ _____    ______ ____
ROOT
ATOM      1  N   UNL     1      88.684  65.032  86.671  0.00  0.00    +0.000 N 
ATOM      2  C   UNL     1      88.770  66.438  86.751  0.00  0.00    +0.000 A 
ATOM      3  C   UNL     1      89.833  66.956  86.008  0.00  0.00    +0.000 A 
ATOM      4  C   UNL     1      90.091  68.317  85.954  0.00  0.00    +0.000 A 
ATOM      5  C   UNL     1      89.253  69.170  86.668  0.00  0.00    +0.000 A 
ATOM      6  C   UNL     1      88.184  68.666  87.419  0.00  0.00    +0.000 A 
ATOM      7  C   UNL     1      87.935  67.289  87.465  0.00  0.00    +0.000 A 
ATOM      8 CL   UNL     1      89.536  70.868  86.630  0.00  0.00    +0.000 Cl
ATOM      9  S   UNL     1      90.731  65.662  85.204  0.00  0.00    +0.000 S 
ATOM     10  C   UNL     1      89.648  64.430  85.876  0.00  0.00    +0.000 A 
ATOM     11  O   UNL     1      89.776  63.239  85.637  0.00  0.00    +0.000 OA
ENDROOT
BRANCH   1  12
ATOM     12  C   UNL     1      87.652  64.247  87.320  0.00  0.00    +0.000 C 
BRANCH  12  16
ATOM     13  C   UNL     1      88.017  64.186  91.625  0.00  0.00    +0.000 A 
ATOM     14  C   UNL     1      89.104  63.831  90.828  0.00  0.00    +0.000 A 
ATOM     15  C   UNL     1      88.987  63.851  89.438  0.00  0.00    +0.000 A 
ATOM     16  C   UNL     1      87.779  64.220  88.827  0.00  0.00    +0.000 A 
ATOM     17  C   UNL     1      86.698  64.589  89.641  0.00  0.00    +0.000 A 
ATOM     18  C   UNL     1      86.816  64.568  91.032  0.00  0.00    +0.000 A 
ENDBRANCH  12  16
ENDBRANCH   1  12
TORSDOF 2
ENDMDL
