MODEL 1
REMARK VINA RESULT:      -4.9      0.000      0.000
REMARK  Name = *****
REMARK  1 active torsions:
REMARK  status: ('A' for Active; 'I' for Inactive)
REMARK    1  A    between atoms: N_10  and  C_11
REMARK                            x       y       z     vdW  Elec       q    Type
REMARK                         _______ _______ _______ _____ _____    ______ ____
ROOT
ATOM      1  C   UNL     1     103.134 125.066  82.357  0.00  0.00    +0.000 C 
ATOM      2  C   UNL     1     104.119 124.536  81.361  0.00  0.00    +0.000 A 
ATOM      3  C   UNL     1     104.547 123.220  81.231  0.00  0.00    +0.000 A 
ATOM      4  C   UNL     1     105.481 122.913  80.238  0.00  0.00    +0.000 A 
ATOM      5  C   UNL     1     105.976 123.915  79.393  0.00  0.00    +0.000 A 
ATOM      6  C   UNL     1     105.545 125.235  79.538  0.00  0.00    +0.000 A 
ATOM      7  C   UNL     1     104.624 125.529  80.535  0.00  0.00    +0.000 A 
ATOM      8  S   UNL     1     103.962 127.139  80.907  0.00  0.00    +0.000 S 
ATOM      9  O   UNL     1     103.333 127.614  79.633  0.00  0.00    +0.000 OA
ATOM     10  N   UNL     1     102.824 126.449  81.968  0.00  0.00    +0.000 N 
ENDROOT
BRANCH  10  11
ATOM     11  C   UNL     1     101.736 127.165  82.520  0.00  0.00    +0.000 A 
ATOM     12  C   UNL     1     100.416 126.694  82.313  0.00  0.00    +0.000 A 
ATOM     13  C   UNL     1      99.278 127.330  82.828  0.00  0.00    +0.000 A 
ATOM     14  C   UNL     1      99.411 128.481  83.583  0.00  0.00    +0.000 A 
ATOM     15  C   UNL     1     100.682 128.989  83.813  0.00  0.00    +0.000 A 
ATOM     16  C   UNL     1     101.827 128.352  83.293  0.00  0.00    +0.000 A 
ATOM     17 CL   UNL     1     103.299 129.204  83.638  0.00  0.00    +0.000 Cl
ENDBRANCH  10  11
TORSDOF 1
ENDMDL
