MODEL 1
REMARK VINA RESULT:      -4.7      0.000      0.000
REMARK  Name = *****
REMARK  3 active torsions:
REMARK  status: ('A' for Active; 'I' for Inactive)
REMARK    1  A    between atoms: C_3  and  C_11
REMARK    2  A    between atoms: N_4  and  C_5
REMARK    3  A    between atoms: C_11  and  C_12
REMARK                            x       y       z     vdW  Elec       q    Type
REMARK                         _______ _______ _______ _____ _____    ______ ____
ROOT
ATOM      1  C   UNL     1     103.716 127.055  80.085  0.00  0.00    +0.000 C 
ATOM      2  C   UNL     1     103.737 126.469  81.261  0.00  0.00    +0.000 C 
ATOM      3  C   UNL     1     103.144 126.388  82.545  0.00  0.00    +0.000 C 
ATOM      4  N   UNL     1     104.296 125.539  82.033  0.00  0.00    +0.000 N 
ENDROOT
BRANCH   4   5
ATOM      5  C   UNL     1     104.128 124.104  81.820  0.00  0.00    +0.000 C 
ATOM      6  C   UNL     1     104.629 123.367  83.074  0.00  0.00    +0.000 C 
ATOM      7  C   UNL     1     104.567 121.852  82.897  0.00  0.00    +0.000 C 
ATOM      8  C   UNL     1     105.350 121.402  81.668  0.00  0.00    +0.000 C 
ATOM      9  C   UNL     1     104.897 122.139  80.412  0.00  0.00    +0.000 C 
ATOM     10  C   UNL     1     104.945 123.655  80.596  0.00  0.00    +0.000 C 
ENDBRANCH   4   5
BRANCH   3  11
ATOM     11  C   UNL     1     101.711 125.965  82.658  0.00  0.00    +0.000 C 
BRANCH  11  12
ATOM     12  C   UNL     1     100.788 127.131  82.922  0.00  0.00    +0.000 A 
ATOM     13  C   UNL     1     101.268 128.309  83.514  0.00  0.00    +0.000 A 
ATOM     14  C   UNL     1     100.412 129.388  83.745  0.00  0.00    +0.000 A 
ATOM     15  C   UNL     1      99.069 129.304  83.384  0.00  0.00    +0.000 A 
ATOM     16  C   UNL     1      98.581 128.143  82.789  0.00  0.00    +0.000 A 
ATOM     17  C   UNL     1      99.436 127.064  82.555  0.00  0.00    +0.000 A 
ENDBRANCH  11  12
ENDBRANCH   3  11
TORSDOF 3
ENDMDL
