MODEL 1
REMARK VINA RESULT:      -4.8      0.000      0.000
REMARK  Name = *****
REMARK  2 active torsions:
REMARK  status: ('A' for Active; 'I' for Inactive)
REMARK    1  A    between atoms: C_4  and  C_7
REMARK    2  A    between atoms: C_8  and  C_9
REMARK                            x       y       z     vdW  Elec       q    Type
REMARK                         _______ _______ _______ _____ _____    ______ ____
ROOT
ATOM      1  C   UNL     1     101.984 126.212  82.188  0.00  0.00    +0.000 C 
ATOM      2  C   UNL     1     102.859 125.470  81.834  0.00  0.00    +0.000 C 
ENDROOT
BRANCH   2   3
ATOM      3  C   UNL     1     103.899 124.585  81.411  0.00  0.00    +0.000 A 
ATOM      4  C   UNL     1     104.480 124.740  80.148  0.00  0.00    +0.000 A 
ATOM      5  C   UNL     1     105.495 123.874  79.736  0.00  0.00    +0.000 A 
ATOM      6  C   UNL     1     105.918 122.860  80.588  0.00  0.00    +0.000 A 
ATOM      7  C   UNL     1     105.348 122.695  81.846  0.00  0.00    +0.000 A 
ATOM      8  C   UNL     1     104.334 123.561  82.260  0.00  0.00    +0.000 A 
ATOM      9  F   UNL     1     106.891 122.029  80.192  0.00  0.00    +0.000 F 
ENDBRANCH   2   3
BRANCH   1  13
ATOM     10  C   UNL     1      98.902 128.819  83.432  0.00  0.00    +0.000 A 
ATOM     11  C   UNL     1     100.234 129.143  83.689  0.00  0.00    +0.000 A 
ATOM     12  C   UNL     1     101.253 128.281  83.279  0.00  0.00    +0.000 A 
ATOM     13  C   UNL     1     100.939 127.095  82.610  0.00  0.00    +0.000 A 
ATOM     14  C   UNL     1      99.604 126.772  82.354  0.00  0.00    +0.000 A 
ATOM     15  C   UNL     1      98.587 127.635  82.765  0.00  0.00    +0.000 A 
ENDBRANCH   1  13
TORSDOF 2
ENDMDL
