MODEL 1
REMARK VINA RESULT:      -3.7      0.000      0.000
REMARK  Name = *****
REMARK  2 active torsions:
REMARK  status: ('A' for Active; 'I' for Inactive)
REMARK    1  A    between atoms: C_4  and  C_6
REMARK    2  A    between atoms: C_7  and  C_8
REMARK                            x       y       z     vdW  Elec       q    Type
REMARK                         _______ _______ _______ _____ _____    ______ ____
ROOT
ATOM      1  C   UNL     1     102.681 126.206  81.575  0.00  0.00    +0.000 C 
ATOM      2  C   UNL     1     101.633 126.044  82.401  0.00  0.00    +0.000 C 
ENDROOT
BRANCH   1   6
ATOM      3  C   UNL     1     105.137 123.664  80.316  0.00  0.00    +0.000 A 
ATOM      4  C   UNL     1     105.146 123.221  81.617  0.00  0.00    +0.000 A 
ATOM      5  S   UNL     1     104.107 124.140  82.612  0.00  0.00    +0.000 S 
ATOM      6  C   UNL     1     103.620 125.163  81.305  0.00  0.00    +0.000 A 
ATOM      7  C   UNL     1     104.263 124.776  80.139  0.00  0.00    +0.000 A 
ENDBRANCH   1   6
BRANCH   2   8
ATOM      8  C   UNL     1     100.642 127.034  82.725  0.00  0.00    +0.000 A 
ATOM      9  C   UNL     1     100.881 128.229  83.373  0.00  0.00    +0.000 A 
ATOM     10  S   UNL     1      99.455 129.155  83.588  0.00  0.00    +0.000 S 
ATOM     11  C   UNL     1      98.501 127.966  82.817  0.00  0.00    +0.000 A 
ATOM     12  C   UNL     1      99.254 126.887  82.407  0.00  0.00    +0.000 A 
ENDBRANCH   2   8
TORSDOF 2
ENDMDL
