MODEL 1
REMARK VINA RESULT:      -4.9      0.000      0.000
REMARK  Name = *****
REMARK  2 active torsions:
REMARK  status: ('A' for Active; 'I' for Inactive)
REMARK    1  A    between atoms: C_2  and  C_9
REMARK    2  A    between atoms: N_10  and  C_11
REMARK                            x       y       z     vdW  Elec       q    Type
REMARK                         _______ _______ _______ _____ _____    ______ ____
ROOT
ATOM      1  C   UNL     1     102.847 126.203  81.420  0.00  0.00    +0.000 C 
ATOM      2  N   UNL     1     101.913 125.853  82.246  0.00  0.00    +0.000 NA
ENDROOT
BRANCH   1   4
ATOM      3  C   UNL     1     104.599 125.521  79.774  0.00  0.00    +0.000 A 
ATOM      4  C   UNL     1     103.829 125.230  80.905  0.00  0.00    +0.000 A 
ATOM      5  C   UNL     1     103.981 124.010  81.566  0.00  0.00    +0.000 A 
ATOM      6  C   UNL     1     104.906 123.089  81.084  0.00  0.00    +0.000 A 
ATOM      7  C   UNL     1     105.677 123.361  79.962  0.00  0.00    +0.000 A 
ATOM      8  C   UNL     1     105.515 124.580  79.316  0.00  0.00    +0.000 A 
ATOM      9  F   UNL     1     106.253 124.854  78.234  0.00  0.00    +0.000 F 
ATOM     10  F   UNL     1     105.053 121.917  81.715  0.00  0.00    +0.000 F 
ENDBRANCH   1   4
BRANCH   2  11
ATOM     11  C   UNL     1     101.043 126.869  82.663  0.00  0.00    +0.000 A 
ATOM     12  C   UNL     1     101.553 128.027  83.253  0.00  0.00    +0.000 A 
ATOM     13  C   UNL     1     100.687 129.042  83.646  0.00  0.00    +0.000 A 
ATOM     14  C   UNL     1      99.317 128.930  83.455  0.00  0.00    +0.000 A 
ATOM     15  C   UNL     1      98.820 127.783  82.854  0.00  0.00    +0.000 A 
ATOM     16  C   UNL     1      99.668 126.756  82.452  0.00  0.00    +0.000 A 
ATOM     17  F   UNL     1      97.500 127.662  82.656  0.00  0.00    +0.000 F 
ATOM     18  F   UNL     1     101.183 130.147  84.218  0.00  0.00    +0.000 F 
ENDBRANCH   2  11
TORSDOF 2
ENDMDL
