MODEL 1
REMARK VINA RESULT:      -4.5      0.000      0.000
REMARK  Name = *****
REMARK  4 active torsions:
REMARK  status: ('A' for Active; 'I' for Inactive)
REMARK    1  A    between atoms: C_3  and  C_8
REMARK    2  A    between atoms: C_8  and  C_9
REMARK    3  A    between atoms: C_9  and  C_10
REMARK    4  A    between atoms: C_10  and  C_12
REMARK                            x       y       z     vdW  Elec       q    Type
REMARK                         _______ _______ _______ _____ _____    ______ ____
ROOT
ATOM      1  C   UNL     1      88.635  67.371  86.024  0.00  0.00    +0.000 C 
ATOM      2  O   UNL     1      88.046  67.291  84.949  0.00  0.00    +0.000 OA
ENDROOT
BRANCH   1   3
ATOM      3  C   UNL     1      88.157  66.542  87.173  0.00  0.00    +0.000 A 
ATOM      4  C   UNL     1      88.772  65.340  87.535  0.00  0.00    +0.000 A 
ATOM      5  C   UNL     1      88.281  64.611  88.619  0.00  0.00    +0.000 A 
ATOM      6  C   UNL     1      87.183  65.063  89.350  0.00  0.00    +0.000 A 
ATOM      7  C   UNL     1      86.564  66.259  88.996  0.00  0.00    +0.000 A 
ATOM      8  C   UNL     1      87.050  66.995  87.910  0.00  0.00    +0.000 A 
ATOM      9 CL   UNL     1      86.583  64.159  90.686  0.00  0.00    +0.000 Cl
ATOM     10  F   UNL     1      88.890  63.462  88.943  0.00  0.00    +0.000 F 
ENDBRANCH   1   3
BRANCH   1  11
ATOM     11  C   UNL     1      89.833  68.279  86.228  0.00  0.00    +0.000 C 
BRANCH  11  12
ATOM     12  C   UNL     1      89.496  69.736  85.913  0.00  0.00    +0.000 C 
BRANCH  12  15
ATOM     13  C   UNL     1      87.918  70.745  89.237  0.00  0.00    +0.000 A 
ATOM     14  C   UNL     1      88.817  70.236  88.298  0.00  0.00    +0.000 A 
ATOM     15  C   UNL     1      88.535  70.309  86.926  0.00  0.00    +0.000 A 
ATOM     16  C   UNL     1      87.332  70.894  86.510  0.00  0.00    +0.000 A 
ATOM     17  C   UNL     1      86.444  71.398  87.455  0.00  0.00    +0.000 A 
ATOM     18  C   UNL     1      86.725  71.330  88.814  0.00  0.00    +0.000 A 
ATOM     19  F   UNL     1      85.296  71.955  87.047  0.00  0.00    +0.000 F 
ENDBRANCH  12  15
ENDBRANCH  11  12
ENDBRANCH   1  11
TORSDOF 4
ENDMDL
