MODEL 1
REMARK VINA RESULT:      -4.8      0.000      0.000
REMARK  Name = *****
REMARK  5 active torsions:
REMARK  status: ('A' for Active; 'I' for Inactive)
REMARK    1  A    between atoms: C_1  and  C_2
REMARK    2  A    between atoms: C_5  and  C_8
REMARK    3  A    between atoms: C_9  and  C_10
REMARK    4  A    between atoms: C_9  and  C_12
REMARK    5  A    between atoms: C_15  and  C_18
REMARK                            x       y       z     vdW  Elec       q    Type
REMARK                         _______ _______ _______ _____ _____    ______ ____
ROOT
ATOM      1  C   UNL     1     102.463 125.675  82.872  0.00  0.00    +0.000 C 
ATOM      2  C   UNL     1     103.280 125.518  81.811  0.00  0.00    +0.000 C 
ENDROOT
BRANCH   1   7
ATOM      3  C   UNL     1      99.160 130.332  83.750  0.00  0.00    +0.000 C 
ATOM      4  C   UNL     1     100.004 129.112  83.529  0.00  0.00    +0.000 A 
ATOM      5  C   UNL     1      99.480 127.979  82.899  0.00  0.00    +0.000 A 
ATOM      6  C   UNL     1     100.279 126.852  82.688  0.00  0.00    +0.000 A 
ATOM      7  C   UNL     1     101.615 126.849  83.104  0.00  0.00    +0.000 A 
ATOM      8  C   UNL     1     102.141 127.977  83.736  0.00  0.00    +0.000 A 
ATOM      9  C   UNL     1     101.341 129.103  83.947  0.00  0.00    +0.000 A 
ENDBRANCH   1   7
BRANCH   2  10
ATOM     10  C   UNL     1     104.090 124.279  81.678  0.00  0.00    +0.000 A 
ATOM     11  C   UNL     1     104.616 123.879  80.438  0.00  0.00    +0.000 A 
ATOM     12  C   UNL     1     105.401 122.725  80.326  0.00  0.00    +0.000 A 
ATOM     13  C   UNL     1     105.682 121.954  81.457  0.00  0.00    +0.000 A 
ATOM     14  C   UNL     1     105.173 122.342  82.698  0.00  0.00    +0.000 A 
ATOM     15  C   UNL     1     104.384 123.493  82.806  0.00  0.00    +0.000 A 
BRANCH  13  16
ATOM     16  C   UNL     1     106.493 120.777  81.344  0.00  0.00    +0.000 C 
ATOM     17  N   UNL     1     107.151 119.826  81.256  0.00  0.00    +0.000 NA
ENDBRANCH  13  16
ENDBRANCH   2  10
BRANCH   2  18
ATOM     18  C   UNL     1     103.414 126.542  80.815  0.00  0.00    +0.000 C 
ATOM     19  N   UNL     1     103.532 127.395  80.037  0.00  0.00    +0.000 NA
ENDBRANCH   2  18
TORSDOF 4
ENDMDL
