REMARK  Name = *****
REMARK  5 active torsions:
REMARK  status: ('A' for Active; 'I' for Inactive)
REMARK    1  A    between atoms: C_1  and  C_2
REMARK    2  A    between atoms: C_5  and  C_8
REMARK    3  A    between atoms: C_8  and  C_10
REMARK    4  A    between atoms: C_10  and  C_11
REMARK    5  A    between atoms: C_14  and  C_17
REMARK                            x       y       z     vdW  Elec       q    Type
REMARK                         _______ _______ _______ _____ _____    ______ ____
ROOT
ATOM      1  C   UNL     1      -3.356  -0.078   0.169  0.00  0.00    +0.000 C 
ATOM      2  O   UNL     1      -3.955  -1.150   0.073  0.00  0.00    +0.000 OA
ENDROOT
BRANCH   1   7
ATOM      3  C   UNL     1       2.305  -0.286   1.474  0.00  0.00    +0.000 C 
ATOM      4  C   UNL     1       0.839  -0.211   1.162  0.00  0.00    +0.000 A 
ATOM      5  C   UNL     1       0.047  -1.362   1.202  0.00  0.00    +0.000 A 
ATOM      6  C   UNL     1      -1.310  -1.298   0.878  0.00  0.00    +0.000 A 
ATOM      7  C   UNL     1      -1.897  -0.083   0.501  0.00  0.00    +0.000 A 
ATOM      8  C   UNL     1      -1.101   1.066   0.441  0.00  0.00    +0.000 A 
ATOM      9  C   UNL     1       0.259   0.999   0.765  0.00  0.00    +0.000 A 
ENDBRANCH   1   7
BRANCH   1  10
ATOM     10  C   UNL     1      -4.081   1.238  -0.046  0.00  0.00    +0.000 C 
BRANCH  10  11
ATOM     11  C   UNL     1      -3.963   1.786  -1.449  0.00  0.00    +0.000 A 
ATOM     12  C   UNL     1      -4.192   0.967  -2.564  0.00  0.00    +0.000 A 
ATOM     13  C   UNL     1      -4.106   1.485  -3.859  0.00  0.00    +0.000 A 
ATOM     14  C   UNL     1      -3.803   2.835  -4.055  0.00  0.00    +0.000 A 
ATOM     15  C   UNL     1      -3.591   3.664  -2.949  0.00  0.00    +0.000 A 
ATOM     16  C   UNL     1      -3.677   3.143  -1.655  0.00  0.00    +0.000 A 
BRANCH  14  17
ATOM     17  C   UNL     1      -3.716   3.370  -5.382  0.00  0.00    +0.000 C 
ATOM     18  N   UNL     1      -3.643   3.808  -6.455  0.00  0.00    +0.000 NA
ENDBRANCH  14  17
ENDBRANCH  10  11
ENDBRANCH   1  10
TORSDOF 4
