MODEL 1
REMARK VINA RESULT:      -4.5      0.000      0.000
REMARK  Name = *****
REMARK  2 active torsions:
REMARK  status: ('A' for Active; 'I' for Inactive)
REMARK    1  A    between atoms: C_6  and  S_7
REMARK    2  A    between atoms: S_7  and  C_9
REMARK                            x       y       z     vdW  Elec       q    Type
REMARK                         _______ _______ _______ _____ _____    ______ ____
ROOT
ATOM      1  C   UNL     1      87.415  69.368  88.491  0.00  0.00    +0.000 C 
ATOM      2  C   UNL     1      88.226  70.567  88.013  0.00  0.00    +0.000 C 
ATOM      3  C   UNL     1      89.433  70.150  87.232  0.00  0.00    +0.000 C 
ATOM      4  C   UNL     1      89.619  68.914  86.746  0.00  0.00    +0.000 C 
ATOM      5  C   UNL     1      88.632  67.835  86.879  0.00  0.00    +0.000 C 
ATOM      6  C   UNL     1      88.918  66.557  86.543  0.00  0.00    +0.000 C 
ATOM      7 CL   UNL     1      90.469  66.036  85.956  0.00  0.00    +0.000 Cl
ATOM      8  C   UNL     1      87.279  68.318  87.386  0.00  0.00    +0.000 C 
ENDROOT
BRANCH   6   9
ATOM      9  S   UNL     1      87.790  65.176  86.614  0.00  0.00    +0.000 S 
ATOM     10  O   UNL     1      88.442  64.009  85.930  0.00  0.00    +0.000 OA
BRANCH   9  11
ATOM     11  C   UNL     1      87.790  64.799  88.384  0.00  0.00    +0.000 A 
ATOM     12  C   UNL     1      86.743  65.241  89.202  0.00  0.00    +0.000 A 
ATOM     13  C   UNL     1      86.737  64.936  90.565  0.00  0.00    +0.000 A 
ATOM     14  C   UNL     1      87.770  64.182  91.116  0.00  0.00    +0.000 A 
ATOM     15  C   UNL     1      88.809  63.725  90.307  0.00  0.00    +0.000 A 
ATOM     16  C   UNL     1      88.816  64.028  88.944  0.00  0.00    +0.000 A 
ENDBRANCH   9  11
ENDBRANCH   6   9
TORSDOF 2
ENDMDL
