MODEL 1
REMARK VINA RESULT:      -4.6      0.000      0.000
REMARK  Name = *****
REMARK  6 active torsions:
REMARK  status: ('A' for Active; 'I' for Inactive)
REMARK    1  A    between atoms: C_1  and  N_2
REMARK    2  A    between atoms: N_2  and  C_3
REMARK    3  A    between atoms: N_2  and  C_4
REMARK    4  A    between atoms: C_4  and  C_5
REMARK    5  A    between atoms: C_8  and  C_11
REMARK    6  A    between atoms: C_12  and  C_13
REMARK                            x       y       z     vdW  Elec       q    Type
REMARK                         _______ _______ _______ _____ _____    ______ ____
ROOT
ATOM      1  C   UNL     1     105.777 122.919  81.007  0.00  0.00    +0.000 A 
ATOM      2  C   UNL     1     105.429 123.769  79.949  0.00  0.00    +0.000 A 
ATOM      3  C   UNL     1     104.422 124.728  80.103  0.00  0.00    +0.000 A 
ATOM      4  C   UNL     1     103.730 124.845  81.315  0.00  0.00    +0.000 A 
ATOM      5  C   UNL     1     104.085 124.003  82.376  0.00  0.00    +0.000 A 
ATOM      6  C   UNL     1     105.092 123.043  82.222  0.00  0.00    +0.000 A 
ENDROOT
BRANCH   4   7
ATOM      7  C   UNL     1     102.689 125.860  81.532  0.00  0.00    +0.000 C 
ATOM      8  C   UNL     1     102.008 125.999  82.682  0.00  0.00    +0.000 C 
BRANCH   8   9
ATOM      9  C   UNL     1     100.978 127.025  82.905  0.00  0.00    +0.000 A 
ATOM     10  C   UNL     1     101.266 128.257  83.507  0.00  0.00    +0.000 A 
ATOM     11  C   UNL     1     100.265 129.219  83.671  0.00  0.00    +0.000 A 
ATOM     12  C   UNL     1      98.970 128.964  83.225  0.00  0.00    +0.000 A 
ATOM     13  C   UNL     1      98.676 127.749  82.609  0.00  0.00    +0.000 A 
ATOM     14  C   UNL     1      99.676 126.787  82.445  0.00  0.00    +0.000 A 
ENDBRANCH   8   9
ENDBRANCH   4   7
BRANCH   1  15
ATOM     15  C   UNL     1     106.853 121.867  80.829  0.00  0.00    +0.000 C 
BRANCH  15  17
ATOM     16  C   UNL     1     106.869 119.582  81.651  0.00  0.00    +0.000 C 
ATOM     17  N   UNL     1     107.027 120.995  82.005  0.00  0.00    +0.000 N 
ATOM     18  C   UNL     1     108.346 121.215  82.600  0.00  0.00    +0.000 C 
ATOM     19  H   UNL     1     106.303 121.233  82.683  0.00  0.00    +0.000 HD
ENDBRANCH  15  17
ENDBRANCH   1  15
TORSDOF 4
ENDMDL
