MODEL 1
REMARK VINA RESULT:      -4.6      0.000      0.000
REMARK  Name = *****
REMARK  5 active torsions:
REMARK  status: ('A' for Active; 'I' for Inactive)
REMARK    1  A    between atoms: C_1  and  O_2
REMARK    2  A    between atoms: O_2  and  C_3
REMARK    3  A    between atoms: C_3  and  C_5
REMARK    4  A    between atoms: C_8  and  C_10
REMARK    5  A    between atoms: C_11  and  C_12
REMARK                            x       y       z     vdW  Elec       q    Type
REMARK                         _______ _______ _______ _____ _____    ______ ____
ROOT
ATOM      1  C   UNL     1     104.975 123.667  80.378  0.00  0.00    +0.000 A 
ATOM      2  C   UNL     1     105.456 124.607  79.502  0.00  0.00    +0.000 A 
ATOM      3  O   UNL     1     104.774 125.763  79.699  0.00  0.00    +0.000 OA
ATOM      4  C   UNL     1     103.871 125.496  80.714  0.00  0.00    +0.000 A 
ATOM      5  N   UNL     1     103.972 124.243  81.139  0.00  0.00    +0.000 NA
ENDROOT
BRANCH   1   6
ATOM      6  C   UNL     1     105.441 122.294  80.490  0.00  0.00    +0.000 C 
ATOM      7  O   UNL     1     106.626 121.984  80.448  0.00  0.00    +0.000 OA
BRANCH   6   9
ATOM      8  C   UNL     1     104.545 120.564  81.795  0.00  0.00    +0.000 C 
ATOM      9  O   UNL     1     104.417 121.404  80.649  0.00  0.00    +0.000 OA
ENDBRANCH   6   9
ENDBRANCH   1   6
BRANCH   4  10
ATOM     10  C   UNL     1     102.978 126.495  81.192  0.00  0.00    +0.000 C 
ATOM     11  C   UNL     1     102.049 126.213  82.120  0.00  0.00    +0.000 C 
BRANCH  11  12
ATOM     12  C   UNL     1     101.106 127.196  82.668  0.00  0.00    +0.000 A 
ATOM     13  C   UNL     1      99.715 127.045  82.560  0.00  0.00    +0.000 A 
ATOM     14  C   UNL     1      98.854 127.992  83.121  0.00  0.00    +0.000 A 
ATOM     15  C   UNL     1      99.382 129.082  83.802  0.00  0.00    +0.000 A 
ATOM     16  C   UNL     1     100.755 129.242  83.936  0.00  0.00    +0.000 A 
ATOM     17  C   UNL     1     101.616 128.296  83.374  0.00  0.00    +0.000 A 
ATOM     18  F   UNL     1      98.555 129.987  84.340  0.00  0.00    +0.000 F 
ENDBRANCH  11  12
ENDBRANCH   4  10
TORSDOF 4
ENDMDL
