MODEL 1
REMARK VINA RESULT:      -4.7      0.000      0.000
REMARK  Name = *****
REMARK  4 active torsions:
REMARK  status: ('A' for Active; 'I' for Inactive)
REMARK    1  A    between atoms: C_1  and  C_2
REMARK    2  A    between atoms: C_5  and  O_8
REMARK    3  A    between atoms: O_8  and  C_9
REMARK    4  A    between atoms: C_9  and  C_10
REMARK                            x       y       z     vdW  Elec       q    Type
REMARK                         _______ _______ _______ _____ _____    ______ ____
ROOT
ATOM      1  C   UNL     1      99.224 130.761  84.380  0.00  0.00    +0.000 C 
ATOM      2  C   UNL     1      99.762 129.486  83.804  0.00  0.00    +0.000 A 
ATOM      3  C   UNL     1      98.921 128.573  83.161  0.00  0.00    +0.000 A 
ATOM      4  C   UNL     1      99.436 127.391  82.626  0.00  0.00    +0.000 A 
ATOM      5  C   UNL     1     100.797 127.093  82.719  0.00  0.00    +0.000 A 
ATOM      6  C   UNL     1     101.640 128.017  83.344  0.00  0.00    +0.000 A 
ATOM      7  C   UNL     1     101.130 129.203  83.882  0.00  0.00    +0.000 A 
ATOM      8  F   UNL     1      98.576 126.559  82.020  0.00  0.00    +0.000 F 
ENDROOT
BRANCH   5   9
ATOM      9  O   UNL     1     101.435 125.976  82.257  0.00  0.00    +0.000 OA
BRANCH   9  10
ATOM     10  C   UNL     1     102.553 125.504  83.010  0.00  0.00    +0.000 C 
BRANCH  10  11
ATOM     11  C   UNL     1     103.528 124.830  82.071  0.00  0.00    +0.000 A 
ATOM     12  C   UNL     1     104.209 123.670  82.465  0.00  0.00    +0.000 A 
ATOM     13  C   UNL     1     105.095 123.034  81.591  0.00  0.00    +0.000 A 
ATOM     14  C   UNL     1     105.303 123.549  80.313  0.00  0.00    +0.000 A 
ATOM     15  C   UNL     1     104.626 124.697  79.906  0.00  0.00    +0.000 A 
ATOM     16  C   UNL     1     103.740 125.332  80.778  0.00  0.00    +0.000 A 
ENDBRANCH  10  11
ENDBRANCH   9  10
ENDBRANCH   5   9
TORSDOF 3
ENDMDL
