REMARK  Name = *****
REMARK  5 active torsions:
REMARK  status: ('A' for Active; 'I' for Inactive)
REMARK    1  A    between atoms: C_4  and  C_7
REMARK    2  A    between atoms: C_7  and  N_8
REMARK    3  A    between atoms: N_8  and  C_9
REMARK    4  A    between atoms: N_8  and  N_17
REMARK    5  A    between atoms: C_12  and  C_15
REMARK                            x       y       z     vdW  Elec       q    Type
REMARK                         _______ _______ _______ _____ _____    ______ ____
ROOT
ATOM      1  N   UNL     1      -3.704  -0.775  -0.427  0.00  0.00    +0.000 N 
ENDROOT
BRANCH   1   2
ATOM      2  C   UNL     1      -3.033  -2.011  -0.171  0.00  0.00    +0.000 A 
ATOM      3  C   UNL     1      -1.763  -2.092   0.431  0.00  0.00    +0.000 A 
ATOM      4  C   UNL     1      -1.137  -3.324   0.677  0.00  0.00    +0.000 A 
ATOM      5  C   UNL     1      -1.766  -4.518   0.329  0.00  0.00    +0.000 A 
ATOM      6  C   UNL     1      -3.027  -4.474  -0.260  0.00  0.00    +0.000 A 
ATOM      7  C   UNL     1      -3.649  -3.240  -0.499  0.00  0.00    +0.000 A 
BRANCH   5   8
ATOM      8  C   UNL     1      -1.126  -5.776   0.577  0.00  0.00    +0.000 C 
ATOM      9  N   UNL     1      -0.605  -6.794   0.776  0.00  0.00    +0.000 NA
ENDBRANCH   5   8
ENDBRANCH   1   2
BRANCH   1  10
ATOM     10  N   UNL     1      -5.035  -0.775  -0.726  0.00  0.00    +0.000 NA
ATOM     11  O   UNL     1      -5.517   0.350  -0.889  0.00  0.00    +0.000 OA
ENDBRANCH   1  10
BRANCH   1  12
ATOM     12  C   UNL     1      -2.856   0.442  -0.479  0.00  0.00    +0.000 C 
BRANCH  12  16
ATOM     13  C   UNL     1      -2.172   2.522   3.260  0.00  0.00    +0.000 A 
ATOM     14  C   UNL     1      -3.218   1.607   3.171  0.00  0.00    +0.000 A 
ATOM     15  C   UNL     1      -3.453   0.922   1.975  0.00  0.00    +0.000 A 
ATOM     16  C   UNL     1      -2.634   1.133   0.856  0.00  0.00    +0.000 A 
ATOM     17  C   UNL     1      -1.590   2.070   0.961  0.00  0.00    +0.000 A 
ATOM     18  C   UNL     1      -1.360   2.756   2.155  0.00  0.00    +0.000 A 
ENDBRANCH  12  16
ENDBRANCH   1  12
TORSDOF 5
