MODEL 1
REMARK VINA RESULT:      -4.8      0.000      0.000
REMARK  Name = *****
REMARK  3 active torsions:
REMARK  status: ('A' for Active; 'I' for Inactive)
REMARK    1  A    between atoms: C_4  and  C_16
REMARK    2  A    between atoms: C_5  and  C_8
REMARK    3  A    between atoms: C_9  and  C_10
REMARK                            x       y       z     vdW  Elec       q    Type
REMARK                         _______ _______ _______ _____ _____    ______ ____
ROOT
ATOM      1  C   UNL     1     100.461 130.996  85.009  0.00  0.00    +0.000 C 
ATOM      2  C   UNL     1      99.582 130.700  83.799  0.00  0.00    +0.000 C 
ATOM      3  C   UNL     1      99.028 129.277  83.765  0.00  0.00    +0.000 C 
ATOM      4  C   UNL     1      99.986 128.184  83.334  0.00  0.00    +0.000 C 
ATOM      5  C   UNL     1     101.337 128.200  83.427  0.00  0.00    +0.000 C 
ATOM      6  C   UNL     1     102.142 129.293  84.115  0.00  0.00    +0.000 C 
ATOM      7  C   UNL     1     101.484 129.919  85.342  0.00  0.00    +0.000 C 
ENDROOT
BRANCH   5   8
ATOM      8  C   UNL     1     102.126 127.115  82.916  0.00  0.00    +0.000 C 
ATOM      9  C   UNL     1     102.777 126.193  82.503  0.00  0.00    +0.000 C 
BRANCH   9  10
ATOM     10  C   UNL     1     103.550 125.096  82.007  0.00  0.00    +0.000 A 
ATOM     11  C   UNL     1     103.926 125.056  80.662  0.00  0.00    +0.000 A 
ATOM     12  C   UNL     1     104.678 123.983  80.180  0.00  0.00    +0.000 A 
ATOM     13  C   UNL     1     105.053 122.950  81.039  0.00  0.00    +0.000 A 
ATOM     14  C   UNL     1     104.680 122.990  82.382  0.00  0.00    +0.000 A 
ATOM     15  C   UNL     1     103.927 124.062  82.867  0.00  0.00    +0.000 A 
ENDBRANCH   9  10
ENDBRANCH   5   8
BRANCH   4  16
ATOM     16  C   UNL     1      99.285 127.001  82.727  0.00  0.00    +0.000 C 
ATOM     17  O   UNL     1      98.293 127.111  82.012  0.00  0.00    +0.000 OA
ENDBRANCH   4  16
TORSDOF 3
ENDMDL
