REMARK  Name = *****
REMARK  2 active torsions:
REMARK  status: ('A' for Active; 'I' for Inactive)
REMARK    1  A    between atoms: C_7  and  C_8
REMARK    2  A    between atoms: C_9  and  C_10
REMARK                            x       y       z     vdW  Elec       q    Type
REMARK                         _______ _______ _______ _____ _____    ______ ____
ROOT
ATOM      1  C   UNL     1       2.557   1.340   0.090  0.00  0.00    +0.000 C 
ATOM      2  C   UNL     1       3.563   1.795   0.562  0.00  0.00    +0.000 C 
ENDROOT
BRANCH   1   9
ATOM      3  C   UNL     1      -1.188  -0.720  -0.504  0.00  0.00    +0.000 C 
ATOM      4  C   UNL     1      -1.179   0.816  -0.467  0.00  0.00    +0.000 C 
ATOM      5  C   UNL     1       0.080   1.133   0.361  0.00  0.00    +0.000 C 
ATOM      6  C   UNL     1       0.050   0.003   1.395  0.00  0.00    +0.000 C 
ATOM      7  C   UNL     1       0.047  -1.094   0.333  0.00  0.00    +0.000 C 
ATOM      8  C   UNL     1       1.319  -0.759  -0.470  0.00  0.00    +0.000 C 
ATOM      9  C   UNL     1       1.324   0.784  -0.491  0.00  0.00    +0.000 C 
ENDBRANCH   1   9
BRANCH   2  10
ATOM     10  C   UNL     1       4.763   2.335   1.124  0.00  0.00    +0.000 A 
ATOM     11  C   UNL     1       4.896   3.715   1.295  0.00  0.00    +0.000 A 
ATOM     12  C   UNL     1       6.068   4.242   1.842  0.00  0.00    +0.000 A 
ATOM     13  C   UNL     1       7.106   3.390   2.218  0.00  0.00    +0.000 A 
ATOM     14  C   UNL     1       6.975   2.011   2.049  0.00  0.00    +0.000 A 
ATOM     15  C   UNL     1       5.803   1.484   1.502  0.00  0.00    +0.000 A 
ENDBRANCH   2  10
TORSDOF 2
