MODEL 1
REMARK VINA RESULT:      -4.8      0.000      0.000
REMARK  Name = *****
REMARK  4 active torsions:
REMARK  status: ('A' for Active; 'I' for Inactive)
REMARK    1  A    between atoms: C_1  and  C_2
REMARK    2  A    between atoms: C_4  and  N_8
REMARK    3  A    between atoms: C_9  and  O_18
REMARK    4  A    between atoms: O_18  and  O_19
REMARK                            x       y       z     vdW  Elec       q    Type
REMARK                         _______ _______ _______ _____ _____    ______ ____
ROOT
ATOM      1  N   UNL     1     103.082 126.536  82.149  0.00  0.00    +0.000 N 
ATOM      2  C   UNL     1     103.241 125.130  82.519  0.00  0.00    +0.000 C 
ATOM      3  C   UNL     1     104.186 124.530  81.532  0.00  0.00    +0.000 C 
ATOM      4  C   UNL     1     104.669 125.386  80.626  0.00  0.00    +0.000 C 
ATOM      5  S   UNL     1     104.092 127.041  80.898  0.00  0.00    +0.000 S 
ATOM      6  O   UNL     1     103.305 127.421  79.682  0.00  0.00    +0.000 OA
ATOM      7  C   UNL     1     105.623 125.006  79.542  0.00  0.00    +0.000 C 
ATOM      8  C   UNL     1     106.254 123.630  79.792  0.00  0.00    +0.000 C 
ATOM      9  C   UNL     1     105.216 122.613  80.274  0.00  0.00    +0.000 C 
ATOM     10  C   UNL     1     104.519 123.074  81.561  0.00  0.00    +0.000 C 
ENDROOT
BRANCH   1  14
ATOM     11  C   UNL     1      98.223 127.379  82.882  0.00  0.00    +0.000 C 
ATOM     12  C   UNL     1      99.654 127.787  83.072  0.00  0.00    +0.000 A 
ATOM     13  C   UNL     1     100.694 127.012  82.522  0.00  0.00    +0.000 A 
ATOM     14  C   UNL     1     102.057 127.331  82.697  0.00  0.00    +0.000 A 
ATOM     15  C   UNL     1     102.323 128.473  83.475  0.00  0.00    +0.000 A 
ATOM     16  C   UNL     1     101.302 129.247  84.041  0.00  0.00    +0.000 A 
ATOM     17  C   UNL     1      99.972 128.901  83.846  0.00  0.00    +0.000 A 
ENDBRANCH   1  14
BRANCH   2  18
ATOM     18  O   UNL     1     103.736 124.955  83.861  0.00  0.00    +0.000 OA
BRANCH  18  19
ATOM     19  O   UNL     1     102.593 124.693  84.742  0.00  0.00    +0.000 OA
ATOM     20  H   UNL     1     101.963 124.108  84.291  0.00  0.00    +0.000 HD
ENDBRANCH  18  19
ENDBRANCH   2  18
TORSDOF 3
ENDMDL
