MODEL 1
REMARK VINA RESULT:      -4.3      0.000      0.000
REMARK  Name = *****
REMARK  5 active torsions:
REMARK  status: ('A' for Active; 'I' for Inactive)
REMARK    1  A    between atoms: C_1  and  C_2
REMARK    2  A    between atoms: C_3  and  C_16
REMARK    3  A    between atoms: C_5  and  S_7
REMARK    4  A    between atoms: S_7  and  C_8
REMARK    5  A    between atoms: C_8  and  C_10
REMARK                            x       y       z     vdW  Elec       q    Type
REMARK                         _______ _______ _______ _____ _____    ______ ____
ROOT
ATOM      1  S   UNL     1      89.200  70.121  87.231  0.00  0.00    +0.000 S 
ENDROOT
BRANCH   1   6
ATOM      2  C   UNL     1      91.099  65.691  85.481  0.00  0.00    +0.000 C 
ATOM      3  C   UNL     1      90.016  66.507  86.092  0.00  0.00    +0.000 A 
ATOM      4  C   UNL     1      88.762  66.067  86.482  0.00  0.00    +0.000 A 
ATOM      5  S   UNL     1      87.871  67.377  87.144  0.00  0.00    +0.000 S 
ATOM      6  C   UNL     1      89.194  68.418  86.846  0.00  0.00    +0.000 A 
ATOM      7  N   UNL     1      90.252  67.857  86.306  0.00  0.00    +0.000 NA
ATOM      8  C   UNL     1      88.152  64.713  86.399  0.00  0.00    +0.000 C 
ENDBRANCH   1   6
BRANCH   1   9
ATOM      9  C   UNL     1      88.006  70.591  86.035  0.00  0.00    +0.000 C 
ATOM     10  O   UNL     1      88.218  70.380  84.846  0.00  0.00    +0.000 OA
BRANCH   9  11
ATOM     11  C   UNL     1      86.722  71.222  86.478  0.00  0.00    +0.000 A 
ATOM     12  C   UNL     1      85.771  71.765  85.603  0.00  0.00    +0.000 A 
ATOM     13  C   UNL     1      84.595  72.333  86.100  0.00  0.00    +0.000 A 
ATOM     14  C   UNL     1      84.357  72.370  87.473  0.00  0.00    +0.000 A 
ATOM     15  C   UNL     1      85.296  71.838  88.353  0.00  0.00    +0.000 A 
ATOM     16  C   UNL     1      86.470  71.268  87.859  0.00  0.00    +0.000 A 
ENDBRANCH   9  11
ENDBRANCH   1   9
TORSDOF 3
ENDMDL
