MODEL 1
REMARK VINA RESULT:      -4.5      0.000      0.000
REMARK  Name = *****
REMARK  3 active torsions:
REMARK  status: ('A' for Active; 'I' for Inactive)
REMARK    1  A    between atoms: C_3  and  C_8
REMARK    2  A    between atoms: C_8  and  O_9
REMARK    3  A    between atoms: O_9  and  C_10
REMARK                            x       y       z     vdW  Elec       q    Type
REMARK                         _______ _______ _______ _____ _____    ______ ____
ROOT
ATOM      1  C   UNL     1     102.873 127.166  82.869  0.00  0.00    +0.000 C 
ENDROOT
BRANCH   1   4
ATOM      2  C   UNL     1      99.079 127.055  82.480  0.00  0.00    +0.000 A 
ATOM      3  C   UNL     1     100.429 126.705  82.414  0.00  0.00    +0.000 A 
ATOM      4  C   UNL     1     101.417 127.562  82.925  0.00  0.00    +0.000 A 
ATOM      5  C   UNL     1     101.026 128.776  83.506  0.00  0.00    +0.000 A 
ATOM      6  C   UNL     1      99.675 129.121  83.570  0.00  0.00    +0.000 A 
ATOM      7  C   UNL     1      98.700 128.265  83.060  0.00  0.00    +0.000 A 
ATOM      8 CL   UNL     1      99.208 130.614  84.288  0.00  0.00    +0.000 Cl
ENDBRANCH   1   4
BRANCH   1   9
ATOM      9  O   UNL     1     103.017 125.867  83.440  0.00  0.00    +0.000 OA
BRANCH   9  10
ATOM     10  C   UNL     1     103.612 124.907  82.669  0.00  0.00    +0.000 A 
ATOM     11  C   UNL     1     104.103 123.678  83.118  0.00  0.00    +0.000 A 
ATOM     12  C   UNL     1     104.689 122.788  82.214  0.00  0.00    +0.000 A 
ATOM     13  C   UNL     1     104.782 123.129  80.869  0.00  0.00    +0.000 A 
ATOM     14  C   UNL     1     104.300 124.347  80.409  0.00  0.00    +0.000 A 
ATOM     15  C   UNL     1     103.716 125.235  81.312  0.00  0.00    +0.000 A 
ATOM     16  F   UNL     1     105.344 122.272  80.007  0.00  0.00    +0.000 F 
ENDBRANCH   9  10
ENDBRANCH   1   9
TORSDOF 3
ENDMDL
