MODEL 1
REMARK VINA RESULT:      -4.8      0.000      0.000
REMARK  Name = *****
REMARK  5 active torsions:
REMARK  status: ('A' for Active; 'I' for Inactive)
REMARK    1  A    between atoms: C_1  and  O_2
REMARK    2  A    between atoms: O_2  and  C_3
REMARK    3  A    between atoms: C_3  and  C_5
REMARK    4  A    between atoms: C_9  and  C_11
REMARK    5  A    between atoms: C_12  and  C_13
REMARK                            x       y       z     vdW  Elec       q    Type
REMARK                         _______ _______ _______ _____ _____    ______ ____
ROOT
ATOM      1  C   UNL     1     105.303 122.960  80.619  0.00  0.00    +0.000 A 
ATOM      2  C   UNL     1     106.047 123.535  79.580  0.00  0.00    +0.000 A 
ATOM      3  C   UNL     1     105.766 124.835  79.151  0.00  0.00    +0.000 A 
ATOM      4  C   UNL     1     104.743 125.565  79.759  0.00  0.00    +0.000 A 
ATOM      5  C   UNL     1     103.997 124.997  80.795  0.00  0.00    +0.000 A 
ATOM      6  C   UNL     1     104.276 123.698  81.224  0.00  0.00    +0.000 A 
ENDROOT
BRANCH   1   7
ATOM      7  C   UNL     1     105.559 121.580  81.115  0.00  0.00    +0.000 C 
ATOM      8  O   UNL     1     106.668 121.068  81.143  0.00  0.00    +0.000 OA
BRANCH   7  10
ATOM      9  C   UNL     1     104.505 120.313  82.768  0.00  0.00    +0.000 C 
ATOM     10  O   UNL     1     104.404 120.993  81.516  0.00  0.00    +0.000 OA
ENDBRANCH   7  10
ENDBRANCH   1   7
BRANCH   5  11
ATOM     11  C   UNL     1     102.950 125.749  81.415  0.00  0.00    +0.000 C 
ATOM     12  C   UNL     1     102.072 126.380  81.936  0.00  0.00    +0.000 C 
BRANCH  12  13
ATOM     13  C   UNL     1     101.027 127.133  82.559  0.00  0.00    +0.000 A 
ATOM     14  C   UNL     1     101.338 128.254  83.332  0.00  0.00    +0.000 A 
ATOM     15  C   UNL     1     100.318 128.989  83.940  0.00  0.00    +0.000 A 
ATOM     16  C   UNL     1      98.987 128.604  83.776  0.00  0.00    +0.000 A 
ATOM     17  C   UNL     1      98.675 127.485  83.003  0.00  0.00    +0.000 A 
ATOM     18  C   UNL     1      99.694 126.749  82.395  0.00  0.00    +0.000 A 
ENDBRANCH  12  13
ENDBRANCH   5  11
TORSDOF 4
ENDMDL
