MODEL 1
REMARK VINA RESULT:      -4.5      0.000      0.000
REMARK  Name = *****
REMARK  5 active torsions:
REMARK  status: ('A' for Active; 'I' for Inactive)
REMARK    1  A    between atoms: C_1  and  C_2
REMARK    2  A    between atoms: C_7  and  S_8
REMARK    3  A    between atoms: S_8  and  S_9
REMARK    4  A    between atoms: S_9  and  C_12
REMARK    5  A    between atoms: C_17  and  C_18
REMARK                            x       y       z     vdW  Elec       q    Type
REMARK                         _______ _______ _______ _____ _____    ______ ____
ROOT
ATOM      1  S   UNL     1      87.982  70.543  85.573  0.00  0.00    +0.000 S 
ATOM      2  O   UNL     1      88.747  71.580  84.911  0.00  0.00    +0.000 OA
ATOM      3  O   UNL     1      87.513  69.385  84.835  0.00  0.00    +0.000 OA
ENDROOT
BRANCH   1   4
ATOM      4  C   UNL     1      86.555  71.306  86.343  0.00  0.00    +0.000 A 
ATOM      5  C   UNL     1      86.480  71.259  87.745  0.00  0.00    +0.000 A 
ATOM      6  C   UNL     1      85.391  71.817  88.411  0.00  0.00    +0.000 A 
ATOM      7  C   UNL     1      84.368  72.415  87.683  0.00  0.00    +0.000 A 
ATOM      8  C   UNL     1      84.433  72.457  86.289  0.00  0.00    +0.000 A 
ATOM      9  C   UNL     1      85.527  71.911  85.593  0.00  0.00    +0.000 A 
ATOM     10  C   UNL     1      85.506  71.969  84.091  0.00  0.00    +0.000 C 
ENDBRANCH   1   4
BRANCH   1  11
ATOM     11  S   UNL     1      89.076  69.843  87.218  0.00  0.00    +0.000 S 
BRANCH  11  18
ATOM     12  C   UNL     1      86.911  67.701  88.127  0.00  0.00    +0.000 C 
ATOM     13  C   UNL     1      88.101  67.215  87.346  0.00  0.00    +0.000 A 
ATOM     14  C   UNL     1      88.206  65.843  87.056  0.00  0.00    +0.000 A 
ATOM     15  C   UNL     1      89.289  65.344  86.333  0.00  0.00    +0.000 A 
ATOM     16  C   UNL     1      90.285  66.207  85.888  0.00  0.00    +0.000 A 
ATOM     17  C   UNL     1      90.196  67.571  86.167  0.00  0.00    +0.000 A 
ATOM     18  C   UNL     1      89.108  68.087  86.887  0.00  0.00    +0.000 A 
ENDBRANCH  11  18
ENDBRANCH   1  11
TORSDOF 3
ENDMDL
