REMARK  Name = *****
REMARK  4 active torsions:
REMARK  status: ('A' for Active; 'I' for Inactive)
REMARK    1  A    between atoms: C_4  and  S_7
REMARK    2  A    between atoms: S_7  and  C_8
REMARK    3  A    between atoms: C_8  and  C_9
REMARK    4  A    between atoms: C_9  and  C_10
REMARK                            x       y       z     vdW  Elec       q    Type
REMARK                         _______ _______ _______ _____ _____    ______ ____
ROOT
ATOM      1  C   UNL     1       3.533  -2.314  -0.164  0.00  0.00    +0.000 C 
ENDROOT
BRANCH   1   2
ATOM      2  S   UNL     1       3.037  -0.715  -0.890  0.00  0.00    +0.000 S 
BRANCH   2   6
ATOM      3  C   UNL     1      -1.397   0.337  -0.002  0.00  0.00    +0.000 C 
ATOM      4  C   UNL     1      -0.975  -1.117   0.183  0.00  0.00    +0.000 C 
ATOM      5  C   UNL     1       0.368  -1.408  -0.488  0.00  0.00    +0.000 C 
ATOM      6  C   UNL     1       1.456  -0.446   0.001  0.00  0.00    +0.000 C 
ATOM      7  C   UNL     1       1.028   1.014  -0.198  0.00  0.00    +0.000 C 
ATOM      8  C   UNL     1      -0.314   1.298   0.477  0.00  0.00    +0.000 C 
ENDBRANCH   2   6
ENDBRANCH   1   2
BRANCH   1   9
ATOM      9  C   UNL     1       4.952  -2.674  -0.607  0.00  0.00    +0.000 C 
BRANCH   9  10
ATOM     10  C   UNL     1       5.385  -3.999  -0.024  0.00  0.00    +0.000 A 
ATOM     11  C   UNL     1       5.116  -5.195  -0.703  0.00  0.00    +0.000 A 
ATOM     12  C   UNL     1       5.495  -6.420  -0.153  0.00  0.00    +0.000 A 
ATOM     13  C   UNL     1       6.142  -6.461   1.081  0.00  0.00    +0.000 A 
ATOM     14  C   UNL     1       6.409  -5.278   1.767  0.00  0.00    +0.000 A 
ATOM     15  C   UNL     1       6.031  -4.051   1.219  0.00  0.00    +0.000 A 
ENDBRANCH   9  10
ENDBRANCH   1   9
TORSDOF 4
