MODEL 1
REMARK VINA RESULT:      -4.3      0.000      0.000
REMARK  Name = *****
REMARK  3 active torsions:
REMARK  status: ('A' for Active; 'I' for Inactive)
REMARK    1  A    between atoms: C_4  and  O_7
REMARK    2  A    between atoms: O_7  and  C_8
REMARK    3  A    between atoms: C_8  and  C_10
REMARK                            x       y       z     vdW  Elec       q    Type
REMARK                         _______ _______ _______ _____ _____    ______ ____
ROOT
ATOM      1  C   UNL     1      99.369 127.395  82.903  0.00  0.00    +0.000 C 
ATOM      2  O   UNL     1      98.580 127.005  82.057  0.00  0.00    +0.000 OA
ENDROOT
BRANCH   1   3
ATOM      3  C   UNL     1      99.067 128.512  83.825  0.00  0.00    +0.000 A 
ATOM      4  C   UNL     1      99.490 129.800  83.460  0.00  0.00    +0.000 A 
ATOM      5  C   UNL     1      99.233 130.891  84.293  0.00  0.00    +0.000 A 
ATOM      6  C   UNL     1      98.558 130.706  85.498  0.00  0.00    +0.000 A 
ATOM      7  C   UNL     1      98.146 129.428  85.873  0.00  0.00    +0.000 A 
ATOM      8  C   UNL     1      98.402 128.338  85.040  0.00  0.00    +0.000 A 
ATOM      9  F   UNL     1      98.011 127.127  85.463  0.00  0.00    +0.000 F 
ENDBRANCH   1   3
BRANCH   1  10
ATOM     10  O   UNL     1     100.577 126.850  83.175  0.00  0.00    +0.000 OA
BRANCH  10  14
ATOM     11  C   UNL     1     104.458 126.822  81.464  0.00  0.00    +0.000 C 
ATOM     12  C   UNL     1     103.449 125.802  80.944  0.00  0.00    +0.000 C 
ATOM     13  C   UNL     1     102.259 125.658  81.888  0.00  0.00    +0.000 C 
ATOM     14  C   UNL     1     101.591 127.007  82.166  0.00  0.00    +0.000 C 
ATOM     15  C   UNL     1     102.611 128.018  82.696  0.00  0.00    +0.000 C 
ATOM     16  C   UNL     1     103.800 128.168  81.754  0.00  0.00    +0.000 C 
ENDBRANCH  10  14
ENDBRANCH   1  10
TORSDOF 3
ENDMDL
