MODEL 1
REMARK VINA RESULT:      -4.3      0.000      0.000
REMARK  Name = *****
REMARK  3 active torsions:
REMARK  status: ('A' for Active; 'I' for Inactive)
REMARK    1  A    between atoms: C_4  and  C_7
REMARK    2  A    between atoms: C_7  and  O_9
REMARK    3  A    between atoms: O_9  and  C_10
REMARK                            x       y       z     vdW  Elec       q    Type
REMARK                         _______ _______ _______ _____ _____    ______ ____
ROOT
ATOM      1  C   UNL     1     101.776 125.913  83.216  0.00  0.00    +0.000 C 
ATOM      2  O   UNL     1     102.505 125.275  83.965  0.00  0.00    +0.000 OA
ENDROOT
BRANCH   1   6
ATOM      3  C   UNL     1      99.340 129.521  83.265  0.00  0.00    +0.000 C 
ATOM      4  C   UNL     1      98.656 128.186  82.980  0.00  0.00    +0.000 C 
ATOM      5  C   UNL     1      99.664 127.105  82.601  0.00  0.00    +0.000 C 
ATOM      6  C   UNL     1     100.761 126.955  83.660  0.00  0.00    +0.000 C 
ATOM      7  C   UNL     1     101.443 128.300  83.937  0.00  0.00    +0.000 C 
ATOM      8  C   UNL     1     100.431 129.376  84.321  0.00  0.00    +0.000 C 
ENDBRANCH   1   6
BRANCH   1   9
ATOM      9  O   UNL     1     101.726 125.806  81.827  0.00  0.00    +0.000 OA
BRANCH   9  10
ATOM     10  C   UNL     1     102.957 126.002  81.195  0.00  0.00    +0.000 A 
ATOM     11  C   UNL     1     103.688 124.913  80.724  0.00  0.00    +0.000 A 
ATOM     12  C   UNL     1     104.934 125.143  80.145  0.00  0.00    +0.000 A 
ATOM     13  C   UNL     1     105.448 126.438  80.055  0.00  0.00    +0.000 A 
ATOM     14  C   UNL     1     104.713 127.518  80.552  0.00  0.00    +0.000 A 
ATOM     15  C   UNL     1     103.463 127.300  81.132  0.00  0.00    +0.000 A 
ATOM     16 CL   UNL     1     105.855 123.817  79.547  0.00  0.00    +0.000 Cl
ENDBRANCH   9  10
ENDBRANCH   1   9
TORSDOF 3
ENDMDL
