REMARK  Name = *****
REMARK  0 active torsions:
REMARK  status: ('A' for Active; 'I' for Inactive)
REMARK                            x       y       z     vdW  Elec       q    Type
REMARK                         _______ _______ _______ _____ _____    ______ ____
ROOT
ATOM      1  C   UNL     1      -0.740  -1.716   1.118  0.00  0.00    +0.000 C 
ATOM      2  C   UNL     1       0.674  -1.360   1.600  0.00  0.00    +0.000 C 
ATOM      3  C   UNL     1       1.539  -0.713   0.550  0.00  0.00    +0.000 A 
ATOM      4  C   UNL     1       2.345  -1.548  -0.248  0.00  0.00    +0.000 A 
ATOM      5  C   UNL     1       3.172  -1.022  -1.237  0.00  0.00    +0.000 A 
ATOM      6  C   UNL     1       3.208   0.350  -1.444  0.00  0.00    +0.000 A 
ATOM      7  C   UNL     1       2.408   1.189  -0.668  0.00  0.00    +0.000 A 
ATOM      8  C   UNL     1       1.549   0.678   0.326  0.00  0.00    +0.000 A 
ATOM      9  C   UNL     1       0.735   1.689   1.115  0.00  0.00    +0.000 C 
ATOM     10  C   UNL     1      -0.679   1.334   1.598  0.00  0.00    +0.000 C 
ATOM     11  C   UNL     1      -1.544   0.685   0.548  0.00  0.00    +0.000 A 
ATOM     12  C   UNL     1      -2.349   1.519  -0.251  0.00  0.00    +0.000 A 
ATOM     13  C   UNL     1      -3.177   0.991  -1.240  0.00  0.00    +0.000 A 
ATOM     14  C   UNL     1      -3.212  -0.381  -1.444  0.00  0.00    +0.000 A 
ATOM     15  C   UNL     1      -2.413  -1.219  -0.667  0.00  0.00    +0.000 A 
ATOM     16  C   UNL     1      -1.554  -0.706   0.327  0.00  0.00    +0.000 A 
ENDROOT
TORSDOF 0
