MODEL 1
REMARK VINA RESULT:      -5.1      0.000      0.000
REMARK  Name = *****
REMARK  0 active torsions:
REMARK  status: ('A' for Active; 'I' for Inactive)
REMARK                            x       y       z     vdW  Elec       q    Type
REMARK                         _______ _______ _______ _____ _____    ______ ____
ROOT
ATOM      1  C   UNL     1     103.572 128.559  82.588  0.00  0.00    +0.000 C 
ATOM      2  C   UNL     1     104.952 127.954  82.890  0.00  0.00    +0.000 C 
ATOM      3  O   UNL     1     104.884 126.565  83.248  0.00  0.00    +0.000 OA
ATOM      4  C   UNL     1     105.147 125.714  82.203  0.00  0.00    +0.000 A 
ATOM      5  C   UNL     1     106.471 125.398  81.902  0.00  0.00    +0.000 A 
ATOM      6  C   UNL     1     106.746 124.464  80.901  0.00  0.00    +0.000 A 
ATOM      7  C   UNL     1     105.699 123.837  80.219  0.00  0.00    +0.000 A 
ATOM      8  C   UNL     1     104.372 124.138  80.536  0.00  0.00    +0.000 A 
ATOM      9  C   UNL     1     104.094 125.068  81.535  0.00  0.00    +0.000 A 
ATOM     10  C   UNL     1     102.749 125.435  81.845  0.00  0.00    +0.000 C 
ATOM     11  C   UNL     1     101.776 126.047  82.191  0.00  0.00    +0.000 C 
ATOM     12  C   UNL     1     100.879 127.061  82.646  0.00  0.00    +0.000 A 
ATOM     13  C   UNL     1      99.511 126.947  82.386  0.00  0.00    +0.000 A 
ATOM     14  C   UNL     1      98.630 127.936  82.830  0.00  0.00    +0.000 A 
ATOM     15  C   UNL     1      99.113 129.036  83.540  0.00  0.00    +0.000 A 
ATOM     16  C   UNL     1     100.479 129.156  83.802  0.00  0.00    +0.000 A 
ATOM     17  C   UNL     1     101.367 128.187  83.337  0.00  0.00    +0.000 A 
ATOM     18  O   UNL     1     102.685 128.345  83.698  0.00  0.00    +0.000 OA
ENDROOT
TORSDOF 0
ENDMDL
