MODEL 1
REMARK VINA RESULT:      -5.5      0.000      0.000
REMARK  Name = *****
REMARK  2 active torsions:
REMARK  status: ('A' for Active; 'I' for Inactive)
REMARK    1  A    between atoms: C_1  and  C_2
REMARK    2  A    between atoms: C_5  and  C_8
REMARK                            x       y       z     vdW  Elec       q    Type
REMARK                         _______ _______ _______ _____ _____    ______ ____
ROOT
ATOM      1  C   UNL     1     102.226 126.894  82.643  0.00  0.00    +0.000 C 
ATOM      2  C   UNL     1     100.893 127.068  82.587  0.00  0.00    +0.000 C 
ATOM      3  C   UNL     1     100.518 128.290  83.268  0.00  0.00    +0.000 A 
ATOM      4  C   UNL     1      99.277 128.871  83.457  0.00  0.00    +0.000 A 
ATOM      5  C   UNL     1      99.214 130.075  84.163  0.00  0.00    +0.000 A 
ATOM      6  C   UNL     1     100.383 130.674  84.665  0.00  0.00    +0.000 A 
ATOM      7  C   UNL     1     101.633 130.079  84.469  0.00  0.00    +0.000 A 
ATOM      8  C   UNL     1     101.681 128.886  83.768  0.00  0.00    +0.000 A 
ATOM      9  C   UNL     1     102.869 128.035  83.420  0.00  0.00    +0.000 C 
ATOM     10  F   UNL     1      99.995 126.258  82.007  0.00  0.00    +0.000 F 
ENDROOT
BRANCH   1  15
ATOM     11  C   UNL     1     105.429 122.561  80.458  0.00  0.00    +0.000 C 
ATOM     12  C   UNL     1     104.578 123.663  81.012  0.00  0.00    +0.000 A 
ATOM     13  C   UNL     1     104.143 124.708  80.195  0.00  0.00    +0.000 A 
ATOM     14  C   UNL     1     103.375 125.753  80.722  0.00  0.00    +0.000 A 
ATOM     15  C   UNL     1     103.024 125.789  82.079  0.00  0.00    +0.000 A 
ATOM     16  C   UNL     1     103.486 124.744  82.894  0.00  0.00    +0.000 A 
ATOM     17  C   UNL     1     104.254 123.697  82.370  0.00  0.00    +0.000 A 
ENDBRANCH   1  15
TORSDOF 1
ENDMDL
