MODEL 1
REMARK VINA RESULT:      -4.5      0.000      0.000
REMARK  Name = *****
REMARK  2 active torsions:
REMARK  status: ('A' for Active; 'I' for Inactive)
REMARK    1  A    between atoms: C_9  and  O_11
REMARK    2  A    between atoms: O_11  and  C_12
REMARK                            x       y       z     vdW  Elec       q    Type
REMARK                         _______ _______ _______ _____ _____    ______ ____
ROOT
ATOM      1  C   UNL     1      84.413  72.358  87.818  0.00  0.00    +0.000 A 
ATOM      2  C   UNL     1      84.504  72.354  86.431  0.00  0.00    +0.000 A 
ATOM      3  C   UNL     1      85.635  71.814  85.809  0.00  0.00    +0.000 A 
ATOM      4  C   UNL     1      86.684  71.276  86.541  0.00  0.00    +0.000 A 
ATOM      5  C   UNL     1      86.586  71.282  87.950  0.00  0.00    +0.000 A 
ATOM      6  C   UNL     1      85.451  71.823  88.579  0.00  0.00    +0.000 A 
ATOM      7  C   UNL     1      87.644  70.733  88.685  0.00  0.00    +0.000 A 
ATOM      8  C   UNL     1      88.745  70.209  88.019  0.00  0.00    +0.000 A 
ATOM      9  C   UNL     1      88.758  70.264  86.636  0.00  0.00    +0.000 A 
ATOM     10  N   UNL     1      87.748  70.771  85.894  0.00  0.00    +0.000 NA
ENDROOT
BRANCH   9  11
ATOM     11  O   UNL     1      89.851  69.687  86.010  0.00  0.00    +0.000 OA
BRANCH  11  12
ATOM     12  C   UNL     1      89.865  68.401  85.635  0.00  0.00    +0.000 A 
ATOM     13  C   UNL     1      90.133  67.242  86.343  0.00  0.00    +0.000 A 
ATOM     14  C   UNL     1      90.004  66.085  85.543  0.00  0.00    +0.000 A 
ATOM     15  C   UNL     1      89.627  66.347  84.255  0.00  0.00    +0.000 A 
ATOM     16  S   UNL     1      89.417  68.025  84.011  0.00  0.00    +0.000 S 
ATOM     17  F   UNL     1      90.216  64.878  85.993  0.00  0.00    +0.000 F 
ENDBRANCH  11  12
ENDBRANCH   9  11
TORSDOF 2
ENDMDL
