MODEL 1
REMARK VINA RESULT:      -4.2      0.000      0.000
REMARK  Name = *****
REMARK  4 active torsions:
REMARK  status: ('A' for Active; 'I' for Inactive)
REMARK    1  A    between atoms: C_1  and  C_2
REMARK    2  A    between atoms: C_5  and  C_7
REMARK    3  A    between atoms: C_8  and  C_9
REMARK    4  A    between atoms: C_12  and  C_14
REMARK                            x       y       z     vdW  Elec       q    Type
REMARK                         _______ _______ _______ _____ _____    ______ ____
ROOT
ATOM      1  C   UNL     1     101.577 125.965  82.434  0.00  0.00    +0.000 C 
ATOM      2  C   UNL     1     102.616 126.161  81.606  0.00  0.00    +0.000 C 
ENDROOT
BRANCH   1   7
ATOM      3  C   UNL     1      99.375 130.469  84.092  0.00  0.00    +0.000 C 
ATOM      4  C   UNL     1      99.590 129.117  83.501  0.00  0.00    +0.000 A 
ATOM      5  C   UNL     1      98.668 128.283  82.913  0.00  0.00    +0.000 A 
ATOM      6  C   UNL     1      99.255 127.063  82.463  0.00  0.00    +0.000 A 
ATOM      7  C   UNL     1     100.616 126.986  82.713  0.00  0.00    +0.000 A 
ATOM      8  S   UNL     1     101.151 128.426  83.504  0.00  0.00    +0.000 S 
ENDBRANCH   1   7
BRANCH   2   9
ATOM      9  C   UNL     1     103.579 125.143  81.325  0.00  0.00    +0.000 A 
ATOM     10  C   UNL     1     104.222 124.789  80.149  0.00  0.00    +0.000 A 
ATOM     11  C   UNL     1     105.125 123.697  80.306  0.00  0.00    +0.000 A 
ATOM     12  C   UNL     1     105.159 123.233  81.602  0.00  0.00    +0.000 A 
ATOM     13  S   UNL     1     104.103 124.117  82.611  0.00  0.00    +0.000 S 
ATOM     14  C   UNL     1     105.967 122.117  82.168  0.00  0.00    +0.000 C 
ENDBRANCH   2   9
TORSDOF 2
ENDMDL
