MODEL 1
REMARK VINA RESULT:      -4.7      0.000      0.000
REMARK  Name = *****
REMARK  5 active torsions:
REMARK  status: ('A' for Active; 'I' for Inactive)
REMARK    1  A    between atoms: C_1  and  C_2
REMARK    2  A    between atoms: C_3  and  C_17
REMARK    3  A    between atoms: C_4  and  N_8
REMARK    4  A    between atoms: C_9  and  C_10
REMARK    5  A    between atoms: C_9  and  C_11
REMARK                            x       y       z     vdW  Elec       q    Type
REMARK                         _______ _______ _______ _____ _____    ______ ____
ROOT
ATOM      1  N   UNL     1      87.537  63.990  87.745  0.00  0.00    +0.000 NA
ATOM      2  C   UNL     1      87.786  63.556  88.948  0.00  0.00    +0.000 C 
ATOM      3  C   UNL     1      89.106  63.765  89.668  0.00  0.00    +0.000 C 
ENDROOT
BRANCH   1   7
ATOM      4  C   UNL     1      89.697  68.313  86.440  0.00  0.00    +0.000 C 
ATOM      5  C   UNL     1      89.589  66.812  86.410  0.00  0.00    +0.000 A 
ATOM      6  C   UNL     1      88.551  66.128  87.087  0.00  0.00    +0.000 A 
ATOM      7  C   UNL     1      88.509  64.718  87.040  0.00  0.00    +0.000 A 
ATOM      8  C   UNL     1      89.488  64.015  86.330  0.00  0.00    +0.000 A 
ATOM      9  C   UNL     1      90.491  64.690  85.641  0.00  0.00    +0.000 A 
ATOM     10  C   UNL     1      90.538  66.080  85.677  0.00  0.00    +0.000 A 
ATOM     11  C   UNL     1      87.544  66.886  87.914  0.00  0.00    +0.000 C 
ENDBRANCH   1   7
BRANCH   2  12
ATOM     12  C   UNL     1      86.705  62.814  89.669  0.00  0.00    +0.000 A 
ATOM     13  C   UNL     1      86.227  63.322  90.884  0.00  0.00    +0.000 A 
ATOM     14  C   UNL     1      85.221  62.651  91.582  0.00  0.00    +0.000 A 
ATOM     15  C   UNL     1      84.694  61.465  91.074  0.00  0.00    +0.000 A 
ATOM     16  C   UNL     1      85.175  60.945  89.873  0.00  0.00    +0.000 A 
ATOM     17  C   UNL     1      86.181  61.615  89.171  0.00  0.00    +0.000 A 
ENDBRANCH   2  12
TORSDOF 2
ENDMDL
