MODEL 1
REMARK VINA RESULT:      -4.3      0.000      0.000
REMARK  Name = *****
REMARK  3 active torsions:
REMARK  status: ('A' for Active; 'I' for Inactive)
REMARK    1  A    between atoms: C_5  and  C_7
REMARK    2  A    between atoms: C_7  and  S_8
REMARK    3  A    between atoms: S_8  and  C_9
REMARK                            x       y       z     vdW  Elec       q    Type
REMARK                         _______ _______ _______ _____ _____    ______ ____
ROOT
ATOM      1  C   UNL     1     102.993 125.405  83.750  0.00  0.00    +0.000 C 
ENDROOT
BRANCH   1   6
ATOM      2  C   UNL     1     104.236 124.616  80.237  0.00  0.00    +0.000 A 
ATOM      3  C   UNL     1     104.922 123.419  80.419  0.00  0.00    +0.000 A 
ATOM      4  C   UNL     1     104.993 122.846  81.687  0.00  0.00    +0.000 A 
ATOM      5  C   UNL     1     104.377 123.467  82.781  0.00  0.00    +0.000 A 
ATOM      6  C   UNL     1     103.671 124.670  82.614  0.00  0.00    +0.000 A 
ATOM      7  C   UNL     1     103.619 125.237  81.325  0.00  0.00    +0.000 A 
ATOM      8 BR   UNL     1     104.549 122.609  84.467  0.00  0.00    +0.000 Br
ENDBRANCH   1   6
BRANCH   1   9
ATOM      9  S   UNL     1     103.006 127.207  83.463  0.00  0.00    +0.000 S 
BRANCH   9  10
ATOM     10  C   UNL     1     101.280 127.627  83.237  0.00  0.00    +0.000 A 
ATOM     11  C   UNL     1     100.489 126.638  82.627  0.00  0.00    +0.000 A 
ATOM     12  C   UNL     1      99.124 126.841  82.395  0.00  0.00    +0.000 A 
ATOM     13  C   UNL     1      98.525 128.040  82.767  0.00  0.00    +0.000 A 
ATOM     14  C   UNL     1      99.291 129.033  83.370  0.00  0.00    +0.000 A 
ATOM     15  C   UNL     1     100.653 128.826  83.601  0.00  0.00    +0.000 A 
ATOM     16  F   UNL     1     101.328 129.823  84.187  0.00  0.00    +0.000 F 
ENDBRANCH   9  10
ENDBRANCH   1   9
TORSDOF 3
ENDMDL
