MODEL 1
REMARK VINA RESULT:      -4.5      0.000      0.000
REMARK  Name = *****
REMARK  5 active torsions:
REMARK  status: ('A' for Active; 'I' for Inactive)
REMARK    1  A    between atoms: C_4  and  C_7
REMARK    2  A    between atoms: C_7  and  O_8
REMARK    3  A    between atoms: O_8  and  C_9
REMARK    4  A    between atoms: C_9  and  C_11
REMARK    5  A    between atoms: C_14  and  C_17
REMARK                            x       y       z     vdW  Elec       q    Type
REMARK                         _______ _______ _______ _____ _____    ______ ____
ROOT
ATOM      1  C   UNL     1     104.618 124.457  80.062  0.00  0.00    +0.000 C 
ATOM      2  O   UNL     1     105.573 124.673  79.333  0.00  0.00    +0.000 OA
ENDROOT
BRANCH   1   3
ATOM      3  C   UNL     1     104.583 123.353  81.061  0.00  0.00    +0.000 A 
ATOM      4  C   UNL     1     104.450 123.585  82.436  0.00  0.00    +0.000 A 
ATOM      5  C   UNL     1     104.430 122.512  83.333  0.00  0.00    +0.000 A 
ATOM      6  C   UNL     1     104.546 121.193  82.872  0.00  0.00    +0.000 A 
ATOM      7  C   UNL     1     104.666 120.965  81.494  0.00  0.00    +0.000 A 
ATOM      8  C   UNL     1     104.689 122.036  80.595  0.00  0.00    +0.000 A 
BRANCH   6   9
ATOM      9  C   UNL     1     104.509 120.040  83.837  0.00  0.00    +0.000 C 
ATOM     10 CL   UNL     1     105.426 118.664  83.198  0.00  0.00    +0.000 Cl
ENDBRANCH   6   9
ENDBRANCH   1   3
BRANCH   1  11
ATOM     11  O   UNL     1     103.462 125.162  80.100  0.00  0.00    +0.000 OA
BRANCH  11  12
ATOM     12  C   UNL     1     103.602 126.564  80.357  0.00  0.00    +0.000 C 
BRANCH  12  16
ATOM     13  C   UNL     1     101.400 127.638  83.904  0.00  0.00    +0.000 A 
ATOM     14  C   UNL     1     101.088 126.467  83.218  0.00  0.00    +0.000 A 
ATOM     15  C   UNL     1     101.801 126.118  82.070  0.00  0.00    +0.000 A 
ATOM     16  C   UNL     1     102.835 126.938  81.599  0.00  0.00    +0.000 A 
ATOM     17  C   UNL     1     103.134 128.120  82.291  0.00  0.00    +0.000 A 
ATOM     18  C   UNL     1     102.421 128.465  83.440  0.00  0.00    +0.000 A 
ENDBRANCH  12  16
ENDBRANCH  11  12
ENDBRANCH   1  11
TORSDOF 5
ENDMDL
