MODEL 1
REMARK VINA RESULT:      -4.8      0.000      0.000
REMARK  Name = *****
REMARK  2 active torsions:
REMARK  status: ('A' for Active; 'I' for Inactive)
REMARK    1  A    between atoms: C_5  and  C_7
REMARK    2  A    between atoms: C_8  and  C_9
REMARK                            x       y       z     vdW  Elec       q    Type
REMARK                         _______ _______ _______ _____ _____    ______ ____
ROOT
ATOM      1  C   UNL     1     101.689 125.967  82.384  0.00  0.00    +0.000 C 
ATOM      2  C   UNL     1     103.033 125.942  82.402  0.00  0.00    +0.000 C 
ENDROOT
BRANCH   1   7
ATOM      3  C   UNL     1     100.576 129.322  83.776  0.00  0.00    +0.000 A 
ATOM      4  C   UNL     1      99.212 129.290  83.487  0.00  0.00    +0.000 A 
ATOM      5  C   UNL     1      98.668 128.181  82.844  0.00  0.00    +0.000 A 
ATOM      6  C   UNL     1      99.492 127.115  82.489  0.00  0.00    +0.000 A 
ATOM      7  C   UNL     1     100.869 127.132  82.753  0.00  0.00    +0.000 A 
ATOM      8  C   UNL     1     101.398 128.247  83.418  0.00  0.00    +0.000 A 
ATOM      9  F   UNL     1      98.936 126.058  81.876  0.00  0.00    +0.000 F 
ENDBRANCH   1   7
BRANCH   2  10
ATOM     10  C   UNL     1     103.806 124.749  82.024  0.00  0.00    +0.000 A 
ATOM     11  C   UNL     1     104.095 124.522  80.668  0.00  0.00    +0.000 A 
ATOM     12  C   UNL     1     104.847 123.415  80.271  0.00  0.00    +0.000 A 
ATOM     13  C   UNL     1     105.327 122.520  81.223  0.00  0.00    +0.000 A 
ATOM     14  C   UNL     1     105.057 122.732  82.575  0.00  0.00    +0.000 A 
ATOM     15  C   UNL     1     104.304 123.842  82.977  0.00  0.00    +0.000 A 
ATOM     16 BR   UNL     1     103.976 124.045  84.840  0.00  0.00    +0.000 Br
ENDBRANCH   2  10
TORSDOF 2
ENDMDL
