REMARK  Name = *****
REMARK  4 active torsions:
REMARK  status: ('A' for Active; 'I' for Inactive)
REMARK    1  A    between atoms: C_1  and  O_2
REMARK    2  A    between atoms: O_2  and  C_3
REMARK    3  A    between atoms: C_6  and  C_9
REMARK    4  A    between atoms: C_10  and  C_11
REMARK                            x       y       z     vdW  Elec       q    Type
REMARK                         _______ _______ _______ _____ _____    ______ ____
ROOT
ATOM      1  C   UNL     1       6.144  -6.090   3.635  0.00  0.00    +0.000 A 
ATOM      2  C   UNL     1       6.884  -5.775   4.784  0.00  0.00    +0.000 A 
ATOM      3  C   UNL     1       7.616  -6.750   5.461  0.00  0.00    +0.000 A 
ATOM      4  C   UNL     1       7.614  -8.061   5.014  0.00  0.00    +0.000 A 
ATOM      5  C   UNL     1       6.876  -8.403   3.892  0.00  0.00    +0.000 A 
ATOM      6  C   UNL     1       6.145  -7.430   3.215  0.00  0.00    +0.000 A 
ATOM      7  F   UNL     1       5.433  -7.794   2.136  0.00  0.00    +0.000 F 
ATOM      8  F   UNL     1       6.861  -9.672   3.460  0.00  0.00    +0.000 F 
ATOM      9  F   UNL     1       8.317  -8.997   5.668  0.00  0.00    +0.000 F 
ATOM     10  F   UNL     1       8.318  -6.417   6.554  0.00  0.00    +0.000 F 
ATOM     11  F   UNL     1       6.893  -4.525   5.271  0.00  0.00    +0.000 F 
ENDROOT
BRANCH   1  13
ATOM     12  C   UNL     1       5.584  -3.799   2.800  0.00  0.00    +0.000 C 
ATOM     13  C   UNL     1       5.328  -5.115   2.888  0.00  0.00    +0.000 C 
BRANCH  12  17
ATOM     14  C   UNL     1       3.251  -0.972   0.567  0.00  0.00    +0.000 A 
ATOM     15  C   UNL     1       2.615  -2.014   1.240  0.00  0.00    +0.000 A 
ATOM     16  C   UNL     1       3.366  -2.947   1.967  0.00  0.00    +0.000 A 
ATOM     17  C   UNL     1       4.763  -2.858   2.022  0.00  0.00    +0.000 A 
ATOM     18  C   UNL     1       5.392  -1.799   1.359  0.00  0.00    +0.000 A 
ATOM     19  C   UNL     1       4.641  -0.869   0.634  0.00  0.00    +0.000 A 
BRANCH  14  21
ATOM     20  C   UNL     1       1.223  -0.066  -0.280  0.00  0.00    +0.000 C 
ATOM     21  O   UNL     1       2.640   0.002  -0.173  0.00  0.00    +0.000 OA
ENDBRANCH  14  21
ENDBRANCH  12  17
ENDBRANCH   1  13
TORSDOF 3
