MODEL 1
REMARK VINA RESULT:      -4.9      0.000      0.000
REMARK  Name = *****
REMARK  1 active torsions:
REMARK  status: ('A' for Active; 'I' for Inactive)
REMARK    1  A    between atoms: C_8  and  C_10
REMARK                            x       y       z     vdW  Elec       q    Type
REMARK                         _______ _______ _______ _____ _____    ______ ____
ROOT
ATOM      1  C   UNL     1     105.182 123.499  80.438  0.00  0.00    +0.000 A 
ATOM      2  C   UNL     1     105.349 122.980  81.714  0.00  0.00    +0.000 A 
ATOM      3  C   UNL     1     104.645 123.514  82.795  0.00  0.00    +0.000 A 
ATOM      4  C   UNL     1     103.761 124.589  82.570  0.00  0.00    +0.000 A 
ATOM      5  C   UNL     1     103.578 125.127  81.296  0.00  0.00    +0.000 A 
ATOM      6  C   UNL     1     104.304 124.564  80.219  0.00  0.00    +0.000 A 
ATOM      7  C   UNL     1     102.633 126.207  81.323  0.00  0.00    +0.000 A 
ATOM      8  C   UNL     1     102.131 126.477  82.582  0.00  0.00    +0.000 A 
ATOM      9  S   UNL     1     102.793 125.398  83.738  0.00  0.00    +0.000 S 
ENDROOT
BRANCH   8  10
ATOM     10  C   UNL     1     101.147 127.494  82.980  0.00  0.00    +0.000 A 
ATOM     11  C   UNL     1     101.527 128.649  83.685  0.00  0.00    +0.000 A 
ATOM     12  C   UNL     1     100.582 129.615  84.048  0.00  0.00    +0.000 A 
ATOM     13  C   UNL     1      99.240 129.445  83.710  0.00  0.00    +0.000 A 
ATOM     14  C   UNL     1      98.846 128.311  83.006  0.00  0.00    +0.000 A 
ATOM     15  C   UNL     1      99.792 127.352  82.646  0.00  0.00    +0.000 A 
ATOM     16  F   UNL     1      99.364 126.273  81.971  0.00  0.00    +0.000 F 
ENDBRANCH   8  10
TORSDOF 1
ENDMDL
