MODEL 1
REMARK VINA RESULT:      -4.3      0.000      0.000
REMARK  Name = *****
REMARK  3 active torsions:
REMARK  status: ('A' for Active; 'I' for Inactive)
REMARK    1  A    between atoms: C_1  and  C_2
REMARK    2  A    between atoms: C_2  and  C_9
REMARK    3  A    between atoms: C_3  and  C_4
REMARK                            x       y       z     vdW  Elec       q    Type
REMARK                         _______ _______ _______ _____ _____    ______ ____
ROOT
ATOM      1  C   UNL     1     103.102 127.147  80.810  0.00  0.00    +0.000 C 
ATOM      2  C   UNL     1     102.771 126.007  81.734  0.00  0.00    +0.000 C 
ATOM      3  C   UNL     1     101.766 125.956  82.631  0.00  0.00    +0.000 C 
ENDROOT
BRANCH   2   4
ATOM      4  C   UNL     1     103.679 124.842  81.639  0.00  0.00    +0.000 A 
ATOM      5  C   UNL     1     103.976 124.083  82.779  0.00  0.00    +0.000 A 
ATOM      6  C   UNL     1     104.828 122.979  82.694  0.00  0.00    +0.000 A 
ATOM      7  C   UNL     1     105.387 122.621  81.469  0.00  0.00    +0.000 A 
ATOM      8  C   UNL     1     105.096 123.366  80.327  0.00  0.00    +0.000 A 
ATOM      9  C   UNL     1     104.246 124.471  80.412  0.00  0.00    +0.000 A 
ENDBRANCH   2   4
BRANCH   3  10
ATOM     10  C   UNL     1     100.791 126.979  82.813  0.00  0.00    +0.000 A 
ATOM     11  C   UNL     1      99.460 127.036  82.433  0.00  0.00    +0.000 A 
ATOM     12  C   UNL     1      98.813 128.243  82.828  0.00  0.00    +0.000 A 
ATOM     13  C   UNL     1      99.662 129.075  83.519  0.00  0.00    +0.000 A 
ATOM     14  S   UNL     1     101.219 128.397  83.696  0.00  0.00    +0.000 S 
ENDBRANCH   3  10
TORSDOF 2
ENDMDL
