REMARK  Name = *****
REMARK  3 active torsions:
REMARK  status: ('A' for Active; 'I' for Inactive)
REMARK    1  A    between atoms: C_4  and  C_14
REMARK    2  A    between atoms: C_5  and  C_7
REMARK    3  A    between atoms: C_8  and  C_9
REMARK                            x       y       z     vdW  Elec       q    Type
REMARK                         _______ _______ _______ _____ _____    ______ ____
ROOT
ATOM      1  C   UNL     1       1.958  -0.099  -0.895  0.00  0.00    +0.000 A 
ATOM      2  C   UNL     1       1.521  -1.247  -0.240  0.00  0.00    +0.000 A 
ATOM      3  C   UNL     1       0.389  -1.194   0.573  0.00  0.00    +0.000 A 
ATOM      4  C   UNL     1      -0.316   0.009   0.736  0.00  0.00    +0.000 A 
ATOM      5  C   UNL     1       0.119   1.169   0.069  0.00  0.00    +0.000 A 
ATOM      6  C   UNL     1       1.264   1.102  -0.740  0.00  0.00    +0.000 A 
ENDROOT
BRANCH   5   7
ATOM      7  C   UNL     1      -0.549   2.475   0.184  0.00  0.00    +0.000 C 
ATOM      8  C   UNL     1      -1.778   2.701  -0.309  0.00  0.00    +0.000 C 
BRANCH   8   9
ATOM      9  C   UNL     1      -2.501   3.939  -0.260  0.00  0.00    +0.000 A 
ATOM     10  C   UNL     1      -2.009   5.137   0.218  0.00  0.00    +0.000 A 
ATOM     11  S   UNL     1      -3.156   6.406   0.115  0.00  0.00    +0.000 S 
ATOM     12  C   UNL     1      -4.326   5.364  -0.566  0.00  0.00    +0.000 A 
ATOM     13  C   UNL     1      -3.850   4.080  -0.715  0.00  0.00    +0.000 A 
ENDBRANCH   8   9
ENDBRANCH   5   7
BRANCH   4  14
ATOM     14  C   UNL     1      -1.464   0.014   1.599  0.00  0.00    +0.000 C 
ATOM     15  N   UNL     1      -2.393  -0.013   2.295  0.00  0.00    +0.000 NA
ENDBRANCH   4  14
TORSDOF 3
