REMARK  Name = *****
REMARK  3 active torsions:
REMARK  status: ('A' for Active; 'I' for Inactive)
REMARK    1  A    between atoms: C_4  and  C_7
REMARK    2  A    between atoms: C_8  and  C_9
REMARK    3  A    between atoms: C_9  and  C_10
REMARK                            x       y       z     vdW  Elec       q    Type
REMARK                         _______ _______ _______ _____ _____    ______ ____
ROOT
ATOM      1  C   UNL     1      -5.148  -0.395  -0.468  0.00  0.00    +0.000 C 
ENDROOT
BRANCH   1   2
ATOM      2  C   UNL     1      -5.660  -1.320  -1.535  0.00  0.00    +0.000 A 
ATOM      3  C   UNL     1      -6.119  -2.600  -1.223  0.00  0.00    +0.000 A 
ATOM      4  C   UNL     1      -6.576  -3.473  -2.210  0.00  0.00    +0.000 A 
ATOM      5  C   UNL     1      -6.573  -3.071  -3.545  0.00  0.00    +0.000 A 
ATOM      6  C   UNL     1      -6.112  -1.798  -3.879  0.00  0.00    +0.000 A 
ATOM      7  C   UNL     1      -5.660  -0.939  -2.878  0.00  0.00    +0.000 A 
ATOM      8  F   UNL     1      -5.222   0.279  -3.228  0.00  0.00    +0.000 F 
ATOM      9  F   UNL     1      -6.126  -3.014   0.053  0.00  0.00    +0.000 F 
ENDBRANCH   1   2
BRANCH   1  11
ATOM     10  C   UNL     1      -2.746   0.337  -0.478  0.00  0.00    +0.000 C 
ATOM     11  C   UNL     1      -3.681  -0.587  -0.202  0.00  0.00    +0.000 C 
BRANCH  10  15
ATOM     12  C   UNL     1       1.449  -0.070   0.251  0.00  0.00    +0.000 A 
ATOM     13  C   UNL     1       0.716  -1.176  -0.173  0.00  0.00    +0.000 A 
ATOM     14  C   UNL     1      -0.657  -1.059  -0.407  0.00  0.00    +0.000 A 
ATOM     15  C   UNL     1      -1.312   0.164  -0.210  0.00  0.00    +0.000 A 
ATOM     16  C   UNL     1      -0.561   1.273   0.199  0.00  0.00    +0.000 A 
ATOM     17  C   UNL     1       0.812   1.156   0.435  0.00  0.00    +0.000 A 
ENDBRANCH  10  15
ENDBRANCH   1  11
TORSDOF 3
