MODEL 1
REMARK VINA RESULT:      -4.8      0.000      0.000
REMARK  Name = *****
REMARK  3 active torsions:
REMARK  status: ('A' for Active; 'I' for Inactive)
REMARK    1  A    between atoms: C_4  and  C_7
REMARK    2  A    between atoms: C_8  and  C_9
REMARK    3  A    between atoms: C_8  and  N_15
REMARK                            x       y       z     vdW  Elec       q    Type
REMARK                         _______ _______ _______ _____ _____    ______ ____
ROOT
ATOM      1  C   UNL     1     101.883 125.996  82.683  0.00  0.00    +0.000 C 
ATOM      2  C   UNL     1     102.852 125.995  81.742  0.00  0.00    +0.000 C 
ENDROOT
BRANCH   1   6
ATOM      3  C   UNL     1      99.004 129.086  83.330  0.00  0.00    +0.000 A 
ATOM      4  C   UNL     1      98.629 127.925  82.655  0.00  0.00    +0.000 A 
ATOM      5  C   UNL     1      99.562 126.911  82.433  0.00  0.00    +0.000 A 
ATOM      6  C   UNL     1     100.883 127.055  82.878  0.00  0.00    +0.000 A 
ATOM      7  C   UNL     1     101.248 128.217  83.567  0.00  0.00    +0.000 A 
ATOM      8  C   UNL     1     100.312 129.232  83.787  0.00  0.00    +0.000 A 
ENDBRANCH   1   6
BRANCH   2   9
ATOM      9  C   UNL     1     103.745 124.808  81.654  0.00  0.00    +0.000 A 
ATOM     10  C   UNL     1     104.053 124.080  82.812  0.00  0.00    +0.000 A 
ATOM     11  C   UNL     1     104.874 122.953  82.746  0.00  0.00    +0.000 A 
ATOM     12  C   UNL     1     105.391 122.538  81.520  0.00  0.00    +0.000 A 
ATOM     13  C   UNL     1     105.084 123.246  80.359  0.00  0.00    +0.000 A 
ATOM     14  C   UNL     1     104.263 124.374  80.424  0.00  0.00    +0.000 A 
ENDBRANCH   2   9
BRANCH   2  15
ATOM     15  N   UNL     1     102.992 126.985  80.796  0.00  0.00    +0.000 NA
ATOM     16  C   UNL     1     103.795 127.782  81.115  0.00  0.00    +0.000 C 
ATOM     17  O   UNL     1     104.601 128.580  81.426  0.00  0.00    +0.000 OA
ENDBRANCH   2  15
TORSDOF 3
ENDMDL
