MODEL 1
REMARK VINA RESULT:      -5.0      0.000      0.000
REMARK  Name = *****
REMARK  3 active torsions:
REMARK  status: ('A' for Active; 'I' for Inactive)
REMARK    1  A    between atoms: C_6  and  C_7
REMARK    2  A    between atoms: C_8  and  C_9
REMARK    3  A    between atoms: C_8  and  C_11
REMARK                            x       y       z     vdW  Elec       q    Type
REMARK                         _______ _______ _______ _____ _____    ______ ____
ROOT
ATOM      1  C   UNL     1     102.235 125.737  82.573  0.00  0.00    +0.000 C 
ATOM      2  C   UNL     1     103.159 125.694  81.592  0.00  0.00    +0.000 C 
ENDROOT
BRANCH   1   8
ATOM      3  C   UNL     1     101.840 127.977  83.549  0.00  0.00    +0.000 A 
ATOM      4  C   UNL     1     101.003 129.052  83.852  0.00  0.00    +0.000 A 
ATOM      5  C   UNL     1      99.666 129.009  83.475  0.00  0.00    +0.000 A 
ATOM      6  C   UNL     1      99.149 127.908  82.803  0.00  0.00    +0.000 A 
ATOM      7  C   UNL     1      99.983 126.831  82.498  0.00  0.00    +0.000 A 
ATOM      8  C   UNL     1     101.338 126.863  82.861  0.00  0.00    +0.000 A 
ATOM      9  F   UNL     1      98.864 130.040  83.769  0.00  0.00    +0.000 F 
ENDBRANCH   1   8
BRANCH   2  10
ATOM     10  C   UNL     1     103.995 124.480  81.457  0.00  0.00    +0.000 A 
ATOM     11  C   UNL     1     104.165 123.600  82.540  0.00  0.00    +0.000 A 
ATOM     12  C   UNL     1     104.949 122.452  82.405  0.00  0.00    +0.000 A 
ATOM     13  C   UNL     1     105.561 122.179  81.188  0.00  0.00    +0.000 A 
ATOM     14  C   UNL     1     105.403 123.031  80.102  0.00  0.00    +0.000 A 
ATOM     15  C   UNL     1     104.618 124.180  80.234  0.00  0.00    +0.000 A 
ATOM     16  F   UNL     1     106.312 121.078  81.059  0.00  0.00    +0.000 F 
ENDBRANCH   2  10
BRANCH   2  17
ATOM     17  C   UNL     1     103.398 126.794  80.708  0.00  0.00    +0.000 C 
ATOM     18  N   UNL     1     103.595 127.693  80.002  0.00  0.00    +0.000 NA
ENDBRANCH   2  17
TORSDOF 3
ENDMDL
