REMARK  Name = *****
REMARK  4 active torsions:
REMARK  status: ('A' for Active; 'I' for Inactive)
REMARK    1  A    between atoms: C_1  and  C_2
REMARK    2  A    between atoms: C_2  and  C_3
REMARK    3  A    between atoms: C_2  and  N_9
REMARK    4  A    between atoms: C_10  and  C_12
REMARK                            x       y       z     vdW  Elec       q    Type
REMARK                         _______ _______ _______ _____ _____    ______ ____
ROOT
ATOM      1  N   UNL     1       2.567   1.645  -0.743  0.00  0.00    +0.000 NA
ATOM      2  C   UNL     1       3.477   2.694  -0.270  0.00  0.00    +0.000 C 
ATOM      3  O   UNL     1       2.064   2.936  -0.331  0.00  0.00    +0.000 OA
ENDROOT
BRANCH   2   4
ATOM      4  C   UNL     1       4.348   3.368  -1.297  0.00  0.00    +0.000 A 
ATOM      5  C   UNL     1       4.267   4.752  -1.530  0.00  0.00    +0.000 A 
ATOM      6  C   UNL     1       5.091   5.383  -2.466  0.00  0.00    +0.000 A 
ATOM      7  C   UNL     1       6.020   4.640  -3.188  0.00  0.00    +0.000 A 
ATOM      8  C   UNL     1       6.124   3.268  -2.976  0.00  0.00    +0.000 A 
ATOM      9  C   UNL     1       5.296   2.643  -2.040  0.00  0.00    +0.000 A 
ENDBRANCH   2   4
BRANCH   1  11
ATOM     10  C   UNL     1       3.205  -0.401   0.369  0.00  0.00    +0.000 C 
ATOM     11  C   UNL     1       2.136   0.702   0.307  0.00  0.00    +0.000 C 
BRANCH  11  12
ATOM     12  C   UNL     1       0.723   0.107  -0.015  0.00  0.00    +0.000 C 
ATOM     13  C   UNL     1      -0.361   1.198  -0.151  0.00  0.00    +0.000 C 
ATOM     14  C   UNL     1      -1.754   0.622  -0.392  0.00  0.00    +0.000 C 
ATOM     15  C   UNL     1      -2.145  -0.379   0.685  0.00  0.00    +0.000 C 
ATOM     16  C   UNL     1      -1.107  -1.485   0.800  0.00  0.00    +0.000 C 
ATOM     17  C   UNL     1       0.291  -0.925   1.051  0.00  0.00    +0.000 C 
ENDBRANCH  11  12
ENDBRANCH   1  11
TORSDOF 3
