MODEL 1
REMARK VINA RESULT:      -4.6      0.000      0.000
REMARK  Name = *****
REMARK  3 active torsions:
REMARK  status: ('A' for Active; 'I' for Inactive)
REMARK    1  A    between atoms: C_4  and  C_7
REMARK    2  A    between atoms: C_7  and  C_9
REMARK    3  A    between atoms: C_9  and  C_10
REMARK                            x       y       z     vdW  Elec       q    Type
REMARK                         _______ _______ _______ _____ _____    ______ ____
ROOT
ATOM      1  C   UNL     1      87.740  70.788  85.888  0.00  0.00    +0.000 C 
ATOM      2  O   UNL     1      87.893  70.741  84.666  0.00  0.00    +0.000 OA
ENDROOT
BRANCH   1   6
ATOM      3  C   UNL     1      84.175  72.467  87.604  0.00  0.00    +0.000 A 
ATOM      4  C   UNL     1      85.164  71.916  88.414  0.00  0.00    +0.000 A 
ATOM      5  C   UNL     1      86.315  71.373  87.837  0.00  0.00    +0.000 A 
ATOM      6  C   UNL     1      86.485  71.380  86.446  0.00  0.00    +0.000 A 
ATOM      7  C   UNL     1      85.484  71.931  85.638  0.00  0.00    +0.000 A 
ATOM      8  C   UNL     1      84.332  72.473  86.219  0.00  0.00    +0.000 A 
ENDBRANCH   1   6
BRANCH   1   9
ATOM      9  C   UNL     1      88.806  70.247  86.824  0.00  0.00    +0.000 C 
BRANCH   9  10
ATOM     10  C   UNL     1      88.888  68.739  86.870  0.00  0.00    +0.000 A 
ATOM     11  C   UNL     1      87.835  67.996  87.426  0.00  0.00    +0.000 A 
ATOM     12  C   UNL     1      87.886  66.600  87.450  0.00  0.00    +0.000 A 
ATOM     13  C   UNL     1      88.982  65.937  86.904  0.00  0.00    +0.000 A 
ATOM     14  C   UNL     1      90.026  66.659  86.329  0.00  0.00    +0.000 A 
ATOM     15  C   UNL     1      89.975  68.054  86.306  0.00  0.00    +0.000 A 
ATOM     16 CL   UNL     1      89.043  64.218  86.933  0.00  0.00    +0.000 Cl
ENDBRANCH   9  10
ENDBRANCH   1   9
TORSDOF 3
ENDMDL
