MODEL 1
REMARK VINA RESULT:      -4.5      0.000      0.000
REMARK  Name = *****
REMARK  3 active torsions:
REMARK  status: ('A' for Active; 'I' for Inactive)
REMARK    1  A    between atoms: C_4  and  C_7
REMARK    2  A    between atoms: C_8  and  C_9
REMARK    3  A    between atoms: C_12  and  C_15
REMARK                            x       y       z     vdW  Elec       q    Type
REMARK                         _______ _______ _______ _____ _____    ______ ____
ROOT
ATOM      1  C   UNL     1      98.010 118.470  80.585  0.00  0.00    +0.000 C 
ATOM      2  C   UNL     1      97.537 117.561  79.961  0.00  0.00    +0.000 C 
ENDROOT
BRANCH   1   6
ATOM      3  C   UNL     1      96.821 120.172  83.678  0.00  0.00    +0.000 C 
ATOM      4  C   UNL     1      97.735 118.950  83.671  0.00  0.00    +0.000 C 
ATOM      5  C   UNL     1      98.955 119.163  82.774  0.00  0.00    +0.000 C 
ATOM      6  C   UNL     1      98.585 119.596  81.349  0.00  0.00    +0.000 C 
ATOM      7  C   UNL     1      97.628 120.796  81.365  0.00  0.00    +0.000 C 
ATOM      8  C   UNL     1      96.412 120.578  82.267  0.00  0.00    +0.000 C 
ENDBRANCH   1   6
BRANCH   2   9
ATOM      9  C   UNL     1      96.962 116.485  79.214  0.00  0.00    +0.000 A 
ATOM     10  C   UNL     1      96.170 115.531  79.856  0.00  0.00    +0.000 A 
ATOM     11  C   UNL     1      95.607 114.480  79.126  0.00  0.00    +0.000 A 
ATOM     12  C   UNL     1      95.837 114.381  77.748  0.00  0.00    +0.000 A 
ATOM     13  C   UNL     1      96.632 115.338  77.106  0.00  0.00    +0.000 A 
ATOM     14  C   UNL     1      97.192 116.389  77.840  0.00  0.00    +0.000 A 
BRANCH  12  15
ATOM     15  C   UNL     1      95.261 113.304  76.998  0.00  0.00    +0.000 C 
ATOM     16  N   UNL     1      94.795 112.431  76.391  0.00  0.00    +0.000 NA
ENDBRANCH  12  15
ENDBRANCH   2   9
TORSDOF 3
ENDMDL
