MODEL 1
REMARK VINA RESULT:      -4.8      0.000      0.000
REMARK  Name = *****
REMARK  5 active torsions:
REMARK  status: ('A' for Active; 'I' for Inactive)
REMARK    1  A    between atoms: C_1  and  C_2
REMARK    2  A    between atoms: C_5  and  C_8
REMARK    3  A    between atoms: C_9  and  C_10
REMARK    4  A    between atoms: C_15  and  O_16
REMARK    5  A    between atoms: O_16  and  C_17
REMARK                            x       y       z     vdW  Elec       q    Type
REMARK                         _______ _______ _______ _____ _____    ______ ____
ROOT
ATOM      1  C   UNL     1     102.781 126.205  82.471  0.00  0.00    +0.000 C 
ATOM      2  C   UNL     1     101.444 126.280  82.577  0.00  0.00    +0.000 C 
ENDROOT
BRANCH   1   7
ATOM      3  C   UNL     1     105.796 121.445  81.117  0.00  0.00    +0.000 C 
ATOM      4  C   UNL     1     104.986 122.663  81.450  0.00  0.00    +0.000 A 
ATOM      5  C   UNL     1     104.655 123.588  80.456  0.00  0.00    +0.000 A 
ATOM      6  C   UNL     1     103.927 124.741  80.771  0.00  0.00    +0.000 A 
ATOM      7  C   UNL     1     103.517 124.991  82.086  0.00  0.00    +0.000 A 
ATOM      8  C   UNL     1     103.879 124.077  83.083  0.00  0.00    +0.000 A 
ATOM      9  C   UNL     1     104.606 122.925  82.770  0.00  0.00    +0.000 A 
ENDBRANCH   1   7
BRANCH   2  10
ATOM     10  C   UNL     1     100.727 127.511  82.948  0.00  0.00    +0.000 A 
ATOM     11  C   UNL     1     101.389 128.564  83.599  0.00  0.00    +0.000 A 
ATOM     12  C   UNL     1     100.692 129.710  83.994  0.00  0.00    +0.000 A 
ATOM     13  C   UNL     1      99.321 129.812  83.761  0.00  0.00    +0.000 A 
ATOM     14  C   UNL     1      98.645 128.771  83.127  0.00  0.00    +0.000 A 
ATOM     15  C   UNL     1      99.349 127.637  82.711  0.00  0.00    +0.000 A 
BRANCH  15  16
ATOM     16  O   UNL     1      98.642 126.619  82.118  0.00  0.00    +0.000 OA
ATOM     17  C   UNL     1      97.595 126.185  82.988  0.00  0.00    +0.000 C 
ENDBRANCH  15  16
ENDBRANCH   2  10
TORSDOF 3
ENDMDL
