MODEL 1
REMARK VINA RESULT:      -4.3      0.000      0.000
REMARK  Name = *****
REMARK  6 active torsions:
REMARK  status: ('A' for Active; 'I' for Inactive)
REMARK    1  A    between atoms: C_1  and  C_2
REMARK    2  A    between atoms: C_2  and  N_3
REMARK    3  A    between atoms: N_3  and  C_4
REMARK    4  A    between atoms: N_3  and  C_5
REMARK    5  A    between atoms: C_10  and  C_11
REMARK    6  A    between atoms: C_12  and  C_13
REMARK                            x       y       z     vdW  Elec       q    Type
REMARK                         _______ _______ _______ _____ _____    ______ ____
ROOT
ATOM      1  C   UNL     1      89.062  64.845  86.408  0.00  0.00    +0.000 A 
ATOM      2  C   UNL     1      89.854  63.789  85.919  0.00  0.00    +0.000 A 
ATOM      3  C   UNL     1      91.104  64.029  85.339  0.00  0.00    +0.000 A 
ATOM      4  C   UNL     1      91.587  65.329  85.234  0.00  0.00    +0.000 A 
ATOM      5  C   UNL     1      90.819  66.393  85.706  0.00  0.00    +0.000 A 
ATOM      6  C   UNL     1      89.565  66.160  86.286  0.00  0.00    +0.000 A 
ENDROOT
BRANCH   1   7
ATOM      7  N   UNL     1      87.782  64.613  86.978  0.00  0.00    +0.000 N 
ATOM      8  C   UNL     1      86.800  64.355  85.917  0.00  0.00    +0.000 C 
BRANCH   7  10
ATOM      9  C   UNL     1      88.464  64.269  89.314  0.00  0.00    +0.000 C 
ATOM     10  C   UNL     1      87.765  63.667  88.102  0.00  0.00    +0.000 C 
ENDBRANCH   7  10
ENDBRANCH   1   7
BRANCH   6  11
ATOM     11  C   UNL     1      88.823  67.292  86.765  0.00  0.00    +0.000 C 
ATOM     12  C   UNL     1      88.206  68.247  87.154  0.00  0.00    +0.000 C 
BRANCH  12  13
ATOM     13  C   UNL     1      87.477  69.395  87.597  0.00  0.00    +0.000 A 
ATOM     14  C   UNL     1      87.335  69.654  88.961  0.00  0.00    +0.000 A 
ATOM     15  C   UNL     1      86.625  70.777  89.389  0.00  0.00    +0.000 A 
ATOM     16  C   UNL     1      86.055  71.640  88.453  0.00  0.00    +0.000 A 
ATOM     17  C   UNL     1      86.195  71.383  87.089  0.00  0.00    +0.000 A 
ATOM     18  C   UNL     1      86.905  70.260  86.660  0.00  0.00    +0.000 A 
ENDBRANCH  12  13
ENDBRANCH   6  11
TORSDOF 4
ENDMDL
