MODEL 1
REMARK VINA RESULT:      -4.6      0.000      0.000
REMARK  Name = *****
REMARK  4 active torsions:
REMARK  status: ('A' for Active; 'I' for Inactive)
REMARK    1  A    between atoms: C_1  and  O_2
REMARK    2  A    between atoms: O_2  and  C_3
REMARK    3  A    between atoms: C_6  and  C_9
REMARK    4  A    between atoms: C_10  and  C_11
REMARK                            x       y       z     vdW  Elec       q    Type
REMARK                         _______ _______ _______ _____ _____    ______ ____
ROOT
ATOM      1  C   UNL     1     102.716 125.926  82.535  0.00  0.00    +0.000 C 
ATOM      2  C   UNL     1     102.011 126.836  82.883  0.00  0.00    +0.000 C 
ENDROOT
BRANCH   2   3
ATOM      3  C   UNL     1     101.174 127.925  83.292  0.00  0.00    +0.000 A 
ATOM      4  C   UNL     1      99.788 127.928  83.064  0.00  0.00    +0.000 A 
ATOM      5  C   UNL     1      99.009 129.008  83.481  0.00  0.00    +0.000 A 
ATOM      6  C   UNL     1      99.617 130.080  84.124  0.00  0.00    +0.000 A 
ATOM      7  C   UNL     1     100.987 130.095  84.357  0.00  0.00    +0.000 A 
ATOM      8  C   UNL     1     101.768 129.016  83.941  0.00  0.00    +0.000 A 
ATOM      9  F   UNL     1      98.869 131.117  84.524  0.00  0.00    +0.000 F 
ATOM     10 CL   UNL     1      98.989 126.617  82.267  0.00  0.00    +0.000 Cl
ENDBRANCH   2   3
BRANCH   1  14
ATOM     11  C   UNL     1     105.201 122.738  81.274  0.00  0.00    +0.000 A 
ATOM     12  C   UNL     1     104.815 122.841  82.610  0.00  0.00    +0.000 A 
ATOM     13  C   UNL     1     103.994 123.896  83.027  0.00  0.00    +0.000 A 
ATOM     14  C   UNL     1     103.556 124.852  82.108  0.00  0.00    +0.000 A 
ATOM     15  C   UNL     1     103.940 124.753  80.772  0.00  0.00    +0.000 A 
ATOM     16  C   UNL     1     104.760 123.699  80.360  0.00  0.00    +0.000 A 
BRANCH  11  18
ATOM     17  C   UNL     1     107.370 122.075  80.564  0.00  0.00    +0.000 C 
ATOM     18  O   UNL     1     105.994 121.762  80.737  0.00  0.00    +0.000 OA
ENDBRANCH  11  18
ENDBRANCH   1  14
TORSDOF 3
ENDMDL
