MODEL 1
REMARK VINA RESULT:      -4.6      0.000      0.000
REMARK  Name = *****
REMARK  3 active torsions:
REMARK  status: ('A' for Active; 'I' for Inactive)
REMARK    1  A    between atoms: C_4  and  C_7
REMARK    2  A    between atoms: C_8  and  C_9
REMARK    3  A    between atoms: C_12  and  S_15
REMARK                            x       y       z     vdW  Elec       q    Type
REMARK                         _______ _______ _______ _____ _____    ______ ____
ROOT
ATOM      1  C   UNL     1     101.986 125.958  82.608  0.00  0.00    +0.000 C 
ATOM      2  C   UNL     1     102.724 125.835  81.493  0.00  0.00    +0.000 C 
ENDROOT
BRANCH   1   6
ATOM      3  C   UNL     1      99.000 128.956  83.245  0.00  0.00    +0.000 A 
ATOM      4  C   UNL     1      98.647 127.754  82.634  0.00  0.00    +0.000 A 
ATOM      5  C   UNL     1      99.613 126.770  82.414  0.00  0.00    +0.000 A 
ATOM      6  C   UNL     1     100.947 126.982  82.791  0.00  0.00    +0.000 A 
ATOM      7  C   UNL     1     101.285 128.187  83.420  0.00  0.00    +0.000 A 
ATOM      8  C   UNL     1     100.318 129.171  83.640  0.00  0.00    +0.000 A 
ENDBRANCH   1   6
BRANCH   2   9
ATOM      9  C   UNL     1     103.775 124.823  81.314  0.00  0.00    +0.000 A 
ATOM     10  C   UNL     1     104.478 124.678  80.113  0.00  0.00    +0.000 A 
ATOM     11  C   UNL     1     105.495 123.724  79.990  0.00  0.00    +0.000 A 
ATOM     12  C   UNL     1     105.827 122.907  81.072  0.00  0.00    +0.000 A 
ATOM     13  C   UNL     1     105.146 123.062  82.281  0.00  0.00    +0.000 A 
ATOM     14  C   UNL     1     104.130 124.016  82.402  0.00  0.00    +0.000 A 
BRANCH  12  15
ATOM     15  S   UNL     1     107.125 121.699  80.937  0.00  0.00    +0.000 S 
ATOM     16  H   UNL     1     108.327 122.299  81.153  0.00  0.00    +0.000 HD
ENDBRANCH  12  15
ENDBRANCH   2   9
TORSDOF 3
ENDMDL
