MODEL 1
REMARK VINA RESULT:      -4.6      0.000      0.000
REMARK  Name = *****
REMARK  3 active torsions:
REMARK  status: ('A' for Active; 'I' for Inactive)
REMARK    1  A    between atoms: C_4  and  C_7
REMARK    2  A    between atoms: C_7  and  C_11
REMARK    3  A    between atoms: C_11  and  C_12
REMARK                            x       y       z     vdW  Elec       q    Type
REMARK                         _______ _______ _______ _____ _____    ______ ____
ROOT
ATOM      1  C   UNL     1      99.937 127.711  83.385  0.00  0.00    +0.000 C 
ATOM      2  C   UNL     1      99.074 127.165  82.516  0.00  0.00    +0.000 C 
ATOM      3  F   UNL     1      99.412 126.042  81.847  0.00  0.00    +0.000 F 
ATOM      4  F   UNL     1      97.864 127.724  82.295  0.00  0.00    +0.000 F 
ENDROOT
BRANCH   1   8
ATOM      5  C   UNL     1      98.840 131.224  85.550  0.00  0.00    +0.000 A 
ATOM      6  C   UNL     1      99.409 131.336  84.282  0.00  0.00    +0.000 A 
ATOM      7  C   UNL     1      99.768 130.189  83.573  0.00  0.00    +0.000 A 
ATOM      8  C   UNL     1      99.561 128.921  84.131  0.00  0.00    +0.000 A 
ATOM      9  C   UNL     1      98.994 128.817  85.407  0.00  0.00    +0.000 A 
ATOM     10  C   UNL     1      98.632 129.966  86.112  0.00  0.00    +0.000 A 
ENDBRANCH   1   8
BRANCH   1  11
ATOM     11  C   UNL     1     101.284 127.106  83.686  0.00  0.00    +0.000 C 
BRANCH  11  12
ATOM     12  C   UNL     1     102.379 127.616  82.774  0.00  0.00    +0.000 A 
ATOM     13  C   UNL     1     102.581 127.039  81.510  0.00  0.00    +0.000 A 
ATOM     14  C   UNL     1     103.610 127.494  80.684  0.00  0.00    +0.000 A 
ATOM     15  C   UNL     1     104.438 128.521  81.121  0.00  0.00    +0.000 A 
ATOM     16  C   UNL     1     104.258 129.101  82.371  0.00  0.00    +0.000 A 
ATOM     17  C   UNL     1     103.232 128.648  83.199  0.00  0.00    +0.000 A 
ATOM     18  F   UNL     1     105.426 128.954  80.328  0.00  0.00    +0.000 F 
ENDBRANCH  11  12
ENDBRANCH   1  11
TORSDOF 3
ENDMDL
