MODEL 1
REMARK VINA RESULT:      -4.3      0.000      0.000
REMARK  Name = *****
REMARK  3 active torsions:
REMARK  status: ('A' for Active; 'I' for Inactive)
REMARK    1  A    between atoms: C_5  and  C_7
REMARK    2  A    between atoms: C_7  and  S_8
REMARK    3  A    between atoms: S_8  and  C_9
REMARK                            x       y       z     vdW  Elec       q    Type
REMARK                         _______ _______ _______ _____ _____    ______ ____
ROOT
ATOM      1  C   UNL     1      88.799  70.356  87.586  0.00  0.00    +0.000 C 
ENDROOT
BRANCH   1   6
ATOM      2  C   UNL     1      85.429  71.813  86.581  0.00  0.00    +0.000 A 
ATOM      3  C   UNL     1      84.848  72.101  87.813  0.00  0.00    +0.000 A 
ATOM      4  C   UNL     1      85.543  71.824  88.990  0.00  0.00    +0.000 A 
ATOM      5  C   UNL     1      86.823  71.262  88.937  0.00  0.00    +0.000 A 
ATOM      6  C   UNL     1      87.428  70.975  87.702  0.00  0.00    +0.000 A 
ATOM      7  C   UNL     1      86.707  71.252  86.525  0.00  0.00    +0.000 A 
ATOM      8 CL   UNL     1      87.615  70.940  90.440  0.00  0.00    +0.000 Cl
ENDBRANCH   1   6
BRANCH   1   9
ATOM      9  S   UNL     1      89.523  70.653  85.938  0.00  0.00    +0.000 S 
BRANCH   9  10
ATOM     10  C   UNL     1      89.785  68.960  85.441  0.00  0.00    +0.000 A 
ATOM     11  C   UNL     1      89.835  68.506  84.121  0.00  0.00    +0.000 A 
ATOM     12  N   UNL     1      90.043  67.216  83.760  0.00  0.00    +0.000 NA
ATOM     13  C   UNL     1      90.196  66.325  84.760  0.00  0.00    +0.000 A 
ATOM     14  C   UNL     1      90.151  66.663  86.103  0.00  0.00    +0.000 A 
ATOM     15  C   UNL     1      89.942  67.998  86.443  0.00  0.00    +0.000 A 
ATOM     16 CL   UNL     1      89.633  69.542  82.759  0.00  0.00    +0.000 Cl
ENDBRANCH   9  10
ENDBRANCH   1   9
TORSDOF 3
ENDMDL
