REMARK  Name = *****
REMARK  5 active torsions:
REMARK  status: ('A' for Active; 'I' for Inactive)
REMARK    1  A    between atoms: C_1  and  C_2
REMARK    2  A    between atoms: C_4  and  C_9
REMARK    3  A    between atoms: C_5  and  C_8
REMARK    4  A    between atoms: C_9  and  O_11
REMARK    5  A    between atoms: O_11  and  C_12
REMARK                            x       y       z     vdW  Elec       q    Type
REMARK                         _______ _______ _______ _____ _____    ______ ____
ROOT
ATOM      1  C   UNL     1      -1.562   2.233   0.538  0.00  0.00    +0.000 C 
ATOM      2  O   UNL     1      -2.641   2.497   0.033  0.00  0.00    +0.000 OA
ENDROOT
BRANCH   1   6
ATOM      3  C   UNL     1       2.956   0.204  -0.252  0.00  0.00    +0.000 C 
ATOM      4  C   UNL     1       1.461   0.074  -0.228  0.00  0.00    +0.000 A 
ATOM      5  C   UNL     1       0.658   1.164   0.130  0.00  0.00    +0.000 A 
ATOM      6  C   UNL     1      -0.743   1.040   0.186  0.00  0.00    +0.000 A 
ATOM      7  C   UNL     1      -1.353  -0.194  -0.111  0.00  0.00    +0.000 A 
ATOM      8  C   UNL     1      -0.538  -1.281  -0.462  0.00  0.00    +0.000 A 
ATOM      9  C   UNL     1       0.852  -1.151  -0.510  0.00  0.00    +0.000 A 
ATOM     10  C   UNL     1      -2.845  -0.385  -0.078  0.00  0.00    +0.000 C 
ENDBRANCH   1   6
BRANCH   1  11
ATOM     11  O   UNL     1      -0.905   2.928   1.539  0.00  0.00    +0.000 OA
BRANCH  11  12
ATOM     12  C   UNL     1      -1.599   4.049   2.001  0.00  0.00    +0.000 A 
ATOM     13  C   UNL     1      -2.713   3.897   2.826  0.00  0.00    +0.000 A 
ATOM     14  C   UNL     1      -3.354   5.033   3.319  0.00  0.00    +0.000 A 
ATOM     15  C   UNL     1      -2.869   6.303   3.000  0.00  0.00    +0.000 A 
ATOM     16  C   UNL     1      -1.739   6.442   2.190  0.00  0.00    +0.000 A 
ATOM     17  C   UNL     1      -1.094   5.310   1.693  0.00  0.00    +0.000 A 
ENDBRANCH  11  12
ENDBRANCH   1  11
TORSDOF 3
