MODEL 1
REMARK VINA RESULT:      -4.8      0.000      0.000
REMARK  Name = *****
REMARK  2 active torsions:
REMARK  status: ('A' for Active; 'I' for Inactive)
REMARK    1  A    between atoms: C_1  and  C_2
REMARK    2  A    between atoms: C_5  and  N_8
REMARK                            x       y       z     vdW  Elec       q    Type
REMARK                         _______ _______ _______ _____ _____    ______ ____
ROOT
ATOM      1  N   UNL     1     102.897 126.494  81.882  0.00  0.00    +0.000 N 
ATOM      2  C   UNL     1     103.131 125.089  82.234  0.00  0.00    +0.000 C 
ATOM      3  C   UNL     1     104.148 124.563  81.272  0.00  0.00    +0.000 A 
ATOM      4  C   UNL     1     104.556 123.242  81.128  0.00  0.00    +0.000 A 
ATOM      5  C   UNL     1     105.508 122.934  80.153  0.00  0.00    +0.000 A 
ATOM      6  C   UNL     1     106.038 123.941  79.334  0.00  0.00    +0.000 A 
ATOM      7  C   UNL     1     105.626 125.265  79.489  0.00  0.00    +0.000 A 
ATOM      8  C   UNL     1     104.687 125.559  80.466  0.00  0.00    +0.000 A 
ATOM      9  S   UNL     1     104.055 127.179  80.854  0.00  0.00    +0.000 S 
ATOM     10  O   UNL     1     103.429 127.692  79.593  0.00  0.00    +0.000 OA
ENDROOT
BRANCH   1  15
ATOM     11  C   UNL     1      98.924 129.614  84.665  0.00  0.00    +0.000 C 
ATOM     12  C   UNL     1      99.951 128.818  83.919  0.00  0.00    +0.000 A 
ATOM     13  C   UNL     1     101.303 129.151  83.994  0.00  0.00    +0.000 A 
ATOM     14  C   UNL     1     102.266 128.383  83.324  0.00  0.00    +0.000 A 
ATOM     15  C   UNL     1     101.924 127.253  82.557  0.00  0.00    +0.000 A 
ATOM     16  C   UNL     1     100.557 126.928  82.519  0.00  0.00    +0.000 A 
ATOM     17  C   UNL     1      99.587 127.690  83.187  0.00  0.00    +0.000 A 
ENDBRANCH   1  15
TORSDOF 1
ENDMDL
