MODEL 1
REMARK VINA RESULT:      -4.6      0.000      0.000
REMARK  Name = *****
REMARK  3 active torsions:
REMARK  status: ('A' for Active; 'I' for Inactive)
REMARK    1  A    between atoms: C_1  and  S_9
REMARK    2  A    between atoms: C_2  and  C_3
REMARK    3  A    between atoms: S_9  and  C_11
REMARK                            x       y       z     vdW  Elec       q    Type
REMARK                         _______ _______ _______ _____ _____    ______ ____
ROOT
ATOM      1  C   UNL     1      99.868 126.754  82.596  0.00  0.00    +0.000 C 
ATOM      2  C   UNL     1      98.865 127.627  82.778  0.00  0.00    +0.000 C 
ENDROOT
BRANCH   2   3
ATOM      3  C   UNL     1      98.859 128.751  83.716  0.00  0.00    +0.000 A 
ATOM      4  C   UNL     1      98.325 128.609  85.002  0.00  0.00    +0.000 A 
ATOM      5  C   UNL     1      98.312 129.693  85.880  0.00  0.00    +0.000 A 
ATOM      6  C   UNL     1      98.835 130.922  85.480  0.00  0.00    +0.000 A 
ATOM      7  C   UNL     1      99.372 131.069  84.202  0.00  0.00    +0.000 A 
ATOM      8  C   UNL     1      99.383 129.986  83.321  0.00  0.00    +0.000 A 
ENDBRANCH   2   3
BRANCH   1   9
ATOM      9  S   UNL     1     101.391 126.876  83.526  0.00  0.00    +0.000 S 
ATOM     10  O   UNL     1     101.496 125.567  84.255  0.00  0.00    +0.000 OA
BRANCH   9  11
ATOM     11  C   UNL     1     102.586 126.752  82.165  0.00  0.00    +0.000 A 
ATOM     12  C   UNL     1     102.777 125.537  81.494  0.00  0.00    +0.000 A 
ATOM     13  C   UNL     1     103.686 125.449  80.437  0.00  0.00    +0.000 A 
ATOM     14  C   UNL     1     104.401 126.576  80.037  0.00  0.00    +0.000 A 
ATOM     15  C   UNL     1     104.207 127.793  80.688  0.00  0.00    +0.000 A 
ATOM     16  C   UNL     1     103.302 127.881  81.749  0.00  0.00    +0.000 A 
ENDBRANCH   9  11
ENDBRANCH   1   9
TORSDOF 3
ENDMDL
