MODEL 1
REMARK VINA RESULT:      -4.5      0.000      0.000
REMARK  Name = *****
REMARK  2 active torsions:
REMARK  status: ('A' for Active; 'I' for Inactive)
REMARK    1  A    between atoms: C_6  and  C_7
REMARK    2  A    between atoms: C_8  and  C_9
REMARK                            x       y       z     vdW  Elec       q    Type
REMARK                         _______ _______ _______ _____ _____    ______ ____
ROOT
ATOM      1  C   UNL     1      85.969  61.756  89.608  0.00  0.00    +0.000 C 
ATOM      2  C   UNL     1      85.323  61.224  90.659  0.00  0.00    +0.000 C 
ENDROOT
BRANCH   1   8
ATOM      3  C   UNL     1      87.627  63.390  88.630  0.00  0.00    +0.000 C 
ATOM      4  C   UNL     1      88.900  63.597  89.407  0.00  0.00    +0.000 C 
ATOM      5  C   UNL     1      88.899  63.933  90.704  0.00  0.00    +0.000 C 
ATOM      6  C   UNL     1      87.667  64.133  91.423  0.00  0.00    +0.000 C 
ATOM      7  C   UNL     1      86.484  63.802  90.886  0.00  0.00    +0.000 C 
ATOM      8  C   UNL     1      86.349  63.217  89.499  0.00  0.00    +0.000 C 
ENDBRANCH   1   8
BRANCH   2   9
ATOM      9  C   UNL     1      84.944  59.808  90.768  0.00  0.00    +0.000 A 
ATOM     10  C   UNL     1      83.610  59.382  90.723  0.00  0.00    +0.000 A 
ATOM     11  C   UNL     1      83.293  58.023  90.798  0.00  0.00    +0.000 A 
ATOM     12  C   UNL     1      84.308  57.075  90.909  0.00  0.00    +0.000 A 
ATOM     13  C   UNL     1      85.639  57.483  90.938  0.00  0.00    +0.000 A 
ATOM     14  C   UNL     1      85.955  58.842  90.863  0.00  0.00    +0.000 A 
ENDBRANCH   2   9
TORSDOF 2
ENDMDL
