REMARK  Name = *****
REMARK  3 active torsions:
REMARK  status: ('A' for Active; 'I' for Inactive)
REMARK    1  A    between atoms: C_1  and  C_2
REMARK    2  A    between atoms: C_5  and  C_8
REMARK    3  A    between atoms: C_9  and  C_10
REMARK                            x       y       z     vdW  Elec       q    Type
REMARK                         _______ _______ _______ _____ _____    ______ ____
ROOT
ATOM      1  C   UNL     1       1.192   0.037   0.187  0.00  0.00    +0.000 C 
ATOM      2  C   UNL     1       2.676   0.050  -0.033  0.00  0.00    +0.000 A 
ATOM      3  C   UNL     1       3.355   1.259  -0.228  0.00  0.00    +0.000 A 
ATOM      4  C   UNL     1       4.732   1.267  -0.465  0.00  0.00    +0.000 A 
ATOM      5  C   UNL     1       5.440   0.065  -0.521  0.00  0.00    +0.000 A 
ATOM      6  C   UNL     1       4.767  -1.145  -0.344  0.00  0.00    +0.000 A 
ATOM      7  C   UNL     1       3.390  -1.152  -0.106  0.00  0.00    +0.000 A 
ENDROOT
BRANCH   5   8
ATOM      8  C   UNL     1       6.849   0.073  -0.765  0.00  0.00    +0.000 C 
ATOM      9  C   UNL     1       8.033   0.080  -0.970  0.00  0.00    +0.000 C 
BRANCH   9  10
ATOM     10  C   UNL     1       9.434   0.087  -1.213  0.00  0.00    +0.000 A 
ATOM     11  C   UNL     1      10.221   1.208  -1.325  0.00  0.00    +0.000 A 
ATOM     12  O   UNL     1      11.514   0.855  -1.557  0.00  0.00    +0.000 OA
ATOM     13  C   UNL     1      11.549  -0.504  -1.593  0.00  0.00    +0.000 A 
ATOM     14  C   UNL     1      10.292  -1.024  -1.386  0.00  0.00    +0.000 A 
ENDBRANCH   9  10
ENDBRANCH   5   8
TORSDOF 2
