REMARK  Name = *****
REMARK  4 active torsions:
REMARK  status: ('A' for Active; 'I' for Inactive)
REMARK    1  A    between atoms: C_4  and  C_7
REMARK    2  A    between atoms: C_7  and  C_8
REMARK    3  A    between atoms: C_8  and  C_9
REMARK    4  A    between atoms: C_9  and  C_11
REMARK                            x       y       z     vdW  Elec       q    Type
REMARK                         _______ _______ _______ _____ _____    ______ ____
ROOT
ATOM      1  C   UNL     1       3.251  -2.141   0.084  0.00  0.00    +0.000 C 
ENDROOT
BRANCH   1   2
ATOM      2  C   UNL     1       4.677  -2.427  -0.383  0.00  0.00    +0.000 C 
ATOM      3  O   UNL     1       5.275  -1.615  -1.093  0.00  0.00    +0.000 OA
BRANCH   2   4
ATOM      4  C   UNL     1       5.306  -3.683   0.024  0.00  0.00    +0.000 A 
ATOM      5  C   UNL     1       6.583  -4.103  -0.308  0.00  0.00    +0.000 A 
ATOM      6  C   UNL     1       6.905  -5.378   0.240  0.00  0.00    +0.000 A 
ATOM      7  C   UNL     1       5.865  -5.895   0.976  0.00  0.00    +0.000 A 
ATOM      8  S   UNL     1       4.515  -4.848   1.000  0.00  0.00    +0.000 S 
ENDBRANCH   2   4
ENDBRANCH   1   2
BRANCH   1   9
ATOM      9  C   UNL     1       2.739  -0.780  -0.397  0.00  0.00    +0.000 C 
BRANCH   9  13
ATOM     10  C   UNL     1      -1.457   0.481  -0.178  0.00  0.00    +0.000 C 
ATOM     11  C   UNL     1      -1.123  -0.947   0.238  0.00  0.00    +0.000 C 
ATOM     12  C   UNL     1       0.255  -1.378  -0.263  0.00  0.00    +0.000 C 
ATOM     13  C   UNL     1       1.359  -0.402   0.176  0.00  0.00    +0.000 C 
ATOM     14  C   UNL     1       1.002   1.036  -0.242  0.00  0.00    +0.000 C 
ATOM     15  C   UNL     1      -0.374   1.456   0.267  0.00  0.00    +0.000 C 
ENDBRANCH   9  13
ENDBRANCH   1   9
TORSDOF 4
