REMARK  Name = *****
REMARK  3 active torsions:
REMARK  status: ('A' for Active; 'I' for Inactive)
REMARK    1  A    between atoms: C_3  and  C_15
REMARK    2  A    between atoms: C_6  and  C_7
REMARK    3  A    between atoms: C_8  and  C_9
REMARK                            x       y       z     vdW  Elec       q    Type
REMARK                         _______ _______ _______ _____ _____    ______ ____
ROOT
ATOM      1  C   UNL     1       2.791   1.123   0.136  0.00  0.00    +0.000 A 
ATOM      2  C   UNL     1       4.188   1.096   0.171  0.00  0.00    +0.000 A 
ATOM      3  C   UNL     1       4.878  -0.126   0.155  0.00  0.00    +0.000 A 
ATOM      4  C   UNL     1       4.140  -1.320   0.103  0.00  0.00    +0.000 A 
ATOM      5  C   UNL     1       2.743  -1.291   0.068  0.00  0.00    +0.000 A 
ATOM      6  C   UNL     1       2.067  -0.070   0.085  0.00  0.00    +0.000 A 
ENDROOT
BRANCH   3   7
ATOM      7  C   UNL     1       6.386  -0.175   0.196  0.00  0.00    +0.000 C 
ATOM      8  F   UNL     1       6.972   1.055   0.205  0.00  0.00    +0.000 F 
ATOM      9  F   UNL     1       6.856  -0.819   1.300  0.00  0.00    +0.000 F 
ATOM     10  F   UNL     1       6.915  -0.832  -0.874  0.00  0.00    +0.000 F 
ENDBRANCH   3   7
BRANCH   6  11
ATOM     11  C   UNL     1       0.638  -0.041   0.051  0.00  0.00    +0.000 C 
ATOM     12  C   UNL     1      -0.563  -0.020   0.025  0.00  0.00    +0.000 C 
BRANCH  12  13
ATOM     13  C   UNL     1      -1.992   0.002  -0.004  0.00  0.00    +0.000 A 
ATOM     14  C   UNL     1      -2.710  -1.190  -0.016  0.00  0.00    +0.000 A 
ATOM     15  C   UNL     1      -4.091  -1.116  -0.044  0.00  0.00    +0.000 A 
ATOM     16  N   UNL     1      -4.781   0.045  -0.059  0.00  0.00    +0.000 NA
ATOM     17  C   UNL     1      -4.056   1.184  -0.047  0.00  0.00    +0.000 A 
ATOM     18  C   UNL     1      -2.673   1.216  -0.020  0.00  0.00    +0.000 A 
ENDBRANCH  12  13
ENDBRANCH   6  11
TORSDOF 3
