MODEL 1
REMARK VINA RESULT:      -4.3      0.000      0.000
REMARK  Name = *****
REMARK  4 active torsions:
REMARK  status: ('A' for Active; 'I' for Inactive)
REMARK    1  A    between atoms: C_4  and  C_7
REMARK    2  A    between atoms: C_7  and  N_8
REMARK    3  A    between atoms: N_8  and  C_9
REMARK    4  A    between atoms: C_9  and  C_10
REMARK                            x       y       z     vdW  Elec       q    Type
REMARK                         _______ _______ _______ _____ _____    ______ ____
ROOT
ATOM      1  C   UNL     1     104.732 124.400  80.667  0.00  0.00    +0.000 C 
ENDROOT
BRANCH   1   2
ATOM      2  C   UNL     1     104.641 123.169  81.485  0.00  0.00    +0.000 A 
ATOM      3  C   UNL     1     104.522 123.215  82.880  0.00  0.00    +0.000 A 
ATOM      4  C   UNL     1     104.436 122.027  83.614  0.00  0.00    +0.000 A 
ATOM      5  C   UNL     1     104.464 120.799  82.956  0.00  0.00    +0.000 A 
ATOM      6  C   UNL     1     104.580 120.742  81.570  0.00  0.00    +0.000 A 
ATOM      7  C   UNL     1     104.670 121.925  80.834  0.00  0.00    +0.000 A 
ATOM      8 CL   UNL     1     104.356 119.341  83.864  0.00  0.00    +0.000 Cl
ATOM      9 CL   UNL     1     104.495 124.695  83.771  0.00  0.00    +0.000 Cl
ENDBRANCH   1   2
BRANCH   1  10
ATOM     10  N   UNL     1     103.677 124.968  80.188  0.00  0.00    +0.000 NA
BRANCH  10  11
ATOM     11  C   UNL     1     103.651 126.430  80.315  0.00  0.00    +0.000 C 
BRANCH  11  15
ATOM     12  C   UNL     1     101.416 127.720  83.775  0.00  0.00    +0.000 A 
ATOM     13  C   UNL     1     101.045 126.558  83.100  0.00  0.00    +0.000 A 
ATOM     14  C   UNL     1     101.759 126.141  81.975  0.00  0.00    +0.000 A 
ATOM     15  C   UNL     1     102.853 126.885  81.513  0.00  0.00    +0.000 A 
ATOM     16  C   UNL     1     103.217 128.052  82.201  0.00  0.00    +0.000 A 
ATOM     17  C   UNL     1     102.502 128.468  83.324  0.00  0.00    +0.000 A 
ENDBRANCH  11  15
ENDBRANCH  10  11
ENDBRANCH   1  10
TORSDOF 4
ENDMDL
