MODEL 1
REMARK VINA RESULT:      -4.3      0.000      0.000
REMARK  Name = *****
REMARK  5 active torsions:
REMARK  status: ('A' for Active; 'I' for Inactive)
REMARK    1  A    between atoms: C_1  and  C_2
REMARK    2  A    between atoms: C_2  and  C_4
REMARK    3  A    between atoms: C_9  and  C_10
REMARK    4  A    between atoms: C_10  and  N_12
REMARK    5  A    between atoms: N_12  and  C_13
REMARK                            x       y       z     vdW  Elec       q    Type
REMARK                         _______ _______ _______ _____ _____    ______ ____
ROOT
ATOM      1  C   UNL     1      87.744  63.455  86.110  0.00  0.00    +0.000 C 
ATOM      2  S   UNL     1      86.572  63.446  84.907  0.00  0.00    +0.000 S 
ENDROOT
BRANCH   1   8
ATOM      3  C   UNL     1      88.940  65.705  86.136  0.00  0.00    +0.000 A 
ATOM      4  C   UNL     1      90.116  66.440  85.894  0.00  0.00    +0.000 A 
ATOM      5  C   UNL     1      91.283  65.809  85.458  0.00  0.00    +0.000 A 
ATOM      6  C   UNL     1      91.297  64.434  85.252  0.00  0.00    +0.000 A 
ATOM      7  C   UNL     1      90.143  63.685  85.483  0.00  0.00    +0.000 A 
ATOM      8  C   UNL     1      88.966  64.310  85.933  0.00  0.00    +0.000 A 
BRANCH   3  10
ATOM      9  C   UNL     1      86.785  66.931  85.551  0.00  0.00    +0.000 C 
ATOM     10  C   UNL     1      87.748  66.450  86.597  0.00  0.00    +0.000 C 
ATOM     11  C   UNL     1      87.551  66.645  87.911  0.00  0.00    +0.000 C 
ENDBRANCH   3  10
ENDBRANCH   1   8
BRANCH   1  12
ATOM     12  N   UNL     1      87.751  62.801  87.337  0.00  0.00    +0.000 N 
ATOM     13  H   UNL     1      87.727  61.820  87.253  0.00  0.00    +0.000 HD
BRANCH  12  14
ATOM     14  C   UNL     1      87.786  63.245  88.679  0.00  0.00    +0.000 A 
ATOM     15  C   UNL     1      88.932  63.545  89.414  0.00  0.00    +0.000 A 
ATOM     16  C   UNL     1      88.836  63.990  90.740  0.00  0.00    +0.000 A 
ATOM     17  C   UNL     1      87.593  64.143  91.346  0.00  0.00    +0.000 A 
ATOM     18  C   UNL     1      86.441  63.856  90.625  0.00  0.00    +0.000 A 
ATOM     19  C   UNL     1      86.539  63.415  89.303  0.00  0.00    +0.000 A 
ENDBRANCH  12  14
ENDBRANCH   1  12
TORSDOF 4
ENDMDL
