MODEL 1
REMARK VINA RESULT:      -4.1      0.000      0.000
REMARK  Name = *****
REMARK  5 active torsions:
REMARK  status: ('A' for Active; 'I' for Inactive)
REMARK    1  A    between atoms: C_1  and  C_2
REMARK    2  A    between atoms: C_4  and  C_16
REMARK    3  A    between atoms: C_5  and  S_7
REMARK    4  A    between atoms: S_7  and  C_9
REMARK    5  A    between atoms: C_9  and  C_10
REMARK                            x       y       z     vdW  Elec       q    Type
REMARK                         _______ _______ _______ _____ _____    ______ ____
ROOT
ATOM      1  S   UNL     1      86.285  63.818  87.048  0.00  0.00    +0.000 S 
ATOM      2  O   UNL     1      85.866  63.123  85.786  0.00  0.00    +0.000 OA
ENDROOT
BRANCH   1   7
ATOM      3  C   UNL     1      91.304  65.571  85.276  0.00  0.00    +0.000 C 
ATOM      4  C   UNL     1      89.970  65.483  85.932  0.00  0.00    +0.000 A 
ATOM      5  C   UNL     1      89.335  66.419  86.718  0.00  0.00    +0.000 A 
ATOM      6  C   UNL     1      88.046  65.987  87.189  0.00  0.00    +0.000 A 
ATOM      7  C   UNL     1      87.747  64.727  86.692  0.00  0.00    +0.000 A 
ATOM      8  S   UNL     1      89.025  64.074  85.765  0.00  0.00    +0.000 S 
ATOM      9  C   UNL     1      87.193  66.831  88.082  0.00  0.00    +0.000 C 
ENDBRANCH   1   7
BRANCH   1  10
ATOM     10  C   UNL     1      86.955  62.584  88.208  0.00  0.00    +0.000 C 
BRANCH  10  11
ATOM     11  C   UNL     1      87.429  63.215  89.493  0.00  0.00    +0.000 A 
ATOM     12  C   UNL     1      88.799  63.399  89.731  0.00  0.00    +0.000 A 
ATOM     13  C   UNL     1      89.241  63.975  90.923  0.00  0.00    +0.000 A 
ATOM     14  C   UNL     1      88.320  64.370  91.891  0.00  0.00    +0.000 A 
ATOM     15  C   UNL     1      86.956  64.185  91.670  0.00  0.00    +0.000 A 
ATOM     16  C   UNL     1      86.512  63.608  90.478  0.00  0.00    +0.000 A 
ENDBRANCH  10  11
ENDBRANCH   1  10
TORSDOF 3
ENDMDL
