MODEL 1
REMARK VINA RESULT:      -4.3      0.000      0.000
REMARK  Name = *****
REMARK  5 active torsions:
REMARK  status: ('A' for Active; 'I' for Inactive)
REMARK    1  A    between atoms: C_1  and  O_2
REMARK    2  A    between atoms: O_2  and  S_3
REMARK    3  A    between atoms: S_3  and  N_4
REMARK    4  A    between atoms: S_3  and  C_12
REMARK    5  A    between atoms: N_4  and  C_5
REMARK                            x       y       z     vdW  Elec       q    Type
REMARK                         _______ _______ _______ _____ _____    ______ ____
ROOT
ATOM      1  S   UNL     1     100.315 126.992  83.292  0.00  0.00    +0.000 S 
ATOM      2  O   UNL     1      99.299 126.914  82.263  0.00  0.00    +0.000 OA
ENDROOT
BRANCH   1   3
ATOM      3  C   UNL     1     100.436 128.704  83.741  0.00  0.00    +0.000 A 
ATOM      4  C   UNL     1      99.346 129.549  83.508  0.00  0.00    +0.000 A 
ATOM      5  C   UNL     1      99.443 130.899  83.844  0.00  0.00    +0.000 A 
ATOM      6  C   UNL     1     100.620 131.394  84.410  0.00  0.00    +0.000 A 
ATOM      7  C   UNL     1     101.702 130.543  84.645  0.00  0.00    +0.000 A 
ATOM      8  C   UNL     1     101.615 129.193  84.311  0.00  0.00    +0.000 A 
ENDBRANCH   1   3
BRANCH   1  10
ATOM      9  C   UNL     1     100.713 125.719  85.533  0.00  0.00    +0.000 C 
ATOM     10  O   UNL     1      99.758 126.230  84.620  0.00  0.00    +0.000 OA
ENDBRANCH   1  10
BRANCH   1  11
ATOM     11  N   UNL     1     101.715 126.375  83.248  0.00  0.00    +0.000 NA
BRANCH  11  12
ATOM     12  C   UNL     1     102.615 126.253  82.148  0.00  0.00    +0.000 A 
ATOM     13  C   UNL     1     102.933 127.265  81.241  0.00  0.00    +0.000 A 
ATOM     14  C   UNL     1     103.831 127.023  80.192  0.00  0.00    +0.000 A 
ATOM     15  C   UNL     1     104.418 125.768  80.047  0.00  0.00    +0.000 A 
ATOM     16  C   UNL     1     104.112 124.754  80.950  0.00  0.00    +0.000 A 
ATOM     17  C   UNL     1     103.215 125.000  81.993  0.00  0.00    +0.000 A 
ENDBRANCH  11  12
ENDBRANCH   1  11
TORSDOF 4
ENDMDL
