MODEL 1
REMARK VINA RESULT:      -4.8      0.000      0.000
REMARK  Name = *****
REMARK  3 active torsions:
REMARK  status: ('A' for Active; 'I' for Inactive)
REMARK    1  A    between atoms: C_4  and  C_7
REMARK    2  A    between atoms: C_7  and  C_16
REMARK    3  A    between atoms: C_8  and  C_9
REMARK                            x       y       z     vdW  Elec       q    Type
REMARK                         _______ _______ _______ _____ _____    ______ ____
ROOT
ATOM      1  C   UNL     1     100.578 127.754  83.185  0.00  0.00    +0.000 C 
ATOM      2  C   UNL     1     101.924 127.701  83.073  0.00  0.00    +0.000 C 
ATOM      3 CL   UNL     1     102.981 128.772  83.954  0.00  0.00    +0.000 Cl
ENDROOT
BRANCH   1   7
ATOM      4  C   UNL     1      98.675 130.597  85.750  0.00  0.00    +0.000 A 
ATOM      5  C   UNL     1      99.113 130.986  84.484  0.00  0.00    +0.000 A 
ATOM      6  C   UNL     1      99.729 130.058  83.643  0.00  0.00    +0.000 A 
ATOM      7  C   UNL     1      99.914 128.734  84.066  0.00  0.00    +0.000 A 
ATOM      8  C   UNL     1      99.468 128.352  85.339  0.00  0.00    +0.000 A 
ATOM      9  C   UNL     1      98.852 129.282  86.177  0.00  0.00    +0.000 A 
ENDBRANCH   1   7
BRANCH   2  10
ATOM     10  C   UNL     1     102.655 126.754  82.217  0.00  0.00    +0.000 A 
ATOM     11  C   UNL     1     102.934 125.459  82.675  0.00  0.00    +0.000 A 
ATOM     12  C   UNL     1     103.648 124.569  81.871  0.00  0.00    +0.000 A 
ATOM     13  C   UNL     1     104.085 124.967  80.607  0.00  0.00    +0.000 A 
ATOM     14  C   UNL     1     103.808 126.252  80.144  0.00  0.00    +0.000 A 
ATOM     15  C   UNL     1     103.095 127.145  80.945  0.00  0.00    +0.000 A 
ENDBRANCH   2  10
BRANCH   1  16
ATOM     16  C   UNL     1      99.721 126.805  82.411  0.00  0.00    +0.000 C 
ATOM     17  O   UNL     1      98.575 127.069  82.061  0.00  0.00    +0.000 OA
ENDBRANCH   1  16
TORSDOF 3
ENDMDL
