MODEL 1
REMARK VINA RESULT:      -4.0      0.000      0.000
REMARK  Name = *****
REMARK  3 active torsions:
REMARK  status: ('A' for Active; 'I' for Inactive)
REMARK    1  A    between atoms: C_4  and  C_6
REMARK    2  A    between atoms: C_6  and  S_7
REMARK    3  A    between atoms: S_7  and  C_8
REMARK                            x       y       z     vdW  Elec       q    Type
REMARK                         _______ _______ _______ _____ _____    ______ ____
ROOT
ATOM      1  S   UNL     1     102.889 127.666  82.968  0.00  0.00    +0.000 S 
ENDROOT
BRANCH   1   2
ATOM      2  C   UNL     1     101.109 127.747  82.959  0.00  0.00    +0.000 A 
ATOM      3  C   UNL     1     100.331 126.706  82.440  0.00  0.00    +0.000 A 
ATOM      4  C   UNL     1      98.937 126.793  82.455  0.00  0.00    +0.000 A 
ATOM      5  C   UNL     1      98.313 127.916  82.995  0.00  0.00    +0.000 A 
ATOM      6  C   UNL     1      99.081 128.950  83.527  0.00  0.00    +0.000 A 
ATOM      7  C   UNL     1     100.475 128.863  83.513  0.00  0.00    +0.000 A 
ENDBRANCH   1   2
BRANCH   1   8
ATOM      8  C   UNL     1     103.181 127.141  81.249  0.00  0.00    +0.000 C 
BRANCH   8  12
ATOM      9  C   UNL     1     104.473 123.663  82.046  0.00  0.00    +0.000 C 
ATOM     10  C   UNL     1     104.598 123.687  80.525  0.00  0.00    +0.000 C 
ATOM     11  C   UNL     1     104.247 125.098  80.187  0.00  0.00    +0.000 C 
ATOM     12  C   UNL     1     103.668 125.730  81.218  0.00  0.00    +0.000 C 
ATOM     13  C   UNL     1     103.565 124.835  82.417  0.00  0.00    +0.000 C 
ENDBRANCH   8  12
ENDBRANCH   1   8
TORSDOF 3
ENDMDL
