MODEL 1
REMARK VINA RESULT:      -4.4      0.000      0.000
REMARK  Name = *****
REMARK  5 active torsions:
REMARK  status: ('A' for Active; 'I' for Inactive)
REMARK    1  A    between atoms: C_1  and  C_2
REMARK    2  A    between atoms: C_4  and  C_9
REMARK    3  A    between atoms: C_5  and  C_8
REMARK    4  A    between atoms: C_9  and  S_10
REMARK    5  A    between atoms: S_10  and  C_11
REMARK                            x       y       z     vdW  Elec       q    Type
REMARK                         _______ _______ _______ _____ _____    ______ ____
ROOT
ATOM      1  C   UNL     1      87.974  70.780  84.936  0.00  0.00    +0.000 C 
ENDROOT
BRANCH   1   5
ATOM      2  C   UNL     1      83.776  72.566  87.055  0.00  0.00    +0.000 C 
ATOM      3  C   UNL     1      85.155  71.993  87.205  0.00  0.00    +0.000 A 
ATOM      4  C   UNL     1      85.915  71.665  86.076  0.00  0.00    +0.000 A 
ATOM      5  C   UNL     1      87.199  71.098  86.196  0.00  0.00    +0.000 A 
ATOM      6  C   UNL     1      87.729  70.866  87.483  0.00  0.00    +0.000 A 
ATOM      7  C   UNL     1      86.951  71.175  88.609  0.00  0.00    +0.000 A 
ATOM      8  C   UNL     1      85.677  71.728  88.472  0.00  0.00    +0.000 A 
ATOM      9  C   UNL     1      89.097  70.271  87.685  0.00  0.00    +0.000 C 
ENDBRANCH   1   5
BRANCH   1  10
ATOM     10  S   UNL     1      87.344  69.269  84.133  0.00  0.00    +0.000 S 
BRANCH  10  11
ATOM     11  C   UNL     1      88.229  68.029  85.094  0.00  0.00    +0.000 A 
ATOM     12  C   UNL     1      87.609  67.349  86.164  0.00  0.00    +0.000 A 
ATOM     13  C   UNL     1      88.291  66.363  86.884  0.00  0.00    +0.000 A 
ATOM     14  C   UNL     1      89.595  66.033  86.551  0.00  0.00    +0.000 A 
ATOM     15  C   UNL     1      90.204  66.699  85.496  0.00  0.00    +0.000 A 
ATOM     16  N   UNL     1      89.548  67.685  84.763  0.00  0.00    +0.000 N 
ATOM     17  O   UNL     1      90.191  68.245  83.812  0.00  0.00    +0.000 OA
ATOM     18 CL   UNL     1      85.987  67.691  86.670  0.00  0.00    +0.000 Cl
ENDBRANCH  10  11
ENDBRANCH   1  10
TORSDOF 3
ENDMDL
