MODEL 1
REMARK VINA RESULT:      -4.7      0.000      0.000
REMARK  Name = *****
REMARK  4 active torsions:
REMARK  status: ('A' for Active; 'I' for Inactive)
REMARK    1  A    between atoms: C_4  and  C_7
REMARK    2  A    between atoms: C_7  and  C_8
REMARK    3  A    between atoms: C_8  and  C_9
REMARK    4  A    between atoms: C_8  and  C_11
REMARK                            x       y       z     vdW  Elec       q    Type
REMARK                         _______ _______ _______ _____ _____    ______ ____
ROOT
ATOM      1  C   UNL     1     102.923 126.594  81.261  0.00  0.00    +0.000 C 
ENDROOT
BRANCH   1   2
ATOM      2  C   UNL     1     103.621 125.248  81.443  0.00  0.00    +0.000 A 
ATOM      3  C   UNL     1     103.663 124.663  82.721  0.00  0.00    +0.000 A 
ATOM      4  C   UNL     1     104.284 123.428  82.922  0.00  0.00    +0.000 A 
ATOM      5  C   UNL     1     104.868 122.758  81.851  0.00  0.00    +0.000 A 
ATOM      6  C   UNL     1     104.828 123.320  80.578  0.00  0.00    +0.000 A 
ATOM      7  C   UNL     1     104.208 124.555  80.374  0.00  0.00    +0.000 A 
ENDBRANCH   1   2
BRANCH   1   8
ATOM      8  C   UNL     1     103.648 127.471  80.219  0.00  0.00    +0.000 C 
ATOM      9 CL   UNL     1     104.542 128.852  80.911  0.00  0.00    +0.000 Cl
ENDBRANCH   1   8
BRANCH   1  10
ATOM     10  C   UNL     1     102.635 127.305  82.603  0.00  0.00    +0.000 C 
BRANCH  10  14
ATOM     11  C   UNL     1      98.442 128.063  83.291  0.00  0.00    +0.000 A 
ATOM     12  C   UNL     1      99.398 128.972  83.742  0.00  0.00    +0.000 A 
ATOM     13  C   UNL     1     100.753 128.730  83.514  0.00  0.00    +0.000 A 
ATOM     14  C   UNL     1     101.165 127.576  82.833  0.00  0.00    +0.000 A 
ATOM     15  C   UNL     1     100.195 126.672  82.381  0.00  0.00    +0.000 A 
ATOM     16  C   UNL     1      98.840 126.915  82.610  0.00  0.00    +0.000 A 
ENDBRANCH  10  14
ENDBRANCH   1  10
TORSDOF 4
ENDMDL
