MODEL 1
REMARK VINA RESULT:      -4.6      0.000      0.000
REMARK  Name = *****
REMARK  3 active torsions:
REMARK  status: ('A' for Active; 'I' for Inactive)
REMARK    1  A    between atoms: C_3  and  C_16
REMARK    2  A    between atoms: C_6  and  C_7
REMARK    3  A    between atoms: C_8  and  C_9
REMARK                            x       y       z     vdW  Elec       q    Type
REMARK                         _______ _______ _______ _____ _____    ______ ____
ROOT
ATOM      1  C   UNL     1      85.835  61.356  90.117  0.00  0.00    +0.000 C 
ATOM      2  C   UNL     1      86.287  61.529  88.865  0.00  0.00    +0.000 C 
ENDROOT
BRANCH   2   3
ATOM      3  C   UNL     1      87.038  62.712  88.421  0.00  0.00    +0.000 A 
ATOM      4  C   UNL     1      87.831  63.468  89.296  0.00  0.00    +0.000 A 
ATOM      5  C   UNL     1      88.553  64.570  88.830  0.00  0.00    +0.000 A 
ATOM      6  C   UNL     1      88.495  64.916  87.481  0.00  0.00    +0.000 A 
ATOM      7  C   UNL     1      87.726  64.166  86.595  0.00  0.00    +0.000 A 
ATOM      8  C   UNL     1      87.005  63.064  87.064  0.00  0.00    +0.000 A 
ATOM      9 CL   UNL     1      89.384  66.272  86.907  0.00  0.00    +0.000 Cl
ENDBRANCH   2   3
BRANCH   1  15
ATOM     10  C   UNL     1      85.711  58.964  90.878  0.00  0.00    +0.000 A 
ATOM     11  C   UNL     1      84.959  57.849  91.260  0.00  0.00    +0.000 A 
ATOM     12  C   UNL     1      83.566  57.937  91.312  0.00  0.00    +0.000 A 
ATOM     13  C   UNL     1      82.923  59.129  90.978  0.00  0.00    +0.000 A 
ATOM     14  C   UNL     1      83.680  60.241  90.595  0.00  0.00    +0.000 A 
ATOM     15  C   UNL     1      85.080  60.173  90.554  0.00  0.00    +0.000 A 
BRANCH  12  16
ATOM     16  C   UNL     1      82.763  56.765  91.713  0.00  0.00    +0.000 C 
ATOM     17  O   UNL     1      82.525  55.842  90.943  0.00  0.00    +0.000 OA
ENDBRANCH  12  16
ENDBRANCH   1  15
TORSDOF 3
ENDMDL
