MODEL 1
REMARK VINA RESULT:      -4.5      0.000      0.000
REMARK  Name = *****
REMARK  3 active torsions:
REMARK  status: ('A' for Active; 'I' for Inactive)
REMARK    1  A    between atoms: C_7  and  O_19
REMARK    2  A    between atoms: N_8  and  C_11
REMARK    3  A    between atoms: O_19  and  O_20
REMARK                            x       y       z     vdW  Elec       q    Type
REMARK                         _______ _______ _______ _____ _____    ______ ____
ROOT
ATOM      1  C   UNL     1     103.522 125.782  81.686  0.00  0.00    +0.000 C 
ATOM      2  C   UNL     1     103.639 124.671  82.732  0.00  0.00    +0.000 C 
ATOM      3  C   UNL     1     103.157 125.139  84.110  0.00  0.00    +0.000 C 
ATOM      4  C   UNL     1     101.894 125.931  84.019  0.00  0.00    +0.000 C 
ATOM      5  C   UNL     1     101.407 126.435  82.879  0.00  0.00    +0.000 C 
ATOM      6  C   UNL     1     102.082 126.293  81.553  0.00  0.00    +0.000 C 
ATOM      7  C   UNL     1     100.138 127.206  83.023  0.00  0.00    +0.000 C 
ATOM      8  N   UNL     1      99.816 127.199  84.447  0.00  0.00    +0.000 N 
ATOM      9  S   UNL     1     100.827 126.250  85.403  0.00  0.00    +0.000 S 
ATOM     10  O   UNL     1     101.599 127.076  86.383  0.00  0.00    +0.000 OA
ENDROOT
BRANCH   8  11
ATOM     11  C   UNL     1      99.219 128.347  85.001  0.00  0.00    +0.000 A 
ATOM     12  C   UNL     1      97.933 128.242  85.577  0.00  0.00    +0.000 A 
ATOM     13  C   UNL     1      97.292 129.345  86.153  0.00  0.00    +0.000 A 
ATOM     14  C   UNL     1      97.921 130.584  86.172  0.00  0.00    +0.000 A 
ATOM     15  C   UNL     1      99.190 130.720  85.614  0.00  0.00    +0.000 A 
ATOM     16  C   UNL     1      99.835 129.618  85.036  0.00  0.00    +0.000 A 
ATOM     17 CL   UNL     1     101.416 129.908  84.383  0.00  0.00    +0.000 Cl
ATOM     18 CL   UNL     1      97.070 126.736  85.571  0.00  0.00    +0.000 Cl
ENDBRANCH   8  11
BRANCH   7  19
ATOM     19  O   UNL     1      99.078 126.623  82.238  0.00  0.00    +0.000 OA
BRANCH  19  20
ATOM     20  O   UNL     1      98.104 127.676  81.923  0.00  0.00    +0.000 OA
ATOM     21  H   UNL     1      97.510 127.367  81.222  0.00  0.00    +0.000 HD
ENDBRANCH  19  20
ENDBRANCH   7  19
TORSDOF 3
ENDMDL
