MODEL 1
REMARK VINA RESULT:      -3.9      0.000      0.000
REMARK  Name = *****
REMARK  4 active torsions:
REMARK  status: ('A' for Active; 'I' for Inactive)
REMARK    1  A    between atoms: C_1  and  C_2
REMARK    2  A    between atoms: C_3  and  S_7
REMARK    3  A    between atoms: S_7  and  C_8
REMARK    4  A    between atoms: C_8  and  C_9
REMARK                            x       y       z     vdW  Elec       q    Type
REMARK                         _______ _______ _______ _____ _____    ______ ____
ROOT
ATOM      1  S   UNL     1     102.368 127.914  83.139  0.00  0.00    +0.000 S 
ENDROOT
BRANCH   1   4
ATOM      2  C   UNL     1      99.682 130.040  83.900  0.00  0.00    +0.000 C 
ATOM      3  C   UNL     1      99.667 128.679  83.328  0.00  0.00    +0.000 A 
ATOM      4  C   UNL     1     100.639 127.762  82.990  0.00  0.00    +0.000 A 
ATOM      5  C   UNL     1      99.973 126.636  82.456  0.00  0.00    +0.000 A 
ATOM      6  C   UNL     1      98.630 126.926  82.522  0.00  0.00    +0.000 A 
ATOM      7  O   UNL     1      98.433 128.160  83.054  0.00  0.00    +0.000 OA
ENDBRANCH   1   4
BRANCH   1   8
ATOM      8  C   UNL     1     102.880 127.345  81.491  0.00  0.00    +0.000 C 
BRANCH   8   9
ATOM      9  C   UNL     1     103.476 125.960  81.541  0.00  0.00    +0.000 A 
ATOM     10  C   UNL     1     103.962 125.349  80.376  0.00  0.00    +0.000 A 
ATOM     11  C   UNL     1     104.504 124.064  80.422  0.00  0.00    +0.000 A 
ATOM     12  C   UNL     1     104.562 123.374  81.631  0.00  0.00    +0.000 A 
ATOM     13  C   UNL     1     104.074 123.966  82.794  0.00  0.00    +0.000 A 
ATOM     14  C   UNL     1     103.531 125.252  82.751  0.00  0.00    +0.000 A 
ENDBRANCH   8   9
ENDBRANCH   1   8
TORSDOF 3
ENDMDL
