MODEL 1
REMARK VINA RESULT:      -3.6      0.000      0.000
REMARK  Name = *****
REMARK  4 active torsions:
REMARK  status: ('A' for Active; 'I' for Inactive)
REMARK    1  A    between atoms: C_4  and  C_7
REMARK    2  A    between atoms: C_7  and  C_8
REMARK    3  A    between atoms: C_8  and  P_9
REMARK    4  A    between atoms: P_9  and  C_10
REMARK                            x       y       z     vdW  Elec       q    Type
REMARK                         _______ _______ _______ _____ _____    ______ ____
ROOT
ATOM      1  C   UNL     1      85.370  64.810  86.788  0.00  0.00    +0.000 C 
ENDROOT
BRANCH   1   2
ATOM      2  P   UNL     1      86.889  65.808  87.163  0.00  0.00    +0.000 P 
ATOM      3  H   UNL     1      86.614  67.159  87.220  0.00  0.00    +0.000 HD
BRANCH   2   4
ATOM      4  C   UNL     1      87.310  65.134  88.799  0.00  0.00    +0.000 A 
ATOM      5  C   UNL     1      86.446  65.321  89.885  0.00  0.00    +0.000 A 
ATOM      6  C   UNL     1      86.765  64.805  91.144  0.00  0.00    +0.000 A 
ATOM      7  C   UNL     1      87.948  64.093  91.327  0.00  0.00    +0.000 A 
ATOM      8  C   UNL     1      88.811  63.893  90.252  0.00  0.00    +0.000 A 
ATOM      9  C   UNL     1      88.493  64.410  88.993  0.00  0.00    +0.000 A 
ENDBRANCH   2   4
ENDBRANCH   1   2
BRANCH   1  10
ATOM     10  C   UNL     1      85.689  63.315  86.725  0.00  0.00    +0.000 C 
BRANCH  10  14
ATOM     11  C   UNL     1      84.421  61.309  90.327  0.00  0.00    +0.000 A 
ATOM     12  C   UNL     1      83.546  62.165  89.660  0.00  0.00    +0.000 A 
ATOM     13  C   UNL     1      83.953  62.811  88.492  0.00  0.00    +0.000 A 
ATOM     14  C   UNL     1      85.239  62.601  87.976  0.00  0.00    +0.000 A 
ATOM     15  C   UNL     1      86.114  61.744  88.658  0.00  0.00    +0.000 A 
ATOM     16  C   UNL     1      85.705  61.099  89.827  0.00  0.00    +0.000 A 
ENDBRANCH  10  14
ENDBRANCH   1  10
TORSDOF 4
ENDMDL
