MODEL 1
REMARK VINA RESULT:      -4.6      0.000      0.000
REMARK  Name = *****
REMARK  5 active torsions:
REMARK  status: ('A' for Active; 'I' for Inactive)
REMARK    1  A    between atoms: C_1  and  C_2
REMARK    2  A    between atoms: C_3  and  O_9
REMARK    3  A    between atoms: C_4  and  C_8
REMARK    4  A    between atoms: O_9  and  C_10
REMARK    5  A    between atoms: C_10  and  C_12
REMARK                            x       y       z     vdW  Elec       q    Type
REMARK                         _______ _______ _______ _____ _____    ______ ____
ROOT
ATOM      1  O   UNL     1     102.944 127.162  82.890  0.00  0.00    +0.000 OA
ENDROOT
BRANCH   1   4
ATOM      2  C   UNL     1     103.520 127.516  80.112  0.00  0.00    +0.000 C 
ATOM      3  C   UNL     1     103.761 126.224  80.838  0.00  0.00    +0.000 A 
ATOM      4  C   UNL     1     103.445 126.081  82.200  0.00  0.00    +0.000 A 
ATOM      5  C   UNL     1     103.705 124.883  82.889  0.00  0.00    +0.000 A 
ATOM      6  C   UNL     1     104.216 123.794  82.172  0.00  0.00    +0.000 A 
ATOM      7  C   UNL     1     104.494 123.911  80.810  0.00  0.00    +0.000 A 
ATOM      8  C   UNL     1     104.272 125.118  80.147  0.00  0.00    +0.000 A 
ATOM      9  C   UNL     1     103.405 124.743  84.354  0.00  0.00    +0.000 C 
ENDBRANCH   1   4
BRANCH   1  10
ATOM     10  C   UNL     1     101.569 127.370  82.924  0.00  0.00    +0.000 C 
ATOM     11  C   UNL     1     100.628 126.534  82.448  0.00  0.00    +0.000 C 
BRANCH  10  12
ATOM     12  C   UNL     1     101.190 128.668  83.520  0.00  0.00    +0.000 A 
ATOM     13  C   UNL     1     102.135 129.486  84.160  0.00  0.00    +0.000 A 
ATOM     14  C   UNL     1     101.762 130.715  84.708  0.00  0.00    +0.000 A 
ATOM     15  C   UNL     1     100.439 131.147  84.618  0.00  0.00    +0.000 A 
ATOM     16  C   UNL     1      99.492 130.352  83.977  0.00  0.00    +0.000 A 
ATOM     17  C   UNL     1      99.867 129.123  83.428  0.00  0.00    +0.000 A 
ENDBRANCH  10  12
ENDBRANCH   1  10
TORSDOF 3
ENDMDL
