MODEL 1
REMARK VINA RESULT:      -4.7      0.000      0.000
REMARK  Name = *****
REMARK  5 active torsions:
REMARK  status: ('A' for Active; 'I' for Inactive)
REMARK    1  A    between atoms: C_1  and  N_2
REMARK    2  A    between atoms: N_2  and  C_3
REMARK    3  A    between atoms: N_2  and  C_10
REMARK    4  A    between atoms: C_10  and  C_11
REMARK    5  A    between atoms: C_10  and  C_17
REMARK                            x       y       z     vdW  Elec       q    Type
REMARK                         _______ _______ _______ _____ _____    ______ ____
ROOT
ATOM      1  C   UNL     1      89.227  69.781  86.357  0.00  0.00    +0.000 C 
ENDROOT
BRANCH   1   2
ATOM      2  C   UNL     1      88.278  70.443  87.357  0.00  0.00    +0.000 A 
ATOM      3  C   UNL     1      87.002  70.902  86.998  0.00  0.00    +0.000 A 
ATOM      4  C   UNL     1      86.158  71.486  87.946  0.00  0.00    +0.000 A 
ATOM      5  C   UNL     1      86.576  71.618  89.268  0.00  0.00    +0.000 A 
ATOM      6  C   UNL     1      87.836  71.163  89.645  0.00  0.00    +0.000 A 
ATOM      7  C   UNL     1      88.680  70.576  88.699  0.00  0.00    +0.000 A 
ENDBRANCH   1   2
BRANCH   1   8
ATOM      8  C   UNL     1      89.367  68.260  86.628  0.00  0.00    +0.000 C 
ATOM      9  O   UNL     1      90.418  67.635  86.497  0.00  0.00    +0.000 OA
ATOM     10 CL   UNL     1      87.874  67.558  87.217  0.00  0.00    +0.000 Cl
ENDBRANCH   1   8
BRANCH   1  12
ATOM     11  C   UNL     1      88.307  69.012  84.111  0.00  0.00    +0.000 C 
ATOM     12  N   UNL     1      88.854  70.090  84.937  0.00  0.00    +0.000 N 
BRANCH  12  13
ATOM     13  C   UNL     1      89.489  71.169  84.316  0.00  0.00    +0.000 A 
ATOM     14  C   UNL     1      90.843  71.088  83.936  0.00  0.00    +0.000 A 
ATOM     15  C   UNL     1      91.503  72.155  83.316  0.00  0.00    +0.000 A 
ATOM     16  C   UNL     1      90.815  73.332  83.073  0.00  0.00    +0.000 A 
ATOM     17  C   UNL     1      89.487  73.460  83.443  0.00  0.00    +0.000 A 
ATOM     18  C   UNL     1      88.834  72.388  84.063  0.00  0.00    +0.000 A 
ATOM     19  F   UNL     1      91.442  74.356  82.482  0.00  0.00    +0.000 F 
ENDBRANCH  12  13
ENDBRANCH   1  12
TORSDOF 4
ENDMDL
