REMARK  Name = *****
REMARK  6 active torsions:
REMARK  status: ('A' for Active; 'I' for Inactive)
REMARK    1  A    between atoms: C_1  and  O_2
REMARK    2  A    between atoms: O_2  and  C_3
REMARK    3  A    between atoms: C_3  and  C_4
REMARK    4  A    between atoms: C_3  and  C_10
REMARK    5  A    between atoms: C_10  and  C_11
REMARK    6  A    between atoms: C_10  and  C_13
REMARK                            x       y       z     vdW  Elec       q    Type
REMARK                         _______ _______ _______ _____ _____    ______ ____
ROOT
ATOM      1  C   UNL     1       2.874  -0.201   1.010  0.00  0.00    +0.000 C 
ENDROOT
BRANCH   1   2
ATOM      2  C   UNL     1       2.430  -1.186   2.087  0.00  0.00    +0.000 A 
ATOM      3  C   UNL     1       2.636  -2.566   1.946  0.00  0.00    +0.000 A 
ATOM      4  C   UNL     1       2.238  -3.451   2.950  0.00  0.00    +0.000 A 
ATOM      5  C   UNL     1       1.631  -2.967   4.106  0.00  0.00    +0.000 A 
ATOM      6  C   UNL     1       1.423  -1.598   4.262  0.00  0.00    +0.000 A 
ATOM      7  C   UNL     1       1.821  -0.711   3.260  0.00  0.00    +0.000 A 
ENDBRANCH   1   2
BRANCH   1   9
ATOM      8  C   UNL     1       1.265  -0.611  -0.703  0.00  0.00    +0.000 C 
ATOM      9  O   UNL     1       2.624  -0.739  -0.304  0.00  0.00    +0.000 OA
ENDBRANCH   1   9
BRANCH   1  10
ATOM     10  C   UNL     1       4.386   0.183   1.182  0.00  0.00    +0.000 C 
BRANCH  10  11
ATOM     11  C   UNL     1       4.704   1.532   0.532  0.00  0.00    +0.000 A 
ATOM     12  C   UNL     1       5.226   2.577   1.313  0.00  0.00    +0.000 A 
ATOM     13  C   UNL     1       5.521   3.817   0.742  0.00  0.00    +0.000 A 
ATOM     14  C   UNL     1       5.303   4.029  -0.617  0.00  0.00    +0.000 A 
ATOM     15  C   UNL     1       4.795   3.001  -1.407  0.00  0.00    +0.000 A 
ATOM     16  C   UNL     1       4.501   1.761  -0.838  0.00  0.00    +0.000 A 
ENDBRANCH  10  11
BRANCH  10  17
ATOM     17  C   UNL     1       5.361  -0.882   0.704  0.00  0.00    +0.000 C 
ATOM     18  C   UNL     1       6.289  -1.467   1.473  0.00  0.00    +0.000 C 
ENDBRANCH  10  17
ENDBRANCH   1  10
TORSDOF 5
