MODEL 1
REMARK VINA RESULT:      -4.3      0.000      0.000
REMARK  Name = *****
REMARK  5 active torsions:
REMARK  status: ('A' for Active; 'I' for Inactive)
REMARK    1  A    between atoms: C_1  and  O_2
REMARK    2  A    between atoms: O_2  and  C_3
REMARK    3  A    between atoms: C_3  and  C_13
REMARK    4  A    between atoms: N_4  and  C_5
REMARK    5  A    between atoms: C_5  and  C_7
REMARK                            x       y       z     vdW  Elec       q    Type
REMARK                         _______ _______ _______ _____ _____    ______ ____
ROOT
ATOM      1  C   UNL     1      87.735  67.754  87.283  0.00  0.00    +0.000 C 
ATOM      2  N   UNL     1      87.928  68.846  87.958  0.00  0.00    +0.000 NA
ENDROOT
BRANCH   1   3
ATOM      3  C   UNL     1      87.657  66.417  87.932  0.00  0.00    +0.000 A 
ATOM      4  C   UNL     1      86.699  66.123  88.913  0.00  0.00    +0.000 A 
ATOM      5  C   UNL     1      86.660  64.856  89.500  0.00  0.00    +0.000 A 
ATOM      6  C   UNL     1      87.574  63.876  89.113  0.00  0.00    +0.000 A 
ATOM      7  C   UNL     1      88.527  64.159  88.136  0.00  0.00    +0.000 A 
ATOM      8  C   UNL     1      88.568  65.424  87.547  0.00  0.00    +0.000 A 
ENDBRANCH   1   3
BRANCH   1  10
ATOM      9  C   UNL     1      86.271  67.466  85.459  0.00  0.00    +0.000 C 
ATOM     10  O   UNL     1      87.608  67.653  85.934  0.00  0.00    +0.000 OA
ENDBRANCH   1  10
BRANCH   2  11
ATOM     11  C   UNL     1      88.094  70.031  87.284  0.00  0.00    +0.000 C 
ATOM     12  C   UNL     1      89.325  70.482  86.994  0.00  0.00    +0.000 C 
BRANCH  11  13
ATOM     13  C   UNL     1      86.899  70.876  87.030  0.00  0.00    +0.000 A 
ATOM     14  C   UNL     1      86.505  71.240  85.732  0.00  0.00    +0.000 A 
ATOM     15  C   UNL     1      85.362  72.017  85.519  0.00  0.00    +0.000 A 
ATOM     16  C   UNL     1      84.591  72.435  86.602  0.00  0.00    +0.000 A 
ATOM     17  C   UNL     1      84.960  72.075  87.895  0.00  0.00    +0.000 A 
ATOM     18  C   UNL     1      86.102  71.298  88.107  0.00  0.00    +0.000 A 
ENDBRANCH  11  13
ENDBRANCH   2  11
TORSDOF 4
ENDMDL
