MODEL 1
REMARK VINA RESULT:      -4.7      0.000      0.000
REMARK  Name = *****
REMARK  3 active torsions:
REMARK  status: ('A' for Active; 'I' for Inactive)
REMARK    1  A    between atoms: C_3  and  C_8
REMARK    2  A    between atoms: C_8  and  C_10
REMARK    3  A    between atoms: C_10  and  C_11
REMARK                            x       y       z     vdW  Elec       q    Type
REMARK                         _______ _______ _______ _____ _____    ______ ____
ROOT
ATOM      1  C   UNL     1     102.786 127.970  83.479  0.00  0.00    +0.000 C 
ATOM      2  O   UNL     1     103.211 128.093  84.628  0.00  0.00    +0.000 OA
ENDROOT
BRANCH   1   5
ATOM      3  C   UNL     1      99.207 129.193  83.455  0.00  0.00    +0.000 A 
ATOM      4  C   UNL     1     100.588 129.119  83.652  0.00  0.00    +0.000 A 
ATOM      5  C   UNL     1     101.311 127.984  83.246  0.00  0.00    +0.000 A 
ATOM      6  C   UNL     1     100.632 126.919  82.651  0.00  0.00    +0.000 A 
ATOM      7  C   UNL     1      99.255 127.004  82.463  0.00  0.00    +0.000 A 
ATOM      8  C   UNL     1      98.538 128.129  82.856  0.00  0.00    +0.000 A 
ATOM      9  F   UNL     1      98.608 125.979  81.893  0.00  0.00    +0.000 F 
ENDBRANCH   1   5
BRANCH   1  10
ATOM     10  C   UNL     1     103.735 127.818  82.305  0.00  0.00    +0.000 C 
BRANCH  10  11
ATOM     11  C   UNL     1     103.959 126.392  81.859  0.00  0.00    +0.000 A 
ATOM     12  C   UNL     1     104.131 126.105  80.496  0.00  0.00    +0.000 A 
ATOM     13  C   UNL     1     104.371 124.797  80.069  0.00  0.00    +0.000 A 
ATOM     14  C   UNL     1     104.454 123.768  81.003  0.00  0.00    +0.000 A 
ATOM     15  C   UNL     1     104.306 124.037  82.362  0.00  0.00    +0.000 A 
ATOM     16  C   UNL     1     104.067 125.346  82.788  0.00  0.00    +0.000 A 
ATOM     17 CL   UNL     1     104.754 122.158  80.478  0.00  0.00    +0.000 Cl
ENDBRANCH  10  11
ENDBRANCH   1  10
TORSDOF 3
ENDMDL
