MODEL 1
REMARK VINA RESULT:      -4.4      0.000      0.000
REMARK  Name = *****
REMARK  2 active torsions:
REMARK  status: ('A' for Active; 'I' for Inactive)
REMARK    1  A    between atoms: C_7  and  C_8
REMARK    2  A    between atoms: C_8  and  C_10
REMARK                            x       y       z     vdW  Elec       q    Type
REMARK                         _______ _______ _______ _____ _____    ______ ____
ROOT
ATOM      1  C   UNL     1      88.404  64.599  86.846  0.00  0.00    +0.000 C 
ATOM      2  O   UNL     1      89.131  63.816  86.246  0.00  0.00    +0.000 OA
ENDROOT
BRANCH   1   9
ATOM      3  C   UNL     1      88.177  64.232  91.149  0.00  0.00    +0.000 C 
ATOM      4  C   UNL     1      86.730  63.797  91.347  0.00  0.00    +0.000 C 
ATOM      5  C   UNL     1      86.122  63.939  89.952  0.00  0.00    +0.000 C 
ATOM      6  C   UNL     1      87.268  63.631  89.017  0.00  0.00    +0.000 C 
ATOM      7  C   UNL     1      88.557  63.604  89.808  0.00  0.00    +0.000 C 
ATOM      8  C   UNL     1      87.080  62.631  87.904  0.00  0.00    +0.000 C 
ATOM      9  C   UNL     1      87.200  64.098  87.568  0.00  0.00    +0.000 C 
ENDBRANCH   1   9
BRANCH   1  10
ATOM     10  C   UNL     1      88.693  66.061  86.848  0.00  0.00    +0.000 A 
ATOM     11  C   UNL     1      89.852  66.593  86.267  0.00  0.00    +0.000 A 
ATOM     12  C   UNL     1      90.078  67.974  86.291  0.00  0.00    +0.000 A 
ATOM     13  C   UNL     1      89.149  68.822  86.894  0.00  0.00    +0.000 A 
ATOM     14  C   UNL     1      87.994  68.303  87.473  0.00  0.00    +0.000 A 
ATOM     15  C   UNL     1      87.765  66.924  87.450  0.00  0.00    +0.000 A 
ATOM     16 CL   UNL     1      89.433  70.517  86.920  0.00  0.00    +0.000 Cl
ENDBRANCH   1  10
TORSDOF 2
ENDMDL
