MODEL 1
REMARK VINA RESULT:      -4.8      0.000      0.000
REMARK  Name = *****
REMARK  3 active torsions:
REMARK  status: ('A' for Active; 'I' for Inactive)
REMARK    1  A    between atoms: C_4  and  C_7
REMARK    2  A    between atoms: C_7  and  O_9
REMARK    3  A    between atoms: O_9  and  C_10
REMARK                            x       y       z     vdW  Elec       q    Type
REMARK                         _______ _______ _______ _____ _____    ______ ____
ROOT
ATOM      1  C   UNL     1      99.061 127.343  82.576  0.00  0.00    +0.000 C 
ATOM      2  O   UNL     1      98.362 126.460  82.097  0.00  0.00    +0.000 OA
ENDROOT
BRANCH   1   6
ATOM      3  C   UNL     1      98.856 130.189  85.868  0.00  0.00    +0.000 C 
ATOM      4  C   UNL     1      99.114 130.721  84.462  0.00  0.00    +0.000 C 
ATOM      5  C   UNL     1      99.555 129.614  83.508  0.00  0.00    +0.000 C 
ATOM      6  C   UNL     1      98.558 128.450  83.491  0.00  0.00    +0.000 C 
ATOM      7  C   UNL     1      98.307 127.921  84.909  0.00  0.00    +0.000 C 
ATOM      8  C   UNL     1      97.861 129.032  85.855  0.00  0.00    +0.000 C 
ENDBRANCH   1   6
BRANCH   1   9
ATOM      9  O   UNL     1     100.412 127.507  82.378  0.00  0.00    +0.000 OA
BRANCH   9  10
ATOM     10  C   UNL     1     101.189 126.346  82.388  0.00  0.00    +0.000 C 
ATOM     11  C   UNL     1     102.465 126.329  81.976  0.00  0.00    +0.000 C 
ATOM     12  C   UNL     1     103.279 125.059  81.979  0.00  0.00    +0.000 C 
ATOM     13  C   UNL     1     103.875 124.792  80.597  0.00  0.00    +0.000 C 
ATOM     14  C   UNL     1     104.653 125.999  80.071  0.00  0.00    +0.000 C 
ATOM     15  C   UNL     1     103.796 127.266  80.078  0.00  0.00    +0.000 C 
ATOM     16  C   UNL     1     103.199 127.542  81.459  0.00  0.00    +0.000 C 
ENDBRANCH   9  10
ENDBRANCH   1   9
TORSDOF 3
ENDMDL
