MODEL 1
REMARK VINA RESULT:      -4.6      0.000      0.000
REMARK  Name = *****
REMARK  4 active torsions:
REMARK  status: ('A' for Active; 'I' for Inactive)
REMARK    1  A    between atoms: C_1  and  C_2
REMARK    2  A    between atoms: C_2  and  C_3
REMARK    3  A    between atoms: C_2  and  C_10
REMARK    4  A    between atoms: C_3  and  C_4
REMARK                            x       y       z     vdW  Elec       q    Type
REMARK                         _______ _______ _______ _____ _____    ______ ____
ROOT
ATOM      1  C   UNL     1      88.379  71.636  84.775  0.00  0.00    +0.000 C 
ATOM      2  C   UNL     1      87.727  70.651  85.755  0.00  0.00    +0.000 C 
ENDROOT
BRANCH   2   3
ATOM      3  C   UNL     1      86.517  71.281  86.431  0.00  0.00    +0.000 A 
ATOM      4  C   UNL     1      86.437  71.306  87.832  0.00  0.00    +0.000 A 
ATOM      5  C   UNL     1      85.339  71.886  88.473  0.00  0.00    +0.000 A 
ATOM      6  C   UNL     1      84.309  72.448  87.722  0.00  0.00    +0.000 A 
ATOM      7  C   UNL     1      84.375  72.431  86.331  0.00  0.00    +0.000 A 
ATOM      8  C   UNL     1      85.471  71.853  85.689  0.00  0.00    +0.000 A 
ENDBRANCH   2   3
BRANCH   2   9
ATOM      9  C   UNL     1      88.724  70.126  86.811  0.00  0.00    +0.000 C 
BRANCH   9  10
ATOM     10  C   UNL     1      88.846  68.620  86.836  0.00  0.00    +0.000 A 
ATOM     11  C   UNL     1      87.846  67.833  87.422  0.00  0.00    +0.000 A 
ATOM     12  C   UNL     1      87.965  66.443  87.451  0.00  0.00    +0.000 A 
ATOM     13  C   UNL     1      89.084  65.826  86.893  0.00  0.00    +0.000 A 
ATOM     14  C   UNL     1      90.083  66.599  86.305  0.00  0.00    +0.000 A 
ATOM     15  C   UNL     1      89.966  67.989  86.276  0.00  0.00    +0.000 A 
ENDBRANCH   9  10
ENDBRANCH   2   9
TORSDOF 3
ENDMDL
