MODEL 1
REMARK VINA RESULT:      -4.7      0.000      0.000
REMARK  Name = *****
REMARK  3 active torsions:
REMARK  status: ('A' for Active; 'I' for Inactive)
REMARK    1  A    between atoms: C_2  and  C_9
REMARK    2  A    between atoms: C_10  and  C_11
REMARK    3  A    between atoms: C_14  and  C_16
REMARK                            x       y       z     vdW  Elec       q    Type
REMARK                         _______ _______ _______ _____ _____    ______ ____
ROOT
ATOM      1  C   UNL     1     102.254 126.255  81.937  0.00  0.00    +0.000 C 
ATOM      2  C   UNL     1     103.099 125.559  81.442  0.00  0.00    +0.000 C 
ENDROOT
BRANCH   1   4
ATOM      3  C   UNL     1      99.904 126.771  82.376  0.00  0.00    +0.000 A 
ATOM      4  C   UNL     1     101.253 127.089  82.527  0.00  0.00    +0.000 A 
ATOM      5  C   UNL     1     101.628 128.222  83.257  0.00  0.00    +0.000 A 
ATOM      6  C   UNL     1     100.645 129.032  83.831  0.00  0.00    +0.000 A 
ATOM      7  C   UNL     1      99.296 128.720  83.683  0.00  0.00    +0.000 A 
ATOM      8  C   UNL     1      98.941 127.591  82.954  0.00  0.00    +0.000 A 
ATOM      9  F   UNL     1      97.645 127.285  82.808  0.00  0.00    +0.000 F 
ATOM     10  I   UNL     1     101.201 130.717  84.914  0.00  0.00    +0.000 I 
ENDBRANCH   1   4
BRANCH   2  11
ATOM     11  C   UNL     1     104.104 124.737  80.856  0.00  0.00    +0.000 A 
ATOM     12  C   UNL     1     104.426 123.466  81.269  0.00  0.00    +0.000 A 
ATOM     13  S   UNL     1     105.685 122.849  80.282  0.00  0.00    +0.000 S 
ATOM     14  C   UNL     1     105.704 124.331  79.401  0.00  0.00    +0.000 A 
ATOM     15  N   UNL     1     104.821 125.231  79.790  0.00  0.00    +0.000 NA
BRANCH  14  16
ATOM     16  C   UNL     1     106.658 124.512  78.265  0.00  0.00    +0.000 C 
ATOM     17  F   UNL     1     106.020 124.499  77.060  0.00  0.00    +0.000 F 
ENDBRANCH  14  16
ENDBRANCH   2  11
TORSDOF 3
ENDMDL
