MODEL 1
REMARK VINA RESULT:      -4.7      0.000      0.000
REMARK  Name = *****
REMARK  4 active torsions:
REMARK  status: ('A' for Active; 'I' for Inactive)
REMARK    1  A    between atoms: C_5  and  C_7
REMARK    2  A    between atoms: C_7  and  O_8
REMARK    3  A    between atoms: O_8  and  C_9
REMARK    4  A    between atoms: C_9  and  C_11
REMARK                            x       y       z     vdW  Elec       q    Type
REMARK                         _______ _______ _______ _____ _____    ______ ____
ROOT
ATOM      1  O   UNL     1     100.226 126.828  83.302  0.00  0.00    +0.000 OA
ENDROOT
BRANCH   1   2
ATOM      2  C   UNL     1      99.112 127.517  82.953  0.00  0.00    +0.000 C 
ATOM      3  O   UNL     1      98.326 127.220  82.070  0.00  0.00    +0.000 OA
BRANCH   2   4
ATOM      4  C   UNL     1      98.978 128.736  83.796  0.00  0.00    +0.000 A 
ATOM      5  C   UNL     1      99.468 129.985  83.391  0.00  0.00    +0.000 A 
ATOM      6  C   UNL     1      99.324 131.098  84.224  0.00  0.00    +0.000 A 
ATOM      7  C   UNL     1      98.691 130.969  85.460  0.00  0.00    +0.000 A 
ATOM      8  C   UNL     1      98.201 129.729  85.869  0.00  0.00    +0.000 A 
ATOM      9  C   UNL     1      98.347 128.614  85.041  0.00  0.00    +0.000 A 
ENDBRANCH   2   4
ENDBRANCH   1   2
BRANCH   1  10
ATOM     10  C   UNL     1     100.963 126.235  82.217  0.00  0.00    +0.000 C 
BRANCH  10  15
ATOM     11  C   UNL     1     103.518 125.349  80.425  0.00  0.00    +0.000 C 
ATOM     12  C   UNL     1     104.260 126.647  80.104  0.00  0.00    +0.000 C 
ATOM     13  C   UNL     1     103.781 127.821  80.906  0.00  0.00    +0.000 C 
ATOM     14  C   UNL     1     102.973 127.707  81.972  0.00  0.00    +0.000 C 
ATOM     15  C   UNL     1     102.469 126.382  82.504  0.00  0.00    +0.000 C 
ATOM     16  C   UNL     1     103.273 125.202  81.927  0.00  0.00    +0.000 C 
ENDBRANCH  10  15
ENDBRANCH   1  10
TORSDOF 4
ENDMDL
