MODEL 1
REMARK VINA RESULT:      -5.0      0.000      0.000
REMARK  Name = *****
REMARK  3 active torsions:
REMARK  status: ('A' for Active; 'I' for Inactive)
REMARK    1  A    between atoms: C_1  and  C_2
REMARK    2  A    between atoms: C_4  and  C_8
REMARK    3  A    between atoms: N_10  and  C_11
REMARK                            x       y       z     vdW  Elec       q    Type
REMARK                         _______ _______ _______ _____ _____    ______ ____
ROOT
ATOM      1  C   UNL     1     102.831 125.319  82.408  0.00  0.00    +0.000 C 
ATOM      2  O   UNL     1     102.766 124.927  83.566  0.00  0.00    +0.000 OA
ATOM      3  N   UNL     1     102.025 126.270  81.812  0.00  0.00    +0.000 N 
ATOM      4  H   UNL     1     102.176 126.424  80.851  0.00  0.00    +0.000 HD
ENDROOT
BRANCH   1   8
ATOM      5  C   UNL     1     105.906 121.518  81.146  0.00  0.00    +0.000 C 
ATOM      6  C   UNL     1     105.346 122.888  80.894  0.00  0.00    +0.000 A 
ATOM      7  C   UNL     1     104.389 123.435  81.761  0.00  0.00    +0.000 A 
ATOM      8  C   UNL     1     103.842 124.702  81.503  0.00  0.00    +0.000 A 
ATOM      9  C   UNL     1     104.225 125.403  80.354  0.00  0.00    +0.000 A 
ATOM     10  C   UNL     1     105.166 124.855  79.483  0.00  0.00    +0.000 A 
ATOM     11  C   UNL     1     105.723 123.605  79.752  0.00  0.00    +0.000 A 
ENDBRANCH   1   8
BRANCH   3  12
ATOM     12  C   UNL     1     101.007 127.049  82.413  0.00  0.00    +0.000 A 
ATOM     13  C   UNL     1      99.650 126.724  82.347  0.00  0.00    +0.000 A 
ATOM     14  C   UNL     1      98.692 127.535  82.967  0.00  0.00    +0.000 A 
ATOM     15  C   UNL     1      99.078 128.678  83.662  0.00  0.00    +0.000 A 
ATOM     16  C   UNL     1     100.427 129.016  83.743  0.00  0.00    +0.000 A 
ATOM     17  C   UNL     1     101.383 128.206  83.124  0.00  0.00    +0.000 A 
ATOM     18 CL   UNL     1     103.050 128.666  83.258  0.00  0.00    +0.000 Cl
ENDBRANCH   3  12
TORSDOF 2
ENDMDL
