MODEL 1
REMARK VINA RESULT:      -4.7      0.000      0.000
REMARK  Name = *****
REMARK  2 active torsions:
REMARK  status: ('A' for Active; 'I' for Inactive)
REMARK    1  A    between atoms: C_1  and  C_2
REMARK    2  A    between atoms: C_5  and  N_8
REMARK                            x       y       z     vdW  Elec       q    Type
REMARK                         _______ _______ _______ _____ _____    ______ ____
ROOT
ATOM      1  N   UNL     1     102.786 126.423  81.727  0.00  0.00    +0.000 N 
ATOM      2  C   UNL     1     103.076 125.026  82.094  0.00  0.00    +0.000 C 
ATOM      3  C   UNL     1     104.134 124.526  81.152  0.00  0.00    +0.000 A 
ATOM      4  C   UNL     1     104.692 123.251  81.151  0.00  0.00    +0.000 A 
ATOM      5  C   UNL     1     105.674 122.944  80.207  0.00  0.00    +0.000 A 
ATOM      6  C   UNL     1     106.088 123.905  79.275  0.00  0.00    +0.000 A 
ATOM      7  C   UNL     1     105.525 125.183  79.279  0.00  0.00    +0.000 A 
ATOM      8  C   UNL     1     104.552 125.476  80.221  0.00  0.00    +0.000 A 
ATOM      9  S   UNL     1     103.691 127.005  80.434  0.00  0.00    +0.000 S 
ENDROOT
BRANCH   1  14
ATOM     10  C   UNL     1      98.993 129.591  84.700  0.00  0.00    +0.000 C 
ATOM     11  C   UNL     1      99.972 128.781  83.906  0.00  0.00    +0.000 A 
ATOM     12  C   UNL     1      99.556 127.661  83.188  0.00  0.00    +0.000 A 
ATOM     13  C   UNL     1     100.481 126.888  82.471  0.00  0.00    +0.000 A 
ATOM     14  C   UNL     1     101.854 127.192  82.447  0.00  0.00    +0.000 A 
ATOM     15  C   UNL     1     102.248 128.316  83.197  0.00  0.00    +0.000 A 
ATOM     16  C   UNL     1     101.329 129.094  83.917  0.00  0.00    +0.000 A 
ENDBRANCH   1  14
TORSDOF 1
ENDMDL
