REMARK  Name = *****
REMARK  3 active torsions:
REMARK  status: ('A' for Active; 'I' for Inactive)
REMARK    1  A    between atoms: C_4  and  C_6
REMARK    2  A    between atoms: C_6  and  N_8
REMARK    3  A    between atoms: N_8  and  C_9
REMARK                            x       y       z     vdW  Elec       q    Type
REMARK                         _______ _______ _______ _____ _____    ______ ____
ROOT
ATOM      1  N   UNL     1      -2.362   1.824   2.031  0.00  0.00    +0.000 N 
ATOM      2  H   UNL     1      -3.037   1.442   1.424  0.00  0.00    +0.000 HD
ENDROOT
BRANCH   1   3
ATOM      3  C   UNL     1      -2.908   2.405   3.199  0.00  0.00    +0.000 A 
ATOM      4  C   UNL     1      -2.233   3.260   4.068  0.00  0.00    +0.000 A 
ATOM      5  C   UNL     1      -2.880   3.801   5.187  0.00  0.00    +0.000 A 
ATOM      6  C   UNL     1      -4.214   3.498   5.443  0.00  0.00    +0.000 A 
ATOM      7  C   UNL     1      -4.907   2.662   4.575  0.00  0.00    +0.000 A 
ATOM      8  C   UNL     1      -4.260   2.126   3.458  0.00  0.00    +0.000 A 
ENDBRANCH   1   3
BRANCH   1   9
ATOM      9  C   UNL     1      -1.058   1.686   1.574  0.00  0.00    +0.000 C 
ATOM     10  S   UNL     1       0.377   1.961   2.397  0.00  0.00    +0.000 S 
BRANCH   9  14
ATOM     11  C   UNL     1      -2.798  -0.001  -1.004  0.00  0.00    +0.000 C 
ATOM     12  C   UNL     1      -2.336   1.152  -1.875  0.00  0.00    +0.000 C 
ATOM     13  C   UNL     1      -1.647   2.084  -0.890  0.00  0.00    +0.000 C 
ATOM     14  C   UNL     1      -0.965   1.154   0.128  0.00  0.00    +0.000 C 
ATOM     15  C   UNL     1      -1.631  -0.223  -0.049  0.00  0.00    +0.000 C 
ENDBRANCH   9  14
ENDBRANCH   1   9
TORSDOF 3
