REMARK  Name = *****
REMARK  3 active torsions:
REMARK  status: ('A' for Active; 'I' for Inactive)
REMARK    1  A    between atoms: C_6  and  C_7
REMARK    2  A    between atoms: C_7  and  S_8
REMARK    3  A    between atoms: S_8  and  C_10
REMARK                            x       y       z     vdW  Elec       q    Type
REMARK                         _______ _______ _______ _____ _____    ______ ____
ROOT
ATOM      1  S   UNL     1       4.494   1.958  -0.257  0.00  0.00    +0.000 S 
ATOM      2  O   UNL     1       4.003   3.112   0.570  0.00  0.00    +0.000 OA
ENDROOT
BRANCH   1   3
ATOM      3  C   UNL     1       6.240   1.764   0.174  0.00  0.00    +0.000 A 
ATOM      4  C   UNL     1       7.050   0.912  -0.587  0.00  0.00    +0.000 A 
ATOM      5  C   UNL     1       8.401   0.754  -0.265  0.00  0.00    +0.000 A 
ATOM      6  C   UNL     1       8.944   1.453   0.812  0.00  0.00    +0.000 A 
ATOM      7  C   UNL     1       8.149   2.311   1.568  0.00  0.00    +0.000 A 
ATOM      8  C   UNL     1       6.798   2.468   1.248  0.00  0.00    +0.000 A 
ATOM      9 CL   UNL     1      10.607   1.257   1.206  0.00  0.00    +0.000 Cl
ENDBRANCH   1   3
BRANCH   1  10
ATOM     10  C   UNL     1       3.902   0.421   0.533  0.00  0.00    +0.000 C 
BRANCH  10  16
ATOM     11  C   UNL     1       1.461   0.897   0.983  0.00  0.00    +0.000 A 
ATOM     12  C   UNL     1       0.103   0.686   0.737  0.00  0.00    +0.000 A 
ATOM     13  C   UNL     1      -0.289  -0.238  -0.228  0.00  0.00    +0.000 A 
ATOM     14  C   UNL     1       0.665  -0.951  -0.950  0.00  0.00    +0.000 A 
ATOM     15  C   UNL     1       2.025  -0.740  -0.705  0.00  0.00    +0.000 A 
ATOM     16  C   UNL     1       2.436   0.183   0.269  0.00  0.00    +0.000 A 
ATOM     17 CL   UNL     1      -1.962  -0.499  -0.534  0.00  0.00    +0.000 Cl
ENDBRANCH  10  16
ENDBRANCH   1  10
TORSDOF 3
