MODEL 1
REMARK VINA RESULT:      -5.1      0.000      0.000
REMARK  Name = *****
REMARK  3 active torsions:
REMARK  status: ('A' for Active; 'I' for Inactive)
REMARK    1  A    between atoms: C_1  and  C_2
REMARK    2  A    between atoms: C_2  and  C_10
REMARK    3  A    between atoms: C_3  and  C_4
REMARK                            x       y       z     vdW  Elec       q    Type
REMARK                         _______ _______ _______ _____ _____    ______ ____
ROOT
ATOM      1  C   UNL     1     103.301 127.318  80.527  0.00  0.00    +0.000 C 
ATOM      2  C   UNL     1     103.068 126.058  81.316  0.00  0.00    +0.000 C 
ATOM      3  C   UNL     1     102.107 125.889  82.245  0.00  0.00    +0.000 C 
ENDROOT
BRANCH   3   4
ATOM      4  C   UNL     1     101.116 126.901  82.622  0.00  0.00    +0.000 A 
ATOM      5  C   UNL     1     101.503 128.062  83.300  0.00  0.00    +0.000 A 
ATOM      6  C   UNL     1     100.552 129.023  83.647  0.00  0.00    +0.000 A 
ATOM      7  C   UNL     1      99.211 128.829  83.316  0.00  0.00    +0.000 A 
ATOM      8  C   UNL     1      98.821 127.675  82.637  0.00  0.00    +0.000 A 
ATOM      9  C   UNL     1      99.771 126.714  82.289  0.00  0.00    +0.000 A 
ENDBRANCH   3   4
BRANCH   2  10
ATOM     10  C   UNL     1     103.983 124.932  81.021  0.00  0.00    +0.000 A 
ATOM     11  C   UNL     1     104.083 123.846  81.901  0.00  0.00    +0.000 A 
ATOM     12  C   UNL     1     104.939 122.777  81.620  0.00  0.00    +0.000 A 
ATOM     13  C   UNL     1     105.701 122.780  80.454  0.00  0.00    +0.000 A 
ATOM     14  C   UNL     1     105.608 123.850  79.567  0.00  0.00    +0.000 A 
ATOM     15  C   UNL     1     104.754 124.919  79.848  0.00  0.00    +0.000 A 
ENDBRANCH   2  10
TORSDOF 2
ENDMDL
