REMARK  Name = *****
REMARK  3 active torsions:
REMARK  status: ('A' for Active; 'I' for Inactive)
REMARK    1  A    between atoms: C_4  and  C_7
REMARK    2  A    between atoms: C_7  and  C_16
REMARK    3  A    between atoms: C_8  and  C_9
REMARK                            x       y       z     vdW  Elec       q    Type
REMARK                         _______ _______ _______ _____ _____    ______ ____
ROOT
ATOM      1  C   UNL     1      -2.901   0.412  -0.053  0.00  0.00    +0.000 C 
ATOM      2  C   UNL     1      -3.288   1.688  -0.250  0.00  0.00    +0.000 C 
ENDROOT
BRANCH   2   3
ATOM      3  C   UNL     1      -2.390   2.846  -0.310  0.00  0.00    +0.000 A 
ATOM      4  C   UNL     1      -1.749   3.181  -1.508  0.00  0.00    +0.000 A 
ATOM      5  C   UNL     1      -0.886   4.278  -1.559  0.00  0.00    +0.000 A 
ATOM      6  C   UNL     1      -0.664   5.038  -0.411  0.00  0.00    +0.000 A 
ATOM      7  C   UNL     1      -1.300   4.713   0.785  0.00  0.00    +0.000 A 
ATOM      8  C   UNL     1      -2.165   3.617   0.836  0.00  0.00    +0.000 A 
ATOM      9 CL   UNL     1       0.402   6.387  -0.473  0.00  0.00    +0.000 Cl
ENDBRANCH   2   3
BRANCH   1  13
ATOM     10  C   UNL     1       1.199  -0.662   0.504  0.00  0.00    +0.000 A 
ATOM     11  C   UNL     1       0.444  -0.215   1.587  0.00  0.00    +0.000 A 
ATOM     12  C   UNL     1      -0.896   0.134   1.407  0.00  0.00    +0.000 A 
ATOM     13  C   UNL     1      -1.488   0.037   0.141  0.00  0.00    +0.000 A 
ATOM     14  C   UNL     1      -0.722  -0.415  -0.942  0.00  0.00    +0.000 A 
ATOM     15  C   UNL     1       0.618  -0.763  -0.759  0.00  0.00    +0.000 A 
ENDBRANCH   1  13
BRANCH   1  16
ATOM     16  C   UNL     1      -3.885  -0.625  -0.030  0.00  0.00    +0.000 C 
ATOM     17  N   UNL     1      -4.699  -1.452  -0.016  0.00  0.00    +0.000 NA
ENDBRANCH   1  16
TORSDOF 3
