MODEL 1
REMARK VINA RESULT:      -4.1      0.000      0.000
REMARK  Name = *****
REMARK  4 active torsions:
REMARK  status: ('A' for Active; 'I' for Inactive)
REMARK    1  A    between atoms: C_5  and  C_7
REMARK    2  A    between atoms: C_5  and  S_16
REMARK    3  A    between atoms: C_7  and  C_8
REMARK    4  A    between atoms: C_9  and  C_10
REMARK                            x       y       z     vdW  Elec       q    Type
REMARK                         _______ _______ _______ _____ _____    ______ ____
ROOT
ATOM      1  C   UNL     1     104.976 127.938  82.183  0.00  0.00    +0.000 C 
ENDROOT
BRANCH   1   6
ATOM      2  C   UNL     1     104.695 124.549  82.552  0.00  0.00    +0.000 C 
ATOM      3  C   UNL     1     104.197 124.025  81.206  0.00  0.00    +0.000 C 
ATOM      4  C   UNL     1     104.091 125.094  80.160  0.00  0.00    +0.000 C 
ATOM      5  C   UNL     1     104.684 126.294  80.267  0.00  0.00    +0.000 C 
ATOM      6  C   UNL     1     105.559 126.703  81.436  0.00  0.00    +0.000 C 
ATOM      7  C   UNL     1     105.870 125.517  82.385  0.00  0.00    +0.000 C 
BRANCH   6   8
ATOM      8  S   UNL     1     107.173 127.253  80.704  0.00  0.00    +0.000 S 
ATOM      9  H   UNL     1     107.871 126.166  80.276  0.00  0.00    +0.000 HD
ENDBRANCH   6   8
ENDBRANCH   1   6
BRANCH   1  10
ATOM     10  C   UNL     1     103.474 128.078  82.142  0.00  0.00    +0.000 C 
ATOM     11  C   UNL     1     102.650 127.571  83.074  0.00  0.00    +0.000 C 
BRANCH  11  12
ATOM     12  C   UNL     1     101.186 127.709  83.050  0.00  0.00    +0.000 A 
ATOM     13  C   UNL     1     100.530 128.843  83.546  0.00  0.00    +0.000 A 
ATOM     14  C   UNL     1      99.139 128.948  83.474  0.00  0.00    +0.000 A 
ATOM     15  C   UNL     1      98.390 127.926  82.896  0.00  0.00    +0.000 A 
ATOM     16  C   UNL     1      99.031 126.800  82.386  0.00  0.00    +0.000 A 
ATOM     17  C   UNL     1     100.423 126.695  82.457  0.00  0.00    +0.000 A 
ENDBRANCH  11  12
ENDBRANCH   1  10
TORSDOF 4
ENDMDL
