MODEL 1
REMARK VINA RESULT:      -4.9      0.000      0.000
REMARK  Name = *****
REMARK  4 active torsions:
REMARK  status: ('A' for Active; 'I' for Inactive)
REMARK    1  A    between atoms: C_1  and  C_2
REMARK    2  A    between atoms: C_2  and  C_4
REMARK    3  A    between atoms: C_7  and  C_10
REMARK    4  A    between atoms: C_11  and  C_12
REMARK                            x       y       z     vdW  Elec       q    Type
REMARK                         _______ _______ _______ _____ _____    ______ ____
ROOT
ATOM      1  C   UNL     1     105.750 122.939  80.930  0.00  0.00    +0.000 A 
ATOM      2  C   UNL     1     105.417 123.792  79.871  0.00  0.00    +0.000 A 
ATOM      3  C   UNL     1     104.430 124.771  80.038  0.00  0.00    +0.000 A 
ATOM      4  C   UNL     1     103.749 124.907  81.254  0.00  0.00    +0.000 A 
ATOM      5  C   UNL     1     104.094 124.057  82.313  0.00  0.00    +0.000 A 
ATOM      6  C   UNL     1     105.082 123.079  82.153  0.00  0.00    +0.000 A 
ENDROOT
BRANCH   1   8
ATOM      7  C   UNL     1     108.117 122.244  80.163  0.00  0.00    +0.000 C 
ATOM      8  C   UNL     1     106.803 121.888  80.808  0.00  0.00    +0.000 C 
ATOM      9  O   UNL     1     106.589 120.753  81.231  0.00  0.00    +0.000 OA
ENDBRANCH   1   8
BRANCH   4  10
ATOM     10  C   UNL     1     102.741 125.954  81.484  0.00  0.00    +0.000 C 
ATOM     11  C   UNL     1     101.912 125.990  82.541  0.00  0.00    +0.000 C 
BRANCH  11  12
ATOM     12  C   UNL     1     100.892 127.028  82.765  0.00  0.00    +0.000 A 
ATOM     13  C   UNL     1      99.545 126.849  82.422  0.00  0.00    +0.000 A 
ATOM     14  C   UNL     1      98.602 127.844  82.693  0.00  0.00    +0.000 A 
ATOM     15  C   UNL     1      98.992 129.024  83.322  0.00  0.00    +0.000 A 
ATOM     16  C   UNL     1     100.324 129.209  83.682  0.00  0.00    +0.000 A 
ATOM     17  C   UNL     1     101.267 128.215  83.409  0.00  0.00    +0.000 A 
ENDBRANCH  11  12
ENDBRANCH   4  10
TORSDOF 3
ENDMDL
