MODEL 1
REMARK VINA RESULT:      -4.3      0.000      0.000
REMARK  Name = *****
REMARK  5 active torsions:
REMARK  status: ('A' for Active; 'I' for Inactive)
REMARK    1  A    between atoms: C_1  and  O_2
REMARK    2  A    between atoms: O_2  and  C_3
REMARK    3  A    between atoms: C_6  and  P_9
REMARK    4  A    between atoms: P_9  and  O_10
REMARK    5  A    between atoms: O_10  and  C_11
REMARK                            x       y       z     vdW  Elec       q    Type
REMARK                         _______ _______ _______ _____ _____    ______ ____
ROOT
ATOM      1  P   UNL     1     103.707 126.376  82.060  0.00  0.00    +0.000 P 
ATOM      2  S   UNL     1     104.946 127.458  83.154  0.00  0.00    +0.000 S 
ATOM      3  S   UNL     1     103.581 127.373  80.357  0.00  0.00    +0.000 S 
ENDROOT
BRANCH   1   7
ATOM      4  C   UNL     1     104.876 121.891  81.649  0.00  0.00    +0.000 A 
ATOM      5  C   UNL     1     104.849 122.714  80.523  0.00  0.00    +0.000 A 
ATOM      6  C   UNL     1     104.500 124.064  80.647  0.00  0.00    +0.000 A 
ATOM      7  C   UNL     1     104.177 124.615  81.895  0.00  0.00    +0.000 A 
ATOM      8  C   UNL     1     104.187 123.774  83.016  0.00  0.00    +0.000 A 
ATOM      9  C   UNL     1     104.534 122.425  82.892  0.00  0.00    +0.000 A 
BRANCH   4  11
ATOM     10  C   UNL     1     104.931 119.855  82.865  0.00  0.00    +0.000 C 
ATOM     11  O   UNL     1     105.205 120.561  81.662  0.00  0.00    +0.000 OA
ENDBRANCH   4  11
ENDBRANCH   1   7
BRANCH   1  12
ATOM     12  O   UNL     1     102.257 126.157  82.772  0.00  0.00    +0.000 OA
BRANCH  12  13
ATOM     13  C   UNL     1     101.214 127.027  82.919  0.00  0.00    +0.000 A 
ATOM     14  C   UNL     1     101.281 128.276  83.527  0.00  0.00    +0.000 A 
ATOM     15  C   UNL     1     100.139 129.077  83.617  0.00  0.00    +0.000 A 
ATOM     16  C   UNL     1      98.923 128.631  83.099  0.00  0.00    +0.000 A 
ATOM     17  C   UNL     1      98.851 127.380  82.489  0.00  0.00    +0.000 A 
ATOM     18  C   UNL     1      99.993 126.583  82.402  0.00  0.00    +0.000 A 
ENDBRANCH  12  13
ENDBRANCH   1  12
TORSDOF 4
ENDMDL
