MODEL 1
REMARK VINA RESULT:      -4.7      0.000      0.000
REMARK  Name = *****
REMARK  5 active torsions:
REMARK  status: ('A' for Active; 'I' for Inactive)
REMARK    1  A    between atoms: C_1  and  C_2
REMARK    2  A    between atoms: C_2  and  O_4
REMARK    3  A    between atoms: O_4  and  C_5
REMARK    4  A    between atoms: C_10  and  C_11
REMARK    5  A    between atoms: C_12  and  C_13
REMARK                            x       y       z     vdW  Elec       q    Type
REMARK                         _______ _______ _______ _____ _____    ______ ____
ROOT
ATOM      1  C   UNL     1      88.873  68.538  86.100  0.00  0.00    +0.000 C 
ATOM      2  C   UNL     1      88.616  68.486  84.586  0.00  0.00    +0.000 C 
ATOM      3  C   UNL     1      89.660  69.273  83.796  0.00  0.00    +0.000 C 
ATOM      4  C   UNL     1      89.765  70.714  84.282  0.00  0.00    +0.000 C 
ATOM      5  C   UNL     1      90.034  70.787  85.785  0.00  0.00    +0.000 C 
ATOM      6  C   UNL     1      89.017  69.985  86.615  0.00  0.00    +0.000 C 
ENDROOT
BRANCH   6   7
ATOM      7  C   UNL     1      87.710  70.673  86.655  0.00  0.00    +0.000 C 
ATOM      8  C   UNL     1      86.645  71.227  86.696  0.00  0.00    +0.000 C 
BRANCH   8   9
ATOM      9  C   UNL     1      85.375  71.881  86.754  0.00  0.00    +0.000 A 
ATOM     10  C   UNL     1      84.774  72.131  87.990  0.00  0.00    +0.000 A 
ATOM     11  C   UNL     1      83.534  72.771  88.047  0.00  0.00    +0.000 A 
ATOM     12  C   UNL     1      82.895  73.160  86.870  0.00  0.00    +0.000 A 
ATOM     13  C   UNL     1      83.494  72.911  85.635  0.00  0.00    +0.000 A 
ATOM     14  C   UNL     1      84.734  72.272  85.577  0.00  0.00    +0.000 A 
ENDBRANCH   8   9
ENDBRANCH   6   7
BRANCH   1  15
ATOM     15  O   UNL     1      90.111  67.848  86.399  0.00  0.00    +0.000 OA
BRANCH  15  17
ATOM     16  C   UNL     1      91.133  65.944  85.499  0.00  0.00    +0.000 C 
ATOM     17  C   UNL     1      90.061  66.488  86.393  0.00  0.00    +0.000 C 
ATOM     18  O   UNL     1      89.265  65.799  87.012  0.00  0.00    +0.000 OA
ENDBRANCH  15  17
ENDBRANCH   1  15
TORSDOF 4
ENDMDL
