MODEL 1
REMARK VINA RESULT:      -3.7      0.000      0.000
REMARK  Name = *****
REMARK  1 active torsions:
REMARK  status: ('A' for Active; 'I' for Inactive)
REMARK    1  A    between atoms: C_4  and  C_6
REMARK                            x       y       z     vdW  Elec       q    Type
REMARK                         _______ _______ _______ _____ _____    ______ ____
ROOT
ATOM      1  C   UNL     1     102.237 126.456  82.360  0.00  0.00    +0.000 A 
ATOM      2  C   UNL     1     100.859 126.353  82.394  0.00  0.00    +0.000 A 
ATOM      3  C   UNL     1     100.260 127.495  83.005  0.00  0.00    +0.000 A 
ATOM      4  C   UNL     1     101.173 128.423  83.413  0.00  0.00    +0.000 A 
ATOM      5  S   UNL     1     102.804 127.921  83.070  0.00  0.00    +0.000 S 
ATOM      6  C   UNL     1     100.574 129.570  84.016  0.00  0.00    +0.000 A 
ATOM      7  C   UNL     1      99.203 129.448  84.040  0.00  0.00    +0.000 A 
ATOM      8  S   UNL     1      98.622 127.988  83.355  0.00  0.00    +0.000 S 
ENDROOT
BRANCH   1  12
ATOM      9  C   UNL     1     104.488 124.285  80.290  0.00  0.00    +0.000 A 
ATOM     10  C   UNL     1     104.799 123.655  81.472  0.00  0.00    +0.000 A 
ATOM     11  S   UNL     1     103.972 124.342  82.799  0.00  0.00    +0.000 S 
ATOM     12  C   UNL     1     103.171 125.496  81.805  0.00  0.00    +0.000 A 
ATOM     13  C   UNL     1     103.551 125.343  80.482  0.00  0.00    +0.000 A 
ENDBRANCH   1  12
TORSDOF 1
ENDMDL
