MODEL 1
REMARK VINA RESULT:      -4.5      0.000      0.000
REMARK  Name = *****
REMARK  4 active torsions:
REMARK  status: ('A' for Active; 'I' for Inactive)
REMARK    1  A    between atoms: C_1  and  C_2
REMARK    2  A    between atoms: C_4  and  C_9
REMARK    3  A    between atoms: C_9  and  O_11
REMARK    4  A    between atoms: O_11  and  C_12
REMARK                            x       y       z     vdW  Elec       q    Type
REMARK                         _______ _______ _______ _____ _____    ______ ____
ROOT
ATOM      1  C   UNL     1     101.204 130.615  84.558  0.00  0.00    +0.000 C 
ATOM      2  C   UNL     1     100.647 129.418  83.846  0.00  0.00    +0.000 A 
ATOM      3  C   UNL     1     101.469 128.318  83.568  0.00  0.00    +0.000 A 
ATOM      4  C   UNL     1     100.961 127.188  82.932  0.00  0.00    +0.000 A 
ATOM      5  C   UNL     1      99.615 127.142  82.590  0.00  0.00    +0.000 A 
ATOM      6  C   UNL     1      98.778 128.220  82.871  0.00  0.00    +0.000 A 
ATOM      7  C   UNL     1      99.290 129.355  83.501  0.00  0.00    +0.000 A 
ATOM      8  F   UNL     1      99.098 126.077  81.963  0.00  0.00    +0.000 F 
ATOM      9  F   UNL     1     102.757 128.359  83.942  0.00  0.00    +0.000 F 
ENDROOT
BRANCH   4  10
ATOM     10  C   UNL     1     101.816 126.035  82.650  0.00  0.00    +0.000 C 
ATOM     11  O   UNL     1     102.269 125.303  83.516  0.00  0.00    +0.000 OA
BRANCH  10  12
ATOM     12  O   UNL     1     101.944 125.933  81.279  0.00  0.00    +0.000 OA
BRANCH  12  13
ATOM     13  C   UNL     1     103.260 126.073  80.831  0.00  0.00    +0.000 A 
ATOM     14  C   UNL     1     103.895 127.313  80.893  0.00  0.00    +0.000 A 
ATOM     15  C   UNL     1     105.227 127.414  80.494  0.00  0.00    +0.000 A 
ATOM     16  C   UNL     1     105.912 126.280  80.052  0.00  0.00    +0.000 A 
ATOM     17  C   UNL     1     105.270 125.040  80.014  0.00  0.00    +0.000 A 
ATOM     18  C   UNL     1     103.939 124.932  80.412  0.00  0.00    +0.000 A 
ENDBRANCH  12  13
ENDBRANCH  10  12
ENDBRANCH   4  10
TORSDOF 3
ENDMDL
