MODEL 1
REMARK VINA RESULT:      -4.6      0.000      0.000
REMARK  Name = *****
REMARK  2 active torsions:
REMARK  status: ('A' for Active; 'I' for Inactive)
REMARK    1  A    between atoms: C_4  and  O_7
REMARK    2  A    between atoms: O_7  and  P_8
REMARK                            x       y       z     vdW  Elec       q    Type
REMARK                         _______ _______ _______ _____ _____    ______ ____
ROOT
ATOM      1  P   UNL     1     102.816 125.946  82.785  0.00  0.00    +0.000 P 
ATOM      2  O   UNL     1     102.668 127.459  83.406  0.00  0.00    +0.000 OA
ATOM      3  C   UNL     1     101.373 127.883  83.301  0.00  0.00    +0.000 A 
ATOM      4  C   UNL     1     100.881 129.099  83.729  0.00  0.00    +0.000 A 
ATOM      5  C   UNL     1      99.521 129.352  83.532  0.00  0.00    +0.000 A 
ATOM      6  C   UNL     1      98.692 128.395  82.917  0.00  0.00    +0.000 A 
ATOM      7  C   UNL     1      99.211 127.168  82.490  0.00  0.00    +0.000 A 
ATOM      8  C   UNL     1     100.556 126.940  82.695  0.00  0.00    +0.000 A 
ATOM      9  O   UNL     1     101.239 125.808  82.345  0.00  0.00    +0.000 OA
ENDROOT
BRANCH   1  10
ATOM     10  O   UNL     1     103.420 126.364  81.337  0.00  0.00    +0.000 OA
BRANCH  10  14
ATOM     11  C   UNL     1     106.118 123.475  79.825  0.00  0.00    +0.000 C 
ATOM     12  C   UNL     1     104.851 122.972  80.512  0.00  0.00    +0.000 C 
ATOM     13  C   UNL     1     104.184 124.069  81.335  0.00  0.00    +0.000 C 
ATOM     14  C   UNL     1     103.897 125.317  80.490  0.00  0.00    +0.000 C 
ATOM     15  C   UNL     1     105.181 125.817  79.816  0.00  0.00    +0.000 C 
ATOM     16  C   UNL     1     105.850 124.724  78.991  0.00  0.00    +0.000 C 
ENDBRANCH  10  14
ENDBRANCH   1  10
TORSDOF 2
ENDMDL
