REMARK  Name = *****
REMARK  3 active torsions:
REMARK  status: ('A' for Active; 'I' for Inactive)
REMARK    1  A    between atoms: C_4  and  C_7
REMARK    2  A    between atoms: C_7  and  C_8
REMARK    3  A    between atoms: C_8  and  C_9
REMARK                            x       y       z     vdW  Elec       q    Type
REMARK                         _______ _______ _______ _____ _____    ______ ____
ROOT
ATOM      1  C   UNL     1      -3.606  -0.852  -0.327  0.00  0.00    +0.000 C 
ENDROOT
BRANCH   1   2
ATOM      2  C   UNL     1      -5.087  -0.612  -0.496  0.00  0.00    +0.000 A 
ATOM      3  C   UNL     1      -5.632  -0.411  -1.775  0.00  0.00    +0.000 A 
ATOM      4  C   UNL     1      -6.999  -0.171  -1.927  0.00  0.00    +0.000 A 
ATOM      5  C   UNL     1      -7.824  -0.127  -0.806  0.00  0.00    +0.000 A 
ATOM      6  C   UNL     1      -7.297  -0.318   0.468  0.00  0.00    +0.000 A 
ATOM      7  C   UNL     1      -5.931  -0.558   0.624  0.00  0.00    +0.000 A 
ATOM      8  F   UNL     1      -9.139   0.103  -0.931  0.00  0.00    +0.000 F 
ATOM      9 CL   UNL     1      -7.644   0.071  -3.504  0.00  0.00    +0.000 Cl
ENDBRANCH   1   2
BRANCH   1  10
ATOM     10  C   UNL     1      -2.832   0.462  -0.192  0.00  0.00    +0.000 C 
BRANCH  10  14
ATOM     11  C   UNL     1       1.390  -0.276   0.281  0.00  0.00    +0.000 A 
ATOM     12  C   UNL     1       0.851  -0.099  -0.992  0.00  0.00    +0.000 A 
ATOM     13  C   UNL     1      -0.514   0.145  -1.146  0.00  0.00    +0.000 A 
ATOM     14  C   UNL     1      -1.352   0.220  -0.025  0.00  0.00    +0.000 A 
ATOM     15  C   UNL     1      -0.801   0.035   1.250  0.00  0.00    +0.000 A 
ATOM     16  C   UNL     1       0.564  -0.209   1.401  0.00  0.00    +0.000 A 
ENDBRANCH  10  14
ENDBRANCH   1  10
TORSDOF 3
