MODEL 1
REMARK VINA RESULT:      -3.8      0.000      0.000
REMARK  Name = *****
REMARK  5 active torsions:
REMARK  status: ('A' for Active; 'I' for Inactive)
REMARK    1  A    between atoms: C_5  and  O_7
REMARK    2  A    between atoms: O_7  and  C_8
REMARK    3  A    between atoms: C_8  and  O_10
REMARK    4  A    between atoms: O_10  and  C_11
REMARK    5  A    between atoms: C_11  and  C_12
REMARK                            x       y       z     vdW  Elec       q    Type
REMARK                         _______ _______ _______ _____ _____    ______ ____
ROOT
ATOM      1  O   UNL     1     102.768 126.576  82.473  0.00  0.00    +0.000 OA
ENDROOT
BRANCH   1   6
ATOM      2  C   UNL     1      99.148 127.188  82.569  0.00  0.00    +0.000 A 
ATOM      3  C   UNL     1      99.102 128.434  83.204  0.00  0.00    +0.000 A 
ATOM      4  C   UNL     1     100.284 129.063  83.600  0.00  0.00    +0.000 A 
ATOM      5  C   UNL     1     101.504 128.441  83.365  0.00  0.00    +0.000 A 
ATOM      6  C   UNL     1     101.546 127.190  82.752  0.00  0.00    +0.000 A 
ATOM      7  C   UNL     1     100.375 126.563  82.334  0.00  0.00    +0.000 A 
ATOM      8  F   UNL     1     102.639 129.057  83.723  0.00  0.00    +0.000 F 
ENDBRANCH   1   6
BRANCH   1   9
ATOM      9  C   UNL     1     103.149 126.718  81.152  0.00  0.00    +0.000 C 
ATOM     10  O   UNL     1     103.406 127.757  80.562  0.00  0.00    +0.000 OA
BRANCH   9  11
ATOM     11  O   UNL     1     103.224 125.475  80.605  0.00  0.00    +0.000 OA
BRANCH  11  12
ATOM     12  C   UNL     1     103.880 124.465  81.402  0.00  0.00    +0.000 C 
BRANCH  12  13
ATOM     13  C   UNL     1     105.160 123.920  80.742  0.00  0.00    +0.000 C 
ATOM     14 CL   UNL     1     105.481 124.776  79.199  0.00  0.00    +0.000 Cl
ATOM     15 CL   UNL     1     106.586 124.095  81.803  0.00  0.00    +0.000 Cl
ATOM     16 CL   UNL     1     104.938 122.176  80.374  0.00  0.00    +0.000 Cl
ENDBRANCH  12  13
ENDBRANCH  11  12
ENDBRANCH   9  11
ENDBRANCH   1   9
TORSDOF 5
ENDMDL
