REMARK  Name = *****
REMARK  4 active torsions:
REMARK  status: ('A' for Active; 'I' for Inactive)
REMARK    1  A    between atoms: C_4  and  C_7
REMARK    2  A    between atoms: C_7  and  C_8
REMARK    3  A    between atoms: C_8  and  C_11
REMARK    4  A    between atoms: C_11  and  C_12
REMARK                            x       y       z     vdW  Elec       q    Type
REMARK                         _______ _______ _______ _____ _____    ______ ____
ROOT
ATOM      1  C   UNL     1      -3.730  -1.013  -0.067  0.00  0.00    +0.000 C 
ATOM      2  C   UNL     1      -3.313  -2.108   0.502  0.00  0.00    +0.000 C 
ATOM      3  O   UNL     1      -2.936  -3.098   1.011  0.00  0.00    +0.000 OA
ENDROOT
BRANCH   1   4
ATOM      4  C   UNL     1      -2.902   0.248  -0.034  0.00  0.00    +0.000 C 
BRANCH   4   8
ATOM      5  C   UNL     1      -1.296   1.318  -3.897  0.00  0.00    +0.000 A 
ATOM      6  C   UNL     1      -2.238   2.140  -3.282  0.00  0.00    +0.000 A 
ATOM      7  C   UNL     1      -2.755   1.797  -2.031  0.00  0.00    +0.000 A 
ATOM      8  C   UNL     1      -2.333   0.627  -1.383  0.00  0.00    +0.000 A 
ATOM      9  C   UNL     1      -1.377  -0.187  -2.009  0.00  0.00    +0.000 A 
ATOM     10  C   UNL     1      -0.864   0.157  -3.261  0.00  0.00    +0.000 A 
ENDBRANCH   4   8
ENDBRANCH   1   4
BRANCH   1  11
ATOM     11  C   UNL     1      -5.059  -0.957  -0.779  0.00  0.00    +0.000 C 
BRANCH  11  12
ATOM     12  C   UNL     1      -6.181  -0.465   0.106  0.00  0.00    +0.000 A 
ATOM     13  C   UNL     1      -6.582   0.878   0.072  0.00  0.00    +0.000 A 
ATOM     14  C   UNL     1      -7.610   1.330   0.901  0.00  0.00    +0.000 A 
ATOM     15  C   UNL     1      -8.246   0.446   1.771  0.00  0.00    +0.000 A 
ATOM     16  C   UNL     1      -7.853  -0.890   1.816  0.00  0.00    +0.000 A 
ATOM     17  C   UNL     1      -6.824  -1.344   0.990  0.00  0.00    +0.000 A 
ENDBRANCH  11  12
ENDBRANCH   1  11
TORSDOF 4
