MODEL 1
REMARK VINA RESULT:      -4.4      0.000      0.000
REMARK  Name = *****
REMARK  3 active torsions:
REMARK  status: ('A' for Active; 'I' for Inactive)
REMARK    1  A    between atoms: C_4  and  S_16
REMARK    2  A    between atoms: C_5  and  N_7
REMARK    3  A    between atoms: C_8  and  C_9
REMARK                            x       y       z     vdW  Elec       q    Type
REMARK                         _______ _______ _______ _____ _____    ______ ____
ROOT
ATOM      1  N   UNL     1     102.000 126.068  82.931  0.00  0.00    +0.000 NA
ATOM      2  C   UNL     1     102.510 125.891  81.752  0.00  0.00    +0.000 C 
ENDROOT
BRANCH   2   3
ATOM      3  C   UNL     1     103.590 124.916  81.510  0.00  0.00    +0.000 A 
ATOM      4  C   UNL     1     104.034 124.071  82.532  0.00  0.00    +0.000 A 
ATOM      5  C   UNL     1     105.057 123.153  82.280  0.00  0.00    +0.000 A 
ATOM      6  C   UNL     1     105.628 123.086  81.009  0.00  0.00    +0.000 A 
ATOM      7  C   UNL     1     105.187 123.927  79.988  0.00  0.00    +0.000 A 
ATOM      8  C   UNL     1     104.164 124.846  80.237  0.00  0.00    +0.000 A 
ATOM      9 CL   UNL     1     106.888 121.956  80.698  0.00  0.00    +0.000 Cl
ENDBRANCH   2   3
BRANCH   1  14
ATOM     10  C   UNL     1      98.672 127.655  82.536  0.00  0.00    +0.000 A 
ATOM     11  C   UNL     1      98.883 128.900  83.125  0.00  0.00    +0.000 A 
ATOM     12  C   UNL     1     100.136 129.222  83.648  0.00  0.00    +0.000 A 
ATOM     13  C   UNL     1     101.186 128.297  83.589  0.00  0.00    +0.000 A 
ATOM     14  C   UNL     1     100.971 127.029  83.015  0.00  0.00    +0.000 A 
ATOM     15  C   UNL     1      99.713 126.727  82.478  0.00  0.00    +0.000 A 
BRANCH  13  16
ATOM     16  S   UNL     1     102.778 128.765  84.258  0.00  0.00    +0.000 S 
ATOM     17  H   UNL     1     103.316 127.711  84.928  0.00  0.00    +0.000 HD
ENDBRANCH  13  16
ENDBRANCH   1  14
TORSDOF 3
ENDMDL
