MODEL 1
REMARK VINA RESULT:      -4.8      0.000      0.000
REMARK  Name = *****
REMARK  6 active torsions:
REMARK  status: ('A' for Active; 'I' for Inactive)
REMARK    1  A    between atoms: C_1  and  C_2
REMARK    2  A    between atoms: C_7  and  C_8
REMARK    3  A    between atoms: C_8  and  C_9
REMARK    4  A    between atoms: C_9  and  O_11
REMARK    5  A    between atoms: O_11  and  C_12
REMARK    6  A    between atoms: C_17  and  C_18
REMARK                            x       y       z     vdW  Elec       q    Type
REMARK                         _______ _______ _______ _____ _____    ______ ____
ROOT
ATOM      1  C   UNL     1      89.741  69.047  85.542  0.00  0.00    +0.000 C 
ATOM      2  O   UNL     1      89.457  68.710  84.397  0.00  0.00    +0.000 OA
ENDROOT
BRANCH   1   3
ATOM      3  C   UNL     1      89.660  70.467  86.048  0.00  0.00    +0.000 C 
BRANCH   3  10
ATOM      4  C   UNL     1      88.566  70.408  88.876  0.00  0.00    +0.000 C 
ATOM      5  C   UNL     1      87.730  70.833  87.700  0.00  0.00    +0.000 A 
ATOM      6  C   UNL     1      86.394  71.207  87.924  0.00  0.00    +0.000 A 
ATOM      7  C   UNL     1      85.574  71.609  86.869  0.00  0.00    +0.000 A 
ATOM      8  C   UNL     1      86.078  71.644  85.575  0.00  0.00    +0.000 A 
ATOM      9  C   UNL     1      87.401  71.280  85.335  0.00  0.00    +0.000 A 
ATOM     10  C   UNL     1      88.245  70.877  86.388  0.00  0.00    +0.000 A 
ENDBRANCH   3  10
ENDBRANCH   1   3
BRANCH   1  11
ATOM     11  O   UNL     1      90.165  68.219  86.575  0.00  0.00    +0.000 OA
BRANCH  11  12
ATOM     12  C   UNL     1      89.962  66.860  86.321  0.00  0.00    +0.000 A 
ATOM     13  C   UNL     1      90.954  66.141  85.654  0.00  0.00    +0.000 A 
ATOM     14  C   UNL     1      90.780  64.776  85.438  0.00  0.00    +0.000 A 
ATOM     15  C   UNL     1      89.626  64.140  85.900  0.00  0.00    +0.000 A 
ATOM     16  C   UNL     1      88.647  64.865  86.586  0.00  0.00    +0.000 A 
ATOM     17  C   UNL     1      88.809  66.238  86.818  0.00  0.00    +0.000 A 
ATOM     18  C   UNL     1      87.755  67.018  87.548  0.00  0.00    +0.000 C 
ENDBRANCH  11  12
ENDBRANCH   1  11
TORSDOF 4
ENDMDL
