MODEL 1
REMARK VINA RESULT:      -5.0      0.000      0.000
REMARK  Name = *****
REMARK  2 active torsions:
REMARK  status: ('A' for Active; 'I' for Inactive)
REMARK    1  A    between atoms: C_5  and  N_7
REMARK    2  A    between atoms: C_8  and  C_10
REMARK                            x       y       z     vdW  Elec       q    Type
REMARK                         _______ _______ _______ _____ _____    ______ ____
ROOT
ATOM      1  N   UNL     1     101.862 126.363  81.919  0.00  0.00    +0.000 N 
ATOM      2  C   UNL     1     102.668 125.448  82.570  0.00  0.00    +0.000 C 
ATOM      3  O   UNL     1     102.571 125.088  83.736  0.00  0.00    +0.000 OA
ATOM      4  H   UNL     1     101.958 126.422  80.941  0.00  0.00    +0.000 HD
ENDROOT
BRANCH   1   9
ATOM      5  C   UNL     1     100.561 129.197  83.903  0.00  0.00    +0.000 A 
ATOM      6  C   UNL     1      99.181 129.044  83.792  0.00  0.00    +0.000 A 
ATOM      7  C   UNL     1      98.664 127.973  83.067  0.00  0.00    +0.000 A 
ATOM      8  C   UNL     1      99.525 127.069  82.442  0.00  0.00    +0.000 A 
ATOM      9  C   UNL     1     100.914 127.225  82.517  0.00  0.00    +0.000 A 
ATOM     10  C   UNL     1     101.421 128.289  83.277  0.00  0.00    +0.000 A 
ATOM     11  F   UNL     1      98.964 126.004  81.855  0.00  0.00    +0.000 F 
ENDBRANCH   1   9
BRANCH   2  12
ATOM     12  C   UNL     1     103.679 124.773  81.704  0.00  0.00    +0.000 A 
ATOM     13  C   UNL     1     104.268 123.556  82.072  0.00  0.00    +0.000 A 
ATOM     14  C   UNL     1     105.207 122.966  81.227  0.00  0.00    +0.000 A 
ATOM     15  C   UNL     1     105.557 123.567  80.018  0.00  0.00    +0.000 A 
ATOM     16  C   UNL     1     104.958 124.768  79.641  0.00  0.00    +0.000 A 
ATOM     17  C   UNL     1     104.017 125.368  80.481  0.00  0.00    +0.000 A 
ATOM     18 CL   UNL     1     105.940 121.476  81.681  0.00  0.00    +0.000 Cl
ENDBRANCH   2  12
TORSDOF 2
ENDMDL
