MODEL 1
REMARK VINA RESULT:      -4.4      0.000      0.000
REMARK  Name = *****
REMARK  5 active torsions:
REMARK  status: ('A' for Active; 'I' for Inactive)
REMARK    1  A    between atoms: C_1  and  C_2
REMARK    2  A    between atoms: C_3  and  C_17
REMARK    3  A    between atoms: N_6  and  C_7
REMARK    4  A    between atoms: C_7  and  C_8
REMARK    5  A    between atoms: N_15  and  C_16
REMARK                            x       y       z     vdW  Elec       q    Type
REMARK                         _______ _______ _______ _____ _____    ______ ____
ROOT
ATOM      1  C   UNL     1      88.943  64.277  87.129  0.00  0.00    +0.000 C 
ATOM      2  C   UNL     1      88.986  65.761  86.929  0.00  0.00    +0.000 A 
ATOM      3  C   UNL     1      89.919  66.437  86.222  0.00  0.00    +0.000 A 
ATOM      4  S   UNL     1      89.618  68.168  86.267  0.00  0.00    +0.000 S 
ATOM      5  C   UNL     1      88.184  67.948  87.302  0.00  0.00    +0.000 A 
ATOM      6  N   UNL     1      87.452  68.891  87.779  0.00  0.00    +0.000 NA
ATOM      7  N   UNL     1      88.002  66.586  87.508  0.00  0.00    +0.000 N 
ATOM      8  C   UNL     1      86.958  66.117  88.404  0.00  0.00    +0.000 C 
ATOM      9  C   UNL     1      91.097  65.928  85.463  0.00  0.00    +0.000 C 
ENDROOT
BRANCH   6  10
ATOM     10  C   UNL     1      87.787  70.285  87.473  0.00  0.00    +0.000 C 
BRANCH  10  11
ATOM     11  C   UNL     1      86.597  71.104  87.008  0.00  0.00    +0.000 A 
ATOM     12  C   UNL     1      85.656  71.605  87.926  0.00  0.00    +0.000 A 
ATOM     13  C   UNL     1      84.549  72.342  87.499  0.00  0.00    +0.000 A 
ATOM     14  C   UNL     1      84.357  72.590  86.143  0.00  0.00    +0.000 A 
ATOM     15  C   UNL     1      85.271  72.095  85.214  0.00  0.00    +0.000 A 
ATOM     16  C   UNL     1      86.379  71.354  85.642  0.00  0.00    +0.000 A 
ATOM     17 CL   UNL     1      87.454  70.758  84.424  0.00  0.00    +0.000 Cl
ENDBRANCH  10  11
ENDBRANCH   6  10
TORSDOF 2
ENDMDL
