REMARK  Name = *****
REMARK  6 active torsions:
REMARK  status: ('A' for Active; 'I' for Inactive)
REMARK    1  A    between atoms: C_1  and  C_2
REMARK    2  A    between atoms: C_2  and  N_3
REMARK    3  A    between atoms: C_2  and  N_10
REMARK    4  A    between atoms: N_3  and  C_4
REMARK    5  A    between atoms: N_10  and  C_11
REMARK    6  A    between atoms: N_10  and  C_12
REMARK                            x       y       z     vdW  Elec       q    Type
REMARK                         _______ _______ _______ _____ _____    ______ ____
ROOT
ATOM      1  C   UNL     1       1.058   0.085  -0.245  0.00  0.00    +0.000 C 
ATOM      2  C   UNL     1       2.583   0.049  -0.100  0.00  0.00    +0.000 C 
ENDROOT
BRANCH   2   3
ATOM      3  N   UNL     1       3.232   1.038   0.459  0.00  0.00    +0.000 N 
ATOM      4  H   UNL     1       4.213   0.990   0.520  0.00  0.00    +0.000 HD
BRANCH   3   5
ATOM      5  C   UNL     1       2.575   2.160   0.972  0.00  0.00    +0.000 A 
ATOM      6  C   UNL     1       2.034   2.142   2.260  0.00  0.00    +0.000 A 
ATOM      7  C   UNL     1       1.403   3.274   2.778  0.00  0.00    +0.000 A 
ATOM      8  C   UNL     1       1.324   4.438   2.013  0.00  0.00    +0.000 A 
ATOM      9  C   UNL     1       1.884   4.471   0.736  0.00  0.00    +0.000 A 
ATOM     10  C   UNL     1       2.514   3.336   0.222  0.00  0.00    +0.000 A 
ENDBRANCH   3   5
ENDBRANCH   2   3
BRANCH   2  11
ATOM     11  N   UNL     1       3.245  -1.096  -0.581  0.00  0.00    +0.000 N 
ATOM     12  C   UNL     1       2.538  -2.198  -1.231  0.00  0.00    +0.000 C 
BRANCH  11  13
ATOM     13  C   UNL     1       4.660  -1.213  -0.611  0.00  0.00    +0.000 A 
ATOM     14  C   UNL     1       5.442  -0.871   0.506  0.00  0.00    +0.000 A 
ATOM     15  C   UNL     1       6.836  -0.991   0.490  0.00  0.00    +0.000 A 
ATOM     16  C   UNL     1       7.475  -1.458  -0.653  0.00  0.00    +0.000 A 
ATOM     17  C   UNL     1       6.732  -1.803  -1.776  0.00  0.00    +0.000 A 
ATOM     18  C   UNL     1       5.337  -1.681  -1.754  0.00  0.00    +0.000 A 
ATOM     19 CL   UNL     1       9.188  -1.609  -0.679  0.00  0.00    +0.000 Cl
ENDBRANCH  11  13
ENDBRANCH   2  11
TORSDOF 4
