MODEL 1
REMARK VINA RESULT:      -4.5      0.000      0.000
REMARK  Name = *****
REMARK  3 active torsions:
REMARK  status: ('A' for Active; 'I' for Inactive)
REMARK    1  A    between atoms: C_5  and  C_7
REMARK    2  A    between atoms: C_7  and  O_9
REMARK    3  A    between atoms: O_9  and  C_10
REMARK                            x       y       z     vdW  Elec       q    Type
REMARK                         _______ _______ _______ _____ _____    ______ ____
ROOT
ATOM      1  C   UNL     1     101.748 126.001  82.899  0.00  0.00    +0.000 C 
ATOM      2  O   UNL     1     102.214 125.369  83.836  0.00  0.00    +0.000 OA
ENDROOT
BRANCH   1   7
ATOM      3  C   UNL     1     100.600 129.430  83.948  0.00  0.00    +0.000 A 
ATOM      4  C   UNL     1      99.277 129.444  83.508  0.00  0.00    +0.000 A 
ATOM      5  C   UNL     1      98.750 128.332  82.852  0.00  0.00    +0.000 A 
ATOM      6  C   UNL     1      99.544 127.205  82.644  0.00  0.00    +0.000 A 
ATOM      7  C   UNL     1     100.864 127.172  83.093  0.00  0.00    +0.000 A 
ATOM      8  C   UNL     1     101.394 128.300  83.739  0.00  0.00    +0.000 A 
ATOM      9  F   UNL     1      99.005 126.172  81.979  0.00  0.00    +0.000 F 
ENDBRANCH   1   7
BRANCH   1  10
ATOM     10  O   UNL     1     101.871 125.719  81.554  0.00  0.00    +0.000 OA
BRANCH  10  11
ATOM     11  C   UNL     1     103.169 125.884  81.063  0.00  0.00    +0.000 A 
ATOM     12  C   UNL     1     103.901 124.775  80.635  0.00  0.00    +0.000 A 
ATOM     13  C   UNL     1     105.173 124.968  80.100  0.00  0.00    +0.000 A 
ATOM     14  C   UNL     1     105.683 126.260  79.989  0.00  0.00    +0.000 A 
ATOM     15  C   UNL     1     104.941 127.366  80.398  0.00  0.00    +0.000 A 
ATOM     16  C   UNL     1     103.668 127.181  80.935  0.00  0.00    +0.000 A 
ATOM     17  F   UNL     1     106.904 126.442  79.472  0.00  0.00    +0.000 F 
ENDBRANCH  10  11
ENDBRANCH   1  10
TORSDOF 3
ENDMDL
