MODEL 1
REMARK VINA RESULT:      -4.3      0.000      0.000
REMARK  Name = *****
REMARK  3 active torsions:
REMARK  status: ('A' for Active; 'I' for Inactive)
REMARK    1  A    between atoms: C_4  and  C_7
REMARK    2  A    between atoms: C_7  and  O_9
REMARK    3  A    between atoms: O_9  and  C_10
REMARK                            x       y       z     vdW  Elec       q    Type
REMARK                         _______ _______ _______ _____ _____    ______ ____
ROOT
ATOM      1  O   UNL     1     101.654 126.935  82.251  0.00  0.00    +0.000 OA
ENDROOT
BRANCH   1   2
ATOM      2  C   UNL     1     101.025 127.896  83.048  0.00  0.00    +0.000 A 
ATOM      3  C   UNL     1     101.784 128.893  83.670  0.00  0.00    +0.000 A 
ATOM      4  C   UNL     1     101.149 129.864  84.447  0.00  0.00    +0.000 A 
ATOM      5  C   UNL     1      99.761 129.846  84.594  0.00  0.00    +0.000 A 
ATOM      6  C   UNL     1      99.002 128.863  83.955  0.00  0.00    +0.000 A 
ATOM      7  C   UNL     1      99.632 127.890  83.176  0.00  0.00    +0.000 A 
ATOM      8 CL   UNL     1      98.659 126.710  82.377  0.00  0.00    +0.000 Cl
ATOM      9 CL   UNL     1     103.498 128.967  83.485  0.00  0.00    +0.000 Cl
ENDBRANCH   1   2
BRANCH   1  10
ATOM     10  C   UNL     1     102.120 125.873  83.002  0.00  0.00    +0.000 C 
ATOM     11  O   UNL     1     101.763 125.563  84.130  0.00  0.00    +0.000 OA
BRANCH  10  15
ATOM     12  C   UNL     1     105.070 123.778  80.700  0.00  0.00    +0.000 A 
ATOM     13  C   UNL     1     104.891 123.442  82.041  0.00  0.00    +0.000 A 
ATOM     14  C   UNL     1     103.936 124.111  82.810  0.00  0.00    +0.000 A 
ATOM     15  C   UNL     1     103.153 125.123  82.235  0.00  0.00    +0.000 A 
ATOM     16  C   UNL     1     103.340 125.453  80.886  0.00  0.00    +0.000 A 
ATOM     17  C   UNL     1     104.296 124.781  80.121  0.00  0.00    +0.000 A 
ENDBRANCH  10  15
ENDBRANCH   1  10
TORSDOF 3
ENDMDL
