MODEL 1
REMARK VINA RESULT:      -4.0      0.000      0.000
REMARK  Name = *****
REMARK  3 active torsions:
REMARK  status: ('A' for Active; 'I' for Inactive)
REMARK    1  A    between atoms: C_2  and  C_3
REMARK    2  A    between atoms: C_2  and  C_9
REMARK    3  A    between atoms: C_3  and  C_4
REMARK                            x       y       z     vdW  Elec       q    Type
REMARK                         _______ _______ _______ _____ _____    ______ ____
ROOT
ATOM      1  C   UNL     1     103.497 128.596  83.104  0.00  0.00    +0.000 C 
ATOM      2  C   UNL     1     102.684 127.530  83.203  0.00  0.00    +0.000 C 
ENDROOT
BRANCH   2   3
ATOM      3  C   UNL     1     101.222 127.705  83.074  0.00  0.00    +0.000 A 
ATOM      4  C   UNL     1     100.424 126.708  82.497  0.00  0.00    +0.000 A 
ATOM      5  C   UNL     1      99.039 126.869  82.396  0.00  0.00    +0.000 A 
ATOM      6  C   UNL     1      98.435 128.030  82.874  0.00  0.00    +0.000 A 
ATOM      7  C   UNL     1      99.213 129.030  83.452  0.00  0.00    +0.000 A 
ATOM      8  C   UNL     1     100.597 128.868  83.552  0.00  0.00    +0.000 A 
ENDBRANCH   2   3
BRANCH   2   9
ATOM      9  C   UNL     1     103.228 126.127  83.399  0.00  0.00    +0.000 C 
BRANCH   9  10
ATOM     10  C   UNL     1     104.192 125.685  82.289  0.00  0.00    +0.000 C 
ATOM     11  C   UNL     1     103.545 125.600  80.906  0.00  0.00    +0.000 C 
ATOM     12  C   UNL     1     104.436 124.694  80.068  0.00  0.00    +0.000 C 
ATOM     13  C   UNL     1     104.648 123.429  80.878  0.00  0.00    +0.000 C 
ATOM     14  S   UNL     1     104.820 123.992  82.594  0.00  0.00    +0.000 S 
ENDBRANCH   9  10
ENDBRANCH   2   9
TORSDOF 3
ENDMDL
