MODEL 1
REMARK VINA RESULT:      -4.5      0.000      0.000
REMARK  Name = *****
REMARK  5 active torsions:
REMARK  status: ('A' for Active; 'I' for Inactive)
REMARK    1  A    between atoms: C_1  and  C_2
REMARK    2  A    between atoms: C_5  and  C_8
REMARK    3  A    between atoms: C_8  and  C_17
REMARK    4  A    between atoms: N_9  and  C_10
REMARK    5  A    between atoms: C_14  and  C_16
REMARK                            x       y       z     vdW  Elec       q    Type
REMARK                         _______ _______ _______ _____ _____    ______ ____
ROOT
ATOM      1  C   UNL     1     102.835 125.831  83.191  0.00  0.00    +0.000 C 
ATOM      2  N   UNL     1     101.661 125.877  83.749  0.00  0.00    +0.000 NA
ATOM      3  C   UNL     1     103.689 124.619  83.482  0.00  0.00    +0.000 C 
ENDROOT
BRANCH   1   8
ATOM      4  C   UNL     1     105.193 129.719  79.621  0.00  0.00    +0.000 C 
ATOM      5  C   UNL     1     104.557 128.729  80.552  0.00  0.00    +0.000 A 
ATOM      6  C   UNL     1     104.814 128.787  81.929  0.00  0.00    +0.000 A 
ATOM      7  C   UNL     1     104.249 127.850  82.795  0.00  0.00    +0.000 A 
ATOM      8  C   UNL     1     103.426 126.846  82.284  0.00  0.00    +0.000 A 
ATOM      9  C   UNL     1     103.179 126.762  80.911  0.00  0.00    +0.000 A 
ATOM     10  C   UNL     1     103.749 127.701  80.050  0.00  0.00    +0.000 A 
ENDBRANCH   1   8
BRANCH   2  11
ATOM     11  C   UNL     1     100.774 126.933  83.496  0.00  0.00    +0.000 A 
ATOM     12  C   UNL     1      99.675 126.775  82.648  0.00  0.00    +0.000 A 
ATOM     13  C   UNL     1      98.789 127.833  82.436  0.00  0.00    +0.000 A 
ATOM     14  C   UNL     1      98.989 129.052  83.085  0.00  0.00    +0.000 A 
ATOM     15  C   UNL     1     100.077 129.224  83.948  0.00  0.00    +0.000 A 
ATOM     16  C   UNL     1     100.951 128.150  84.162  0.00  0.00    +0.000 A 
ATOM     17  C   UNL     1     100.263 130.513  84.692  0.00  0.00    +0.000 C 
ENDBRANCH   2  11
TORSDOF 2
ENDMDL
