MODEL 1
REMARK VINA RESULT:      -4.5      0.000      0.000
REMARK  Name = *****
REMARK  2 active torsions:
REMARK  status: ('A' for Active; 'I' for Inactive)
REMARK    1  A    between atoms: N_9  and  C_10
REMARK    2  A    between atoms: C_10  and  C_11
REMARK                            x       y       z     vdW  Elec       q    Type
REMARK                         _______ _______ _______ _____ _____    ______ ____
ROOT
ATOM      1  C   UNL     1      84.039  72.625  86.277  0.00  0.00    +0.000 A 
ATOM      2  C   UNL     1      84.529  72.303  87.544  0.00  0.00    +0.000 A 
ATOM      3  C   UNL     1      85.762  71.658  87.707  0.00  0.00    +0.000 A 
ATOM      4  C   UNL     1      86.474  71.357  86.542  0.00  0.00    +0.000 A 
ATOM      5  C   UNL     1      86.006  71.666  85.270  0.00  0.00    +0.000 A 
ATOM      6  C   UNL     1      84.770  72.311  85.123  0.00  0.00    +0.000 A 
ATOM      7  N   UNL     1      86.908  71.245  84.330  0.00  0.00    +0.000 NA
ATOM      8  N   UNL     1      87.926  70.677  84.961  0.00  0.00    +0.000 NA
ATOM      9  N   UNL     1      87.678  70.755  86.285  0.00  0.00    +0.000 N 
ENDROOT
BRANCH   9  10
ATOM     10  C   UNL     1      88.630  70.195  87.231  0.00  0.00    +0.000 C 
BRANCH  10  11
ATOM     11  C   UNL     1      88.805  68.704  87.037  0.00  0.00    +0.000 A 
ATOM     12  C   UNL     1      87.883  67.756  87.512  0.00  0.00    +0.000 A 
ATOM     13  C   UNL     1      88.086  66.388  87.299  0.00  0.00    +0.000 A 
ATOM     14  C   UNL     1      89.209  65.953  86.604  0.00  0.00    +0.000 A 
ATOM     15  C   UNL     1      90.132  66.871  86.115  0.00  0.00    +0.000 A 
ATOM     16  C   UNL     1      89.929  68.237  86.325  0.00  0.00    +0.000 A 
ATOM     17 CL   UNL     1      89.456  64.272  86.342  0.00  0.00    +0.000 Cl
ATOM     18 CL   UNL     1      86.451  68.210  88.366  0.00  0.00    +0.000 Cl
ENDBRANCH  10  11
ENDBRANCH   9  10
TORSDOF 2
ENDMDL
