MODEL 1
REMARK VINA RESULT:      -4.8      0.000      0.000
REMARK  Name = *****
REMARK  2 active torsions:
REMARK  status: ('A' for Active; 'I' for Inactive)
REMARK    1  A    between atoms: C_2  and  C_11
REMARK    2  A    between atoms: C_4  and  C_5
REMARK                            x       y       z     vdW  Elec       q    Type
REMARK                         _______ _______ _______ _____ _____    ______ ____
ROOT
ATOM      1  C   UNL     1     103.431 125.954  83.505  0.00  0.00    +0.000 C 
ATOM      2  C   UNL     1     102.102 125.859  82.702  0.00  0.00    +0.000 C 
ATOM      3  S   UNL     1     103.057 126.121  81.154  0.00  0.00    +0.000 S 
ATOM      4  C   UNL     1     104.291 125.404  82.326  0.00  0.00    +0.000 C 
ENDROOT
BRANCH   4   5
ATOM      5  C   UNL     1     104.455 123.840  82.072  0.00  0.00    +0.000 A 
ATOM      6  C   UNL     1     104.701 123.336  80.775  0.00  0.00    +0.000 A 
ATOM      7  C   UNL     1     104.867 121.972  80.518  0.00  0.00    +0.000 A 
ATOM      8  C   UNL     1     104.799 121.057  81.561  0.00  0.00    +0.000 A 
ATOM      9  C   UNL     1     104.569 121.509  82.855  0.00  0.00    +0.000 A 
ATOM     10  C   UNL     1     104.404 122.877  83.102  0.00  0.00    +0.000 A 
ENDBRANCH   4   5
BRANCH   2  11
ATOM     11  C   UNL     1     100.977 126.957  82.887  0.00  0.00    +0.000 A 
ATOM     12  C   UNL     1      99.646 126.793  82.449  0.00  0.00    +0.000 A 
ATOM     13  C   UNL     1      98.675 127.788  82.614  0.00  0.00    +0.000 A 
ATOM     14  C   UNL     1      99.007 128.988  83.229  0.00  0.00    +0.000 A 
ATOM     15  C   UNL     1     100.307 129.191  83.679  0.00  0.00    +0.000 A 
ATOM     16  C   UNL     1     101.269 128.191  83.509  0.00  0.00    +0.000 A 
ENDBRANCH   2  11
TORSDOF 2
ENDMDL
