REMARK  Name = *****
REMARK  4 active torsions:
REMARK  status: ('A' for Active; 'I' for Inactive)
REMARK    1  A    between atoms: C_1  and  O_2
REMARK    2  A    between atoms: O_2  and  C_3
REMARK    3  A    between atoms: C_6  and  C_9
REMARK    4  A    between atoms: C_11  and  C_12
REMARK                            x       y       z     vdW  Elec       q    Type
REMARK                         _______ _______ _______ _____ _____    ______ ____
ROOT
ATOM      1  C   UNL     1       4.633   4.355  -1.759  0.00  0.00    +0.000 C 
ATOM      2  C   UNL     1       5.529   5.423  -1.185  0.00  0.00    +0.000 C 
ATOM      3  C   UNL     1       4.438   5.815  -2.149  0.00  0.00    +0.000 C 
ENDROOT
BRANCH   1   7
ATOM      4  C   UNL     1       6.151   1.476  -4.641  0.00  0.00    +0.000 A 
ATOM      5  C   UNL     1       6.775   1.632  -3.406  0.00  0.00    +0.000 A 
ATOM      6  C   UNL     1       6.285   2.566  -2.484  0.00  0.00    +0.000 A 
ATOM      7  C   UNL     1       5.171   3.371  -2.770  0.00  0.00    +0.000 A 
ATOM      8  C   UNL     1       4.555   3.194  -4.017  0.00  0.00    +0.000 A 
ATOM      9  C   UNL     1       5.040   2.263  -4.941  0.00  0.00    +0.000 A 
BRANCH   4  11
ATOM     10  C   UNL     1       7.620  -0.253  -5.348  0.00  0.00    +0.000 C 
ATOM     11  O   UNL     1       6.520   0.603  -5.627  0.00  0.00    +0.000 OA
ENDBRANCH   4  11
ENDBRANCH   1   7
BRANCH   3  12
ATOM     12  C   UNL     1       3.213   6.553  -1.663  0.00  0.00    +0.000 A 
ATOM     13  C   UNL     1       3.316   7.732  -0.907  0.00  0.00    +0.000 A 
ATOM     14  C   UNL     1       2.181   8.420  -0.469  0.00  0.00    +0.000 A 
ATOM     15  C   UNL     1       0.913   7.944  -0.788  0.00  0.00    +0.000 A 
ATOM     16  C   UNL     1       0.781   6.784  -1.546  0.00  0.00    +0.000 A 
ATOM     17  C   UNL     1       1.920   6.101  -1.979  0.00  0.00    +0.000 A 
ENDBRANCH   3  12
TORSDOF 3
