MODEL 1
REMARK VINA RESULT:      -4.6      0.000      0.000
REMARK  Name = *****
REMARK  5 active torsions:
REMARK  status: ('A' for Active; 'I' for Inactive)
REMARK    1  A    between atoms: C_1  and  C_2
REMARK    2  A    between atoms: C_5  and  C_7
REMARK    3  A    between atoms: C_7  and  C_8
REMARK    4  A    between atoms: C_8  and  C_9
REMARK    5  A    between atoms: C_9  and  C_10
REMARK                            x       y       z     vdW  Elec       q    Type
REMARK                         _______ _______ _______ _____ _____    ______ ____
ROOT
ATOM      1  C   UNL     1     103.573 128.119  81.663  0.00  0.00    +0.000 C 
ENDROOT
BRANCH   1   2
ATOM      2  C   UNL     1     103.502 127.358  80.336  0.00  0.00    +0.000 C 
BRANCH   2   7
ATOM      3  C   UNL     1     104.925 122.458  80.470  0.00  0.00    +0.000 C 
ATOM      4  C   UNL     1     105.036 123.931  80.323  0.00  0.00    +0.000 C 
ATOM      5  C   UNL     1     106.129 124.661  80.045  0.00  0.00    +0.000 C 
ATOM      6  C   UNL     1     105.769 126.117  79.994  0.00  0.00    +0.000 C 
ATOM      7  C   UNL     1     104.290 126.088  80.288  0.00  0.00    +0.000 C 
ATOM      8  C   UNL     1     103.900 124.815  80.472  0.00  0.00    +0.000 C 
ENDBRANCH   2   7
ENDBRANCH   1   2
BRANCH   1   9
ATOM      9  C   UNL     1     102.938 127.309  82.796  0.00  0.00    +0.000 C 
BRANCH   9  10
ATOM     10  C   UNL     1     101.455 127.564  82.899  0.00  0.00    +0.000 A 
ATOM     11  C   UNL     1     100.536 126.640  82.383  0.00  0.00    +0.000 A 
ATOM     12  C   UNL     1      99.165 126.887  82.462  0.00  0.00    +0.000 A 
ATOM     13  C   UNL     1      98.699 128.061  83.051  0.00  0.00    +0.000 A 
ATOM     14  C   UNL     1      99.605 128.989  83.561  0.00  0.00    +0.000 A 
ATOM     15  C   UNL     1     100.977 128.745  83.484  0.00  0.00    +0.000 A 
ENDBRANCH   9  10
ENDBRANCH   1   9
TORSDOF 4
ENDMDL
