MODEL 1
REMARK VINA RESULT:      -4.6      0.000      0.000
REMARK  Name = *****
REMARK  3 active torsions:
REMARK  status: ('A' for Active; 'I' for Inactive)
REMARK    1  A    between atoms: C_4  and  C_7
REMARK    2  A    between atoms: C_7  and  S_9
REMARK    3  A    between atoms: S_9  and  C_10
REMARK                            x       y       z     vdW  Elec       q    Type
REMARK                         _______ _______ _______ _____ _____    ______ ____
ROOT
ATOM      1  C   UNL     1     100.499 127.187  83.146  0.00  0.00    +0.000 C 
ATOM      2  O   UNL     1      99.654 126.751  82.371  0.00  0.00    +0.000 OA
ENDROOT
BRANCH   1   6
ATOM      3  C   UNL     1     100.580 131.283  84.461  0.00  0.00    +0.000 A 
ATOM      4  C   UNL     1      99.422 130.789  83.866  0.00  0.00    +0.000 A 
ATOM      5  C   UNL     1      99.365 129.461  83.429  0.00  0.00    +0.000 A 
ATOM      6  C   UNL     1     100.473 128.615  83.587  0.00  0.00    +0.000 A 
ATOM      7  C   UNL     1     101.633 129.127  84.189  0.00  0.00    +0.000 A 
ATOM      8  C   UNL     1     101.685 130.454  84.625  0.00  0.00    +0.000 A 
ENDBRANCH   1   6
BRANCH   1   9
ATOM      9  S   UNL     1     101.778 126.134  83.744  0.00  0.00    +0.000 S 
BRANCH   9  10
ATOM     10  C   UNL     1     102.764 125.961  82.269  0.00  0.00    +0.000 A 
ATOM     11  C   UNL     1     103.411 124.747  82.018  0.00  0.00    +0.000 A 
ATOM     12  C   UNL     1     104.193 124.600  80.872  0.00  0.00    +0.000 A 
ATOM     13  C   UNL     1     104.344 125.654  79.974  0.00  0.00    +0.000 A 
ATOM     14  C   UNL     1     103.709 126.869  80.226  0.00  0.00    +0.000 A 
ATOM     15  C   UNL     1     102.924 127.023  81.372  0.00  0.00    +0.000 A 
ATOM     16 BR   UNL     1     105.060 122.953  80.536  0.00  0.00    +0.000 Br
ENDBRANCH   9  10
ENDBRANCH   1   9
TORSDOF 3
ENDMDL
