REMARK  Name = *****
REMARK  3 active torsions:
REMARK  status: ('A' for Active; 'I' for Inactive)
REMARK    1  A    between atoms: C_7  and  C_8
REMARK    2  A    between atoms: C_8  and  C_9
REMARK    3  A    between atoms: C_9  and  C_10
REMARK                            x       y       z     vdW  Elec       q    Type
REMARK                         _______ _______ _______ _____ _____    ______ ____
ROOT
ATOM      1  C   UNL     1       0.928  -0.087   0.129  0.00  0.00    +0.000 C 
ATOM      2  C   UNL     1       2.270  -0.066   0.074  0.00  0.00    +0.000 C 
ATOM      3  C   UNL     1       3.059   1.221   0.091  0.00  0.00    +0.000 C 
ATOM      4  C   UNL     1       4.015   1.288  -1.102  0.00  0.00    +0.000 C 
ATOM      5  C   UNL     1       4.904   0.044  -1.191  0.00  0.00    +0.000 C 
ATOM      6  C   UNL     1       4.067  -1.216  -1.203  0.00  0.00    +0.000 C 
ATOM      7  C   UNL     1       4.131  -2.168  -2.155  0.00  0.00    +0.000 C 
ATOM      8  C   UNL     1       3.104  -1.321  -0.037  0.00  0.00    +0.000 C 
ENDROOT
BRANCH   7   9
ATOM      9  C   UNL     1       5.037  -2.141  -3.358  0.00  0.00    +0.000 C 
BRANCH   9  10
ATOM     10  C   UNL     1       4.800  -3.336  -4.289  0.00  0.00    +0.000 C 
BRANCH  10  11
ATOM     11  C   UNL     1       5.700  -3.289  -5.500  0.00  0.00    +0.000 A 
ATOM     12  C   UNL     1       6.980  -3.857  -5.457  0.00  0.00    +0.000 A 
ATOM     13  C   UNL     1       7.818  -3.795  -6.572  0.00  0.00    +0.000 A 
ATOM     14  C   UNL     1       7.387  -3.162  -7.736  0.00  0.00    +0.000 A 
ATOM     15  C   UNL     1       6.118  -2.588  -7.786  0.00  0.00    +0.000 A 
ATOM     16  C   UNL     1       5.278  -2.648  -6.673  0.00  0.00    +0.000 A 
ENDBRANCH  10  11
ENDBRANCH   9  10
ENDBRANCH   7   9
TORSDOF 3
