MODEL 1
REMARK VINA RESULT:      -5.1      0.000      0.000
REMARK  Name = *****
REMARK  1 active torsions:
REMARK  status: ('A' for Active; 'I' for Inactive)
REMARK    1  A    between atoms: C_5  and  C_7
REMARK                            x       y       z     vdW  Elec       q    Type
REMARK                         _______ _______ _______ _____ _____    ______ ____
ROOT
ATOM      1  C   UNL     1     102.120 126.027  82.550  0.00  0.00    +0.000 A 
ATOM      2  N   UNL     1     102.661 125.146  83.372  0.00  0.00    +0.000 NA
ATOM      3  C   UNL     1     103.577 124.484  82.601  0.00  0.00    +0.000 A 
ATOM      4  C   UNL     1     103.555 124.987  81.311  0.00  0.00    +0.000 A 
ATOM      5  O   UNL     1     102.618 125.975  81.266  0.00  0.00    +0.000 OA
ATOM      6  C   UNL     1     104.358 124.540  80.271  0.00  0.00    +0.000 A 
ATOM      7  C   UNL     1     105.234 123.507  80.605  0.00  0.00    +0.000 A 
ATOM      8  C   UNL     1     105.296 122.963  81.890  0.00  0.00    +0.000 A 
ATOM      9  C   UNL     1     104.465 123.445  82.913  0.00  0.00    +0.000 A 
ATOM     10  F   UNL     1     106.046 123.018  79.657  0.00  0.00    +0.000 F 
ENDROOT
BRANCH   1  15
ATOM     11  C   UNL     1      98.708 127.632  82.647  0.00  0.00    +0.000 A 
ATOM     12  C   UNL     1      98.978 128.864  83.232  0.00  0.00    +0.000 A 
ATOM     13  C   UNL     1     100.286 129.184  83.592  0.00  0.00    +0.000 A 
ATOM     14  C   UNL     1     101.330 128.274  83.373  0.00  0.00    +0.000 A 
ATOM     15  C   UNL     1     101.075 127.022  82.786  0.00  0.00    +0.000 A 
ATOM     16  C   UNL     1      99.745 126.723  82.426  0.00  0.00    +0.000 A 
ATOM     17 CL   UNL     1     102.916 128.804  83.821  0.00  0.00    +0.000 Cl
ENDBRANCH   1  15
TORSDOF 1
ENDMDL
