MODEL 1
REMARK VINA RESULT:      -5.0      0.000      0.000
REMARK  Name = *****
REMARK  2 active torsions:
REMARK  status: ('A' for Active; 'I' for Inactive)
REMARK    1  A    between atoms: C_9  and  C_10
REMARK    2  A    between atoms: C_10  and  C_11
REMARK                            x       y       z     vdW  Elec       q    Type
REMARK                         _______ _______ _______ _____ _____    ______ ____
ROOT
ATOM      1  C   UNL     1      86.630  71.260  88.179  0.00  0.00    +0.000 C 
ATOM      2  C   UNL     1      85.457  71.852  87.459  0.00  0.00    +0.000 A 
ATOM      3  C   UNL     1      84.291  72.388  87.982  0.00  0.00    +0.000 A 
ATOM      4  C   UNL     1      83.335  72.876  87.087  0.00  0.00    +0.000 A 
ATOM      5  C   UNL     1      83.555  72.820  85.701  0.00  0.00    +0.000 A 
ATOM      6  C   UNL     1      84.736  72.279  85.186  0.00  0.00    +0.000 A 
ATOM      7  C   UNL     1      85.678  71.800  86.078  0.00  0.00    +0.000 A 
ATOM      8  C   UNL     1      86.978  71.203  85.826  0.00  0.00    +0.000 C 
ATOM      9  C   UNL     1      87.526  70.888  87.014  0.00  0.00    +0.000 C 
ENDROOT
BRANCH   9  10
ATOM     10  C   UNL     1      88.873  70.281  87.243  0.00  0.00    +0.000 C 
BRANCH  10  11
ATOM     11  C   UNL     1      88.895  68.786  87.030  0.00  0.00    +0.000 A 
ATOM     12  C   UNL     1      87.865  67.984  87.542  0.00  0.00    +0.000 A 
ATOM     13  C   UNL     1      87.887  66.600  87.359  0.00  0.00    +0.000 A 
ATOM     14  C   UNL     1      88.942  66.005  86.669  0.00  0.00    +0.000 A 
ATOM     15  C   UNL     1      89.975  66.791  86.164  0.00  0.00    +0.000 A 
ATOM     16  C   UNL     1      89.954  68.175  86.343  0.00  0.00    +0.000 A 
ENDBRANCH  10  11
ENDBRANCH   9  10
TORSDOF 2
ENDMDL
