MODEL 1
REMARK VINA RESULT:      -4.8      0.000      0.000
REMARK  Name = *****
REMARK  4 active torsions:
REMARK  status: ('A' for Active; 'I' for Inactive)
REMARK    1  A    between atoms: C_1  and  C_2
REMARK    2  A    between atoms: C_2  and  C_17
REMARK    3  A    between atoms: C_5  and  C_7
REMARK    4  A    between atoms: C_8  and  C_9
REMARK                            x       y       z     vdW  Elec       q    Type
REMARK                         _______ _______ _______ _____ _____    ______ ____
ROOT
ATOM      1  C   UNL     1     101.669 126.166  82.151  0.00  0.00    +0.000 C 
ATOM      2  C   UNL     1     102.615 126.729  81.385  0.00  0.00    +0.000 C 
ENDROOT
BRANCH   2   3
ATOM      3  C   UNL     1     103.772 126.004  80.839  0.00  0.00    +0.000 A 
ATOM      4  C   UNL     1     103.784 124.604  80.911  0.00  0.00    +0.000 A 
ATOM      5  C   UNL     1     104.877 123.872  80.431  0.00  0.00    +0.000 A 
ATOM      6  C   UNL     1     105.977 124.537  79.883  0.00  0.00    +0.000 A 
ATOM      7  C   UNL     1     105.980 125.933  79.823  0.00  0.00    +0.000 A 
ATOM      8  C   UNL     1     104.888 126.661  80.304  0.00  0.00    +0.000 A 
ATOM      9 CL   UNL     1     107.360 123.702  79.273  0.00  0.00    +0.000 Cl
ATOM     10 CL   UNL     1     104.802 122.149  80.550  0.00  0.00    +0.000 Cl
ENDBRANCH   2   3
BRANCH   1  15
ATOM     11  C   UNL     1      98.667 128.137  85.236  0.00  0.00    +0.000 C 
ATOM     12  C   UNL     1      99.196 128.227  83.808  0.00  0.00    +0.000 C 
ATOM     13  C   UNL     1      98.388 127.374  82.840  0.00  0.00    +0.000 C 
ATOM     14  O   UNL     1      99.371 126.776  82.004  0.00  0.00    +0.000 OA
ATOM     15  C   UNL     1     100.528 126.909  82.694  0.00  0.00    +0.000 C 
ATOM     16  N   UNL     1     100.555 127.652  83.751  0.00  0.00    +0.000 NA
ATOM     17  C   UNL     1      99.275 129.688  83.356  0.00  0.00    +0.000 C 
ENDBRANCH   1  15
TORSDOF 2
ENDMDL
