MODEL 1
REMARK VINA RESULT:      -4.7      0.000      0.000
REMARK  Name = *****
REMARK  5 active torsions:
REMARK  status: ('A' for Active; 'I' for Inactive)
REMARK    1  A    between atoms: C_1  and  C_2
REMARK    2  A    between atoms: C_2  and  O_3
REMARK    3  A    between atoms: O_3  and  C_4
REMARK    4  A    between atoms: C_7  and  C_10
REMARK    5  A    between atoms: C_11  and  C_12
REMARK                            x       y       z     vdW  Elec       q    Type
REMARK                         _______ _______ _______ _____ _____    ______ ____
ROOT
ATOM      1  C   UNL     1      88.538  66.066  86.893  0.00  0.00    +0.000 C 
ATOM      2  C   UNL     1      88.917  67.103  86.420  0.00  0.00    +0.000 C 
ENDROOT
BRANCH   2   3
ATOM      3  C   UNL     1      89.342  68.336  85.835  0.00  0.00    +0.000 A 
ATOM      4  C   UNL     1      89.371  69.512  86.591  0.00  0.00    +0.000 A 
ATOM      5  C   UNL     1      89.765  70.720  86.024  0.00  0.00    +0.000 A 
ATOM      6  C   UNL     1      90.133  70.753  84.682  0.00  0.00    +0.000 A 
ATOM      7  C   UNL     1      90.112  69.589  83.912  0.00  0.00    +0.000 A 
ATOM      8  C   UNL     1      89.716  68.379  84.489  0.00  0.00    +0.000 A 
ATOM      9 CL   UNL     1      90.615  72.241  83.966  0.00  0.00    +0.000 Cl
ATOM     10  F   UNL     1      89.013  69.496  87.883  0.00  0.00    +0.000 F 
ENDBRANCH   2   3
BRANCH   1  14
ATOM     11  C   UNL     1      87.049  62.453  88.522  0.00  0.00    +0.000 A 
ATOM     12  C   UNL     1      87.801  63.324  89.312  0.00  0.00    +0.000 A 
ATOM     13  C   UNL     1      88.299  64.512  88.767  0.00  0.00    +0.000 A 
ATOM     14  C   UNL     1      88.052  64.834  87.431  0.00  0.00    +0.000 A 
ATOM     15  C   UNL     1      87.314  63.959  86.635  0.00  0.00    +0.000 A 
ATOM     16  C   UNL     1      86.817  62.773  87.182  0.00  0.00    +0.000 A 
BRANCH  11  17
ATOM     17  O   UNL     1      86.493  61.272  88.933  0.00  0.00    +0.000 OA
BRANCH  17  19
ATOM     18  C   UNL     1      85.447  59.968  90.631  0.00  0.00    +0.000 C 
ATOM     19  C   UNL     1      85.534  61.340  89.988  0.00  0.00    +0.000 C 
ENDBRANCH  17  19
ENDBRANCH  11  17
ENDBRANCH   1  14
TORSDOF 4
ENDMDL
