MODEL 1
REMARK VINA RESULT:      -4.2      0.000      0.000
REMARK  Name = *****
REMARK  3 active torsions:
REMARK  status: ('A' for Active; 'I' for Inactive)
REMARK    1  A    between atoms: C_4  and  O_7
REMARK    2  A    between atoms: O_7  and  C_8
REMARK    3  A    between atoms: C_8  and  C_10
REMARK                            x       y       z     vdW  Elec       q    Type
REMARK                         _______ _______ _______ _____ _____    ______ ____
ROOT
ATOM      1  C   UNL     1     102.649 125.276  82.870  0.00  0.00    +0.000 C 
ATOM      2  O   UNL     1     102.687 125.048  84.072  0.00  0.00    +0.000 OA
ENDROOT
BRANCH   1   3
ATOM      3  C   UNL     1     103.761 124.957  81.893  0.00  0.00    +0.000 C 
ATOM      4  C   UNL     1     103.459 125.399  80.428  0.00  0.00    +0.000 C 
ATOM      5  C   UNL     1     104.681 126.275  80.076  0.00  0.00    +0.000 C 
ATOM      6  C   UNL     1     105.797 125.554  80.837  0.00  0.00    +0.000 C 
ATOM      7  C   UNL     1     105.093 125.690  82.192  0.00  0.00    +0.000 C 
ATOM      8  C   UNL     1     104.860 127.186  82.177  0.00  0.00    +0.000 C 
ATOM      9  C   UNL     1     104.602 127.533  80.908  0.00  0.00    +0.000 C 
ENDBRANCH   1   3
BRANCH   1  10
ATOM     10  O   UNL     1     101.641 125.940  82.235  0.00  0.00    +0.000 OA
BRANCH  10  14
ATOM     11  C   UNL     1      99.235 129.267  83.291  0.00  0.00    +0.000 C 
ATOM     12  C   UNL     1      98.551 127.908  83.178  0.00  0.00    +0.000 C 
ATOM     13  C   UNL     1      99.420 126.902  82.429  0.00  0.00    +0.000 C 
ATOM     14  C   UNL     1     100.810 126.774  83.061  0.00  0.00    +0.000 C 
ATOM     15  C   UNL     1     101.489 128.143  83.158  0.00  0.00    +0.000 C 
ATOM     16  C   UNL     1     100.625 129.150  83.910  0.00  0.00    +0.000 C 
ENDBRANCH  10  14
ENDBRANCH   1  10
TORSDOF 3
ENDMDL
