MODEL 1
REMARK VINA RESULT:      -4.5      0.000      0.000
REMARK  Name = *****
REMARK  6 active torsions:
REMARK  status: ('A' for Active; 'I' for Inactive)
REMARK    1  A    between atoms: C_1  and  N_2
REMARK    2  A    between atoms: N_2  and  C_3
REMARK    3  A    between atoms: N_2  and  C_4
REMARK    4  A    between atoms: C_4  and  C_5
REMARK    5  A    between atoms: C_4  and  C_12
REMARK    6  A    between atoms: C_5  and  C_6
REMARK                            x       y       z     vdW  Elec       q    Type
REMARK                         _______ _______ _______ _____ _____    ______ ____
ROOT
ATOM      1  C   UNL     1     102.717 127.189  82.764  0.00  0.00    +0.000 C 
ENDROOT
BRANCH   1   2
ATOM      2  C   UNL     1     101.227 127.517  82.878  0.00  0.00    +0.000 A 
ATOM      3  C   UNL     1     100.280 126.612  82.365  0.00  0.00    +0.000 A 
ATOM      4  C   UNL     1      98.912 126.878  82.448  0.00  0.00    +0.000 A 
ATOM      5  C   UNL     1      98.465 128.053  83.045  0.00  0.00    +0.000 A 
ATOM      6  C   UNL     1      99.386 128.962  83.560  0.00  0.00    +0.000 A 
ATOM      7  C   UNL     1     100.755 128.696  83.478  0.00  0.00    +0.000 A 
ENDBRANCH   1   2
BRANCH   1   9
ATOM      8  C   UNL     1     104.388 128.790  81.949  0.00  0.00    +0.000 C 
ATOM      9  N   UNL     1     103.635 128.310  83.106  0.00  0.00    +0.000 N 
ATOM     10  C   UNL     1     104.528 128.069  84.234  0.00  0.00    +0.000 C 
ATOM     11  H   UNL     1     102.998 129.044  83.416  0.00  0.00    +0.000 HD
ENDBRANCH   1   9
BRANCH   1  12
ATOM     12  C   UNL     1     103.104 126.536  81.403  0.00  0.00    +0.000 C 
BRANCH  12  13
ATOM     13  C   UNL     1     103.726 125.162  81.545  0.00  0.00    +0.000 A 
ATOM     14  C   UNL     1     104.241 124.488  80.429  0.00  0.00    +0.000 A 
ATOM     15  C   UNL     1     104.798 123.216  80.565  0.00  0.00    +0.000 A 
ATOM     16  C   UNL     1     104.844 122.604  81.816  0.00  0.00    +0.000 A 
ATOM     17  C   UNL     1     104.332 123.262  82.932  0.00  0.00    +0.000 A 
ATOM     18  C   UNL     1     103.775 124.534  82.798  0.00  0.00    +0.000 A 
ENDBRANCH  12  13
ENDBRANCH   1  12
TORSDOF 4
ENDMDL
