MODEL 1
REMARK VINA RESULT:      -4.9      0.000      0.000
REMARK  Name = *****
REMARK  4 active torsions:
REMARK  status: ('A' for Active; 'I' for Inactive)
REMARK    1  A    between atoms: C_4  and  C_7
REMARK    2  A    between atoms: C_8  and  C_9
REMARK    3  A    between atoms: C_12  and  N_15
REMARK    4  A    between atoms: N_15  and  O_16
REMARK                            x       y       z     vdW  Elec       q    Type
REMARK                         _______ _______ _______ _____ _____    ______ ____
ROOT
ATOM      1  C   UNL     1     103.885 125.267  80.882  0.00  0.00    +0.000 A 
ATOM      2  C   UNL     1     104.733 125.480  79.790  0.00  0.00    +0.000 A 
ATOM      3  C   UNL     1     105.713 124.537  79.454  0.00  0.00    +0.000 A 
ATOM      4  C   UNL     1     105.857 123.358  80.191  0.00  0.00    +0.000 A 
ATOM      5  C   UNL     1     105.041 123.171  81.311  0.00  0.00    +0.000 A 
ATOM      6  C   UNL     1     104.061 124.111  81.651  0.00  0.00    +0.000 A 
ENDROOT
BRANCH   1   8
ATOM      7  C   UNL     1     101.939 126.009  82.233  0.00  0.00    +0.000 C 
ATOM      8  C   UNL     1     102.866 126.245  81.290  0.00  0.00    +0.000 C 
BRANCH   7  12
ATOM      9  C   UNL     1      98.955 128.857  83.366  0.00  0.00    +0.000 A 
ATOM     10  C   UNL     1     100.291 129.110  83.664  0.00  0.00    +0.000 A 
ATOM     11  C   UNL     1     101.277 128.185  83.305  0.00  0.00    +0.000 A 
ATOM     12  C   UNL     1     100.931 126.992  82.655  0.00  0.00    +0.000 A 
ATOM     13  C   UNL     1      99.585 126.757  82.347  0.00  0.00    +0.000 A 
ATOM     14  C   UNL     1      98.601 127.682  82.705  0.00  0.00    +0.000 A 
ENDBRANCH   7  12
ENDBRANCH   1   8
BRANCH   4  15
ATOM     15  N   UNL     1     106.885 122.425  79.918  0.00  0.00    +0.000 N 
ATOM     16  H   UNL     1     106.848 121.520  80.304  0.00  0.00    +0.000 HD
BRANCH  15  17
ATOM     17  O   UNL     1     107.949 122.798  79.098  0.00  0.00    +0.000 OA
ATOM     18  H   UNL     1     108.393 123.573  79.476  0.00  0.00    +0.000 HD
ENDBRANCH  15  17
ENDBRANCH   4  15
TORSDOF 4
ENDMDL
