MODEL 1
REMARK VINA RESULT:      -3.4      0.000      0.000
REMARK  Name = *****
REMARK  3 active torsions:
REMARK  status: ('A' for Active; 'I' for Inactive)
REMARK    1  A    between atoms: N_4  and  C_7
REMARK    2  A    between atoms: C_7  and  S_9
REMARK    3  A    between atoms: S_9  and  N_10
REMARK                            x       y       z     vdW  Elec       q    Type
REMARK                         _______ _______ _______ _____ _____    ______ ____
ROOT
ATOM      1  C   UNL     1      95.025 119.937  81.134  0.00  0.00    +0.000 C 
ATOM      2  S   UNL     1      94.207 121.413  81.141  0.00  0.00    +0.000 S 
ENDROOT
BRANCH   1   6
ATOM      3  C   UNL     1      98.870 118.892  82.828  0.00  0.00    +0.000 C 
ATOM      4  C   UNL     1      98.711 119.394  81.400  0.00  0.00    +0.000 C 
ATOM      5  C   UNL     1      97.500 120.312  81.271  0.00  0.00    +0.000 C 
ATOM      6  N   UNL     1      96.263 119.688  81.768  0.00  0.00    +0.000 N 
ATOM      7  C   UNL     1      96.375 119.136  83.128  0.00  0.00    +0.000 C 
ATOM      8  C   UNL     1      97.586 118.218  83.288  0.00  0.00    +0.000 C 
ENDBRANCH   1   6
BRANCH   1   9
ATOM      9  S   UNL     1      94.277 118.601  80.216  0.00  0.00    +0.000 S 
BRANCH   9  10
ATOM     10  N   UNL     1      95.594 117.572  79.998  0.00  0.00    +0.000 NA
ATOM     11  C   UNL     1      95.580 116.273  80.700  0.00  0.00    +0.000 C 
ATOM     12  C   UNL     1      96.959 115.615  80.723  0.00  0.00    +0.000 C 
ATOM     13  C   UNL     1      97.519 115.446  79.318  0.00  0.00    +0.000 C 
ATOM     14  C   UNL     1      97.486 116.777  78.581  0.00  0.00    +0.000 C 
ATOM     15  C   UNL     1      96.090 117.400  78.619  0.00  0.00    +0.000 C 
ENDBRANCH   9  10
ENDBRANCH   1   9
TORSDOF 3
ENDMDL
