MODEL 1
REMARK VINA RESULT:      -4.2      0.000      0.000
REMARK  Name = *****
REMARK  7 active torsions:
REMARK  status: ('A' for Active; 'I' for Inactive)
REMARK    1  A    between atoms: C_1  and  C_2
REMARK    2  A    between atoms: C_2  and  P_3
REMARK    3  A    between atoms: P_3  and  C_4
REMARK    4  A    between atoms: P_3  and  N_11
REMARK    5  A    between atoms: C_9  and  C_10
REMARK    6  A    between atoms: N_11  and  C_12
REMARK    7  A    between atoms: N_11  and  C_13
REMARK                            x       y       z     vdW  Elec       q    Type
REMARK                         _______ _______ _______ _____ _____    ______ ____
ROOT
ATOM      1  P   UNL     1      88.462  70.766  85.186  0.00  0.00    +0.000 P 
ENDROOT
BRANCH   1   2
ATOM      2  C   UNL     1      87.021  71.265  86.211  0.00  0.00    +0.000 A 
ATOM      3  C   UNL     1      85.885  71.843  85.608  0.00  0.00    +0.000 A 
ATOM      4  C   UNL     1      84.770  72.227  86.356  0.00  0.00    +0.000 A 
ATOM      5  C   UNL     1      84.763  72.051  87.732  0.00  0.00    +0.000 A 
ATOM      6  C   UNL     1      85.877  71.502  88.359  0.00  0.00    +0.000 A 
ATOM      7  C   UNL     1      87.016  71.121  87.622  0.00  0.00    +0.000 A 
ATOM      8  C   UNL     1      88.176  70.543  88.395  0.00  0.00    +0.000 C 
ENDBRANCH   1   2
BRANCH   1  10
ATOM      9  C   UNL     1      89.096  73.042  83.702  0.00  0.00    +0.000 C 
ATOM     10  C   UNL     1      88.369  71.709  83.611  0.00  0.00    +0.000 C 
ENDBRANCH   1  10
BRANCH   1  11
ATOM     11  N   UNL     1      88.070  69.193  84.802  0.00  0.00    +0.000 N 
ATOM     12  C   UNL     1      87.500  68.930  83.470  0.00  0.00    +0.000 C 
BRANCH  11  13
ATOM     13  C   UNL     1      88.326  68.039  85.604  0.00  0.00    +0.000 A 
ATOM     14  C   UNL     1      89.604  67.445  85.649  0.00  0.00    +0.000 A 
ATOM     15  C   UNL     1      89.880  66.317  86.433  0.00  0.00    +0.000 A 
ATOM     16  C   UNL     1      88.880  65.743  87.205  0.00  0.00    +0.000 A 
ATOM     17  C   UNL     1      87.608  66.302  87.192  0.00  0.00    +0.000 A 
ATOM     18  C   UNL     1      87.339  67.431  86.406  0.00  0.00    +0.000 A 
ENDBRANCH  11  13
ENDBRANCH   1  11
TORSDOF 4
ENDMDL
