REMARK  Name = *****
REMARK  5 active torsions:
REMARK  status: ('A' for Active; 'I' for Inactive)
REMARK    1  A    between atoms: C_1  and  N_2
REMARK    2  A    between atoms: N_2  and  C_3
REMARK    3  A    between atoms: N_2  and  C_4
REMARK    4  A    between atoms: C_8  and  C_10
REMARK    5  A    between atoms: C_11  and  C_12
REMARK                            x       y       z     vdW  Elec       q    Type
REMARK                         _______ _______ _______ _____ _____    ______ ____
ROOT
ATOM      1  C   UNL     1       3.098  -0.854  -0.743  0.00  0.00    +0.000 A 
ATOM      2  C   UNL     1       2.627  -1.268  -2.002  0.00  0.00    +0.000 A 
ATOM      3  C   UNL     1       3.302  -2.220  -2.775  0.00  0.00    +0.000 A 
ATOM      4  C   UNL     1       4.488  -2.781  -2.317  0.00  0.00    +0.000 A 
ATOM      5  C   UNL     1       5.017  -2.379  -1.091  0.00  0.00    +0.000 A 
ATOM      6  C   UNL     1       4.313  -1.431  -0.322  0.00  0.00    +0.000 A 
ENDROOT
BRANCH   1   8
ATOM      7  C   UNL     1       2.794   0.286   1.425  0.00  0.00    +0.000 C 
ATOM      8  N   UNL     1       2.422   0.105   0.024  0.00  0.00    +0.000 N 
ATOM      9  C   UNL     1       1.038   0.434  -0.311  0.00  0.00    +0.000 C 
ENDBRANCH   1   8
BRANCH   5  10
ATOM     10  C   UNL     1       6.255  -2.956  -0.547  0.00  0.00    +0.000 C 
ATOM     11  C   UNL     1       7.333  -3.253  -1.292  0.00  0.00    +0.000 C 
BRANCH  11  12
ATOM     12  C   UNL     1       8.577  -3.815  -0.748  0.00  0.00    +0.000 A 
ATOM     13  C   UNL     1       8.582  -4.772   0.276  0.00  0.00    +0.000 A 
ATOM     14  C   UNL     1       9.785  -5.306   0.745  0.00  0.00    +0.000 A 
ATOM     15  C   UNL     1      10.995  -4.897   0.188  0.00  0.00    +0.000 A 
ATOM     16  C   UNL     1      11.003  -3.959  -0.842  0.00  0.00    +0.000 A 
ATOM     17  C   UNL     1       9.800  -3.425  -1.311  0.00  0.00    +0.000 A 
ENDBRANCH  11  12
ENDBRANCH   5  10
TORSDOF 3
