MODEL 1
REMARK VINA RESULT:      -4.3      0.000      0.000
REMARK  Name = *****
REMARK  1 active torsions:
REMARK  status: ('A' for Active; 'I' for Inactive)
REMARK    1  A    between atoms: C_9  and  C_10
REMARK                            x       y       z     vdW  Elec       q    Type
REMARK                         _______ _______ _______ _____ _____    ______ ____
ROOT
ATOM      1  C   UNL     1      90.449  63.681  85.532  0.00  0.00    +0.000 A 
ATOM      2  C   UNL     1      91.413  64.612  85.133  0.00  0.00    +0.000 A 
ATOM      3  C   UNL     1      91.228  65.972  85.394  0.00  0.00    +0.000 A 
ATOM      4  C   UNL     1      90.075  66.390  86.055  0.00  0.00    +0.000 A 
ATOM      5  C   UNL     1      89.112  65.460  86.452  0.00  0.00    +0.000 A 
ATOM      6  C   UNL     1      89.294  64.103  86.193  0.00  0.00    +0.000 A 
ATOM      7  S   UNL     1      87.681  66.105  87.286  0.00  0.00    +0.000 S 
ATOM      8  C   UNL     1      88.203  67.776  87.202  0.00  0.00    +0.000 C 
ATOM      9  C   UNL     1      87.420  68.738  87.716  0.00  0.00    +0.000 C 
ATOM     10  S   UNL     1      89.738  68.094  86.435  0.00  0.00    +0.000 S 
ENDROOT
BRANCH   9  11
ATOM     11  C   UNL     1      87.673  70.220  87.748  0.00  0.00    +0.000 C 
ATOM     12  C   UNL     1      88.445  70.626  88.979  0.00  0.00    +0.000 C 
ATOM     13  C   UNL     1      87.717  71.481  89.718  0.00  0.00    +0.000 C 
ATOM     14  C   UNL     1      86.450  71.710  89.071  0.00  0.00    +0.000 C 
ATOM     15  C   UNL     1      86.394  70.998  87.936  0.00  0.00    +0.000 C 
ENDBRANCH   9  11
TORSDOF 1
ENDMDL
