REMARK  Name = *****
REMARK  6 active torsions:
REMARK  status: ('A' for Active; 'I' for Inactive)
REMARK    1  A    between atoms: C_1  and  C_2
REMARK    2  A    between atoms: C_2  and  O_3
REMARK    3  A    between atoms: O_3  and  C_4
REMARK    4  A    between atoms: C_6  and  C_16
REMARK    5  A    between atoms: C_7  and  C_8
REMARK    6  A    between atoms: C_9  and  C_10
REMARK                            x       y       z     vdW  Elec       q    Type
REMARK                         _______ _______ _______ _____ _____    ______ ____
ROOT
ATOM      1  C   UNL     1       4.327  -0.183   1.206  0.00  0.00    +0.000 C 
ATOM      2  C   UNL     1       5.075   0.846   0.323  0.00  0.00    +0.000 C 
ATOM      3  C   UNL     1       5.722  -0.342  -0.363  0.00  0.00    +0.000 C 
ATOM      4  C   UNL     1       5.033  -1.236   0.372  0.00  0.00    +0.000 C 
ATOM      5  C   UNL     1       6.738  -0.458  -1.477  0.00  0.00    +0.000 C 
ENDROOT
BRANCH   4   6
ATOM      6  C   UNL     1       5.021  -2.739   0.395  0.00  0.00    +0.000 C 
ATOM      7  C   UNL     1       5.008  -3.939   0.418  0.00  0.00    +0.000 C 
BRANCH   7   8
ATOM      8  C   UNL     1       4.990  -5.369   0.447  0.00  0.00    +0.000 A 
ATOM      9  C   UNL     1       3.932  -6.043   1.061  0.00  0.00    +0.000 A 
ATOM     10  C   UNL     1       3.915  -7.439   1.090  0.00  0.00    +0.000 A 
ATOM     11  C   UNL     1       4.955  -8.161   0.505  0.00  0.00    +0.000 A 
ATOM     12  C   UNL     1       6.012  -7.490  -0.110  0.00  0.00    +0.000 A 
ATOM     13  C   UNL     1       6.030  -6.094  -0.139  0.00  0.00    +0.000 A 
ENDBRANCH   7   8
ENDBRANCH   4   6
BRANCH   1  14
ATOM     14  O   UNL     1       2.884  -0.155   1.097  0.00  0.00    +0.000 OA
BRANCH  14  16
ATOM     15  C   UNL     1       0.691  -0.839   1.741  0.00  0.00    +0.000 C 
ATOM     16  C   UNL     1       2.177  -1.085   1.910  0.00  0.00    +0.000 C 
ENDBRANCH  14  16
ENDBRANCH   1  14
TORSDOF 4
