MODEL 1
REMARK VINA RESULT:      -5.1      0.000      0.000
REMARK  Name = *****
REMARK  2 active torsions:
REMARK  status: ('A' for Active; 'I' for Inactive)
REMARK    1  A    between atoms: C_3  and  C_9
REMARK    2  A    between atoms: N_10  and  C_11
REMARK                            x       y       z     vdW  Elec       q    Type
REMARK                         _______ _______ _______ _____ _____    ______ ____
ROOT
ATOM      1  C   UNL     1     101.927 126.100  82.277  0.00  0.00    +0.000 C 
ATOM      2  N   UNL     1     102.964 126.388  81.553  0.00  0.00    +0.000 NA
ENDROOT
BRANCH   1   5
ATOM      3  C   UNL     1     100.544 129.254  83.833  0.00  0.00    +0.000 A 
ATOM      4  C   UNL     1     101.452 128.278  83.411  0.00  0.00    +0.000 A 
ATOM      5  C   UNL     1     100.993 127.143  82.734  0.00  0.00    +0.000 A 
ATOM      6  C   UNL     1      99.635 126.984  82.481  0.00  0.00    +0.000 A 
ATOM      7  C   UNL     1      98.737 127.958  82.903  0.00  0.00    +0.000 A 
ATOM      8  C   UNL     1      99.181 129.091  83.578  0.00  0.00    +0.000 A 
ATOM      9  F   UNL     1      97.426 127.811  82.664  0.00  0.00    +0.000 F 
ATOM     10  F   UNL     1      99.181 125.900  81.834  0.00  0.00    +0.000 F 
ENDBRANCH   1   5
BRANCH   2  11
ATOM     11  C   UNL     1     103.775 125.309  81.181  0.00  0.00    +0.000 A 
ATOM     12  C   UNL     1     104.463 125.339  79.966  0.00  0.00    +0.000 A 
ATOM     13  C   UNL     1     105.286 124.274  79.614  0.00  0.00    +0.000 A 
ATOM     14  C   UNL     1     105.436 123.186  80.465  0.00  0.00    +0.000 A 
ATOM     15  C   UNL     1     104.769 123.150  81.685  0.00  0.00    +0.000 A 
ATOM     16  C   UNL     1     103.941 124.217  82.043  0.00  0.00    +0.000 A 
ATOM     17  F   UNL     1     106.230 122.163  80.121  0.00  0.00    +0.000 F 
ATOM     18  F   UNL     1     105.937 124.308  78.443  0.00  0.00    +0.000 F 
ENDBRANCH   2  11
TORSDOF 2
ENDMDL
