MODEL 1
REMARK VINA RESULT:      -5.3      0.000      0.000
REMARK  Name = *****
REMARK  1 active torsions:
REMARK  status: ('A' for Active; 'I' for Inactive)
REMARK    1  A    between atoms: C_4  and  C_7
REMARK                            x       y       z     vdW  Elec       q    Type
REMARK                         _______ _______ _______ _____ _____    ______ ____
ROOT
ATOM      1  C   UNL     1     102.381 125.877  82.108  0.00  0.00    +0.000 C 
ATOM      2  C   UNL     1     103.089 125.117  82.957  0.00  0.00    +0.000 C 
ATOM      3  C   UNL     1     103.964 124.116  82.351  0.00  0.00    +0.000 A 
ATOM      4  C   UNL     1     104.620 123.153  83.122  0.00  0.00    +0.000 A 
ATOM      5  C   UNL     1     105.465 122.224  82.508  0.00  0.00    +0.000 A 
ATOM      6  C   UNL     1     105.664 122.260  81.126  0.00  0.00    +0.000 A 
ATOM      7  C   UNL     1     105.018 123.224  80.352  0.00  0.00    +0.000 A 
ATOM      8  C   UNL     1     104.165 124.144  80.963  0.00  0.00    +0.000 A 
ATOM      9  O   UNL     1     103.589 125.102  80.153  0.00  0.00    +0.000 OA
ATOM     10  N   UNL     1     102.456 125.700  80.735  0.00  0.00    +0.000 N 
ATOM     11  H   UNL     1     101.711 125.994  80.163  0.00  0.00    +0.000 HD
ENDROOT
BRANCH   1  15
ATOM     12  C   UNL     1      99.662 128.855  83.545  0.00  0.00    +0.000 A 
ATOM     13  C   UNL     1     101.033 129.013  83.742  0.00  0.00    +0.000 A 
ATOM     14  C   UNL     1     101.923 128.042  83.279  0.00  0.00    +0.000 A 
ATOM     15  C   UNL     1     101.450 126.901  82.615  0.00  0.00    +0.000 A 
ATOM     16  C   UNL     1     100.069 126.756  82.418  0.00  0.00    +0.000 A 
ATOM     17  C   UNL     1      99.180 127.728  82.883  0.00  0.00    +0.000 A 
ENDBRANCH   1  15
TORSDOF 1
ENDMDL
