REMARK  Name = *****
REMARK  4 active torsions:
REMARK  status: ('A' for Active; 'I' for Inactive)
REMARK    1  A    between atoms: C_1  and  N_2
REMARK    2  A    between atoms: N_2  and  C_3
REMARK    3  A    between atoms: C_7  and  C_10
REMARK    4  A    between atoms: C_11  and  C_12
REMARK                            x       y       z     vdW  Elec       q    Type
REMARK                         _______ _______ _______ _____ _____    ______ ____
ROOT
ATOM      1  C   UNL     1       5.146   1.512   4.650  0.00  0.00    +0.000 C 
ATOM      2  C   UNL     1       4.712   1.392   5.915  0.00  0.00    +0.000 C 
ENDROOT
BRANCH   1   9
ATOM      3  C   UNL     1       1.108  -0.505   0.125  0.00  0.00    +0.000 C 
ATOM      4  N   UNL     1       2.558  -0.386  -0.023  0.00  0.00    +0.000 N 
ATOM      5  C   UNL     1       2.976   0.346  -1.220  0.00  0.00    +0.000 C 
ATOM      6  C   UNL     1       3.184   0.088   1.150  0.00  0.00    +0.000 A 
ATOM      7  N   UNL     1       3.903   1.230   1.118  0.00  0.00    +0.000 NA
ATOM      8  C   UNL     1       4.499   1.649   2.263  0.00  0.00    +0.000 A 
ATOM      9  C   UNL     1       4.428   0.988   3.483  0.00  0.00    +0.000 A 
ATOM     10  C   UNL     1       3.712  -0.205   3.497  0.00  0.00    +0.000 A 
ATOM     11  C   UNL     1       3.088  -0.653   2.330  0.00  0.00    +0.000 A 
ENDBRANCH   1   9
BRANCH   2  12
ATOM     12  C   UNL     1       5.449   1.917   7.080  0.00  0.00    +0.000 A 
ATOM     13  C   UNL     1       5.932   3.235   7.093  0.00  0.00    +0.000 A 
ATOM     14  C   UNL     1       6.607   3.761   8.195  0.00  0.00    +0.000 A 
ATOM     15  C   UNL     1       6.810   2.975   9.324  0.00  0.00    +0.000 A 
ATOM     16  C   UNL     1       6.332   1.665   9.344  0.00  0.00    +0.000 A 
ATOM     17  C   UNL     1       5.653   1.141   8.235  0.00  0.00    +0.000 A 
ATOM     18 CL   UNL     1       5.102  -0.498   8.349  0.00  0.00    +0.000 Cl
ATOM     19  F   UNL     1       5.745   4.039   6.034  0.00  0.00    +0.000 F 
ENDBRANCH   2  12
TORSDOF 2
