MODEL 1
REMARK VINA RESULT:      -3.7      0.000      0.000
REMARK  Name = *****
REMARK  3 active torsions:
REMARK  status: ('A' for Active; 'I' for Inactive)
REMARK    1  A    between atoms: C_4  and  C_7
REMARK    2  A    between atoms: C_7  and  S_8
REMARK    3  A    between atoms: S_8  and  C_9
REMARK                            x       y       z     vdW  Elec       q    Type
REMARK                         _______ _______ _______ _____ _____    ______ ____
ROOT
ATOM      1  C   UNL     1      85.336  71.915  84.742  0.00  0.00    +0.000 C 
ENDROOT
BRANCH   1   5
ATOM      2  C   UNL     1      85.468  71.842  89.079  0.00  0.00    +0.000 A 
ATOM      3  C   UNL     1      86.537  71.314  88.363  0.00  0.00    +0.000 A 
ATOM      4  C   UNL     1      86.523  71.322  86.964  0.00  0.00    +0.000 A 
ATOM      5  C   UNL     1      85.437  71.860  86.256  0.00  0.00    +0.000 A 
ATOM      6  C   UNL     1      84.364  72.388  87.000  0.00  0.00    +0.000 A 
ATOM      7  C   UNL     1      84.379  72.379  88.397  0.00  0.00    +0.000 A 
ENDBRANCH   1   5
BRANCH   1   8
ATOM      8  S   UNL     1      86.638  71.068  83.810  0.00  0.00    +0.000 S 
BRANCH   8   9
ATOM      9  C   UNL     1      87.872  72.295  83.522  0.00  0.00    +0.000 A 
ATOM     10  C   UNL     1      89.128  72.348  84.119  0.00  0.00    +0.000 A 
ATOM     11  N   UNL     1      89.931  73.411  83.733  0.00  0.00    +0.000 NA
ATOM     12  C   UNL     1      89.288  74.147  82.859  0.00  0.00    +0.000 A 
ATOM     13  S   UNL     1      87.713  73.626  82.447  0.00  0.00    +0.000 S 
ATOM     14 CL   UNL     1      89.745  71.226  85.265  0.00  0.00    +0.000 Cl
ENDBRANCH   8   9
ENDBRANCH   1   8
TORSDOF 3
ENDMDL
