MODEL 1
REMARK VINA RESULT:      -3.9      0.000      0.000
REMARK  Name = *****
REMARK  5 active torsions:
REMARK  status: ('A' for Active; 'I' for Inactive)
REMARK    1  A    between atoms: C_1  and  C_2
REMARK    2  A    between atoms: C_2  and  C_14
REMARK    3  A    between atoms: C_4  and  C_6
REMARK    4  A    between atoms: C_6  and  C_7
REMARK    5  A    between atoms: C_7  and  C_8
REMARK                            x       y       z     vdW  Elec       q    Type
REMARK                         _______ _______ _______ _____ _____    ______ ____
ROOT
ATOM      1  C   UNL     1      87.676  68.936  87.582  0.00  0.00    +0.000 C 
ENDROOT
BRANCH   1   5
ATOM      2  C   UNL     1      84.576  72.409  87.392  0.00  0.00    +0.000 C 
ATOM      3  C   UNL     1      85.669  71.382  87.115  0.00  0.00    +0.000 C 
ATOM      4  C   UNL     1      85.277  69.928  87.502  0.00  0.00    +0.000 C 
ATOM      5  C   UNL     1      86.607  69.779  88.277  0.00  0.00    +0.000 C 
ATOM      6  C   UNL     1      86.765  71.319  88.217  0.00  0.00    +0.000 C 
BRANCH   3   7
ATOM      7  C   UNL     1      86.187  71.526  85.761  0.00  0.00    +0.000 C 
ATOM      8  C   UNL     1      86.612  71.646  84.644  0.00  0.00    +0.000 C 
ENDBRANCH   3   7
ENDBRANCH   1   5
BRANCH   1   9
ATOM      9  C   UNL     1      88.995  69.710  87.493  0.00  0.00    +0.000 C 
BRANCH   9  10
ATOM     10  C   UNL     1      89.483  69.818  86.071  0.00  0.00    +0.000 A 
ATOM     11  C   UNL     1      90.033  71.018  85.599  0.00  0.00    +0.000 A 
ATOM     12  C   UNL     1      90.469  71.125  84.278  0.00  0.00    +0.000 A 
ATOM     13  C   UNL     1      90.354  70.036  83.415  0.00  0.00    +0.000 A 
ATOM     14  C   UNL     1      89.802  68.841  83.872  0.00  0.00    +0.000 A 
ATOM     15  C   UNL     1      89.365  68.733  85.193  0.00  0.00    +0.000 A 
ENDBRANCH   9  10
ENDBRANCH   1   9
TORSDOF 4
ENDMDL
