MODEL 1
REMARK VINA RESULT:      -4.3      0.000      0.000
REMARK  Name = *****
REMARK  3 active torsions:
REMARK  status: ('A' for Active; 'I' for Inactive)
REMARK    1  A    between atoms: C_5  and  O_7
REMARK    2  A    between atoms: O_7  and  C_8
REMARK    3  A    between atoms: C_8  and  C_10
REMARK                            x       y       z     vdW  Elec       q    Type
REMARK                         _______ _______ _______ _____ _____    ______ ____
ROOT
ATOM      1  C   UNL     1      88.583  70.470  86.031  0.00  0.00    +0.000 C 
ATOM      2  O   UNL     1      89.615  71.093  85.857  0.00  0.00    +0.000 OA
ENDROOT
BRANCH   1   3
ATOM      3  C   UNL     1      87.366  71.018  86.659  0.00  0.00    +0.000 A 
ATOM      4  C   UNL     1      86.355  71.537  85.834  0.00  0.00    +0.000 A 
ATOM      5  C   UNL     1      85.179  72.036  86.395  0.00  0.00    +0.000 A 
ATOM      6  C   UNL     1      85.007  72.018  87.779  0.00  0.00    +0.000 A 
ATOM      7  C   UNL     1      86.012  71.505  88.602  0.00  0.00    +0.000 A 
ATOM      8  C   UNL     1      87.194  71.003  88.047  0.00  0.00    +0.000 A 
ATOM      9 CL   UNL     1      88.407  70.437  89.138  0.00  0.00    +0.000 Cl
ENDBRANCH   1   3
BRANCH   1  10
ATOM     10  O   UNL     1      88.342  69.179  85.694  0.00  0.00    +0.000 OA
BRANCH  10  15
ATOM     11  C   UNL     1      90.558  66.144  85.821  0.00  0.00    +0.000 C 
ATOM     12  C   UNL     1      89.445  65.227  86.332  0.00  0.00    +0.000 C 
ATOM     13  C   UNL     1      88.392  65.959  87.112  0.00  0.00    +0.000 C 
ATOM     14  C   UNL     1      88.287  67.297  87.122  0.00  0.00    +0.000 C 
ATOM     15  C   UNL     1      89.189  68.210  86.333  0.00  0.00    +0.000 C 
ATOM     16  C   UNL     1      89.991  67.447  85.266  0.00  0.00    +0.000 C 
ENDBRANCH  10  15
ENDBRANCH   1  10
TORSDOF 3
ENDMDL
