MODEL 1
REMARK VINA RESULT:      -4.4      0.000      0.000
REMARK  Name = *****
REMARK  5 active torsions:
REMARK  status: ('A' for Active; 'I' for Inactive)
REMARK    1  A    between atoms: C_1  and  C_2
REMARK    2  A    between atoms: C_4  and  C_10
REMARK    3  A    between atoms: C_5  and  C_8
REMARK    4  A    between atoms: C_10  and  C_11
REMARK    5  A    between atoms: C_11  and  C_12
REMARK                            x       y       z     vdW  Elec       q    Type
REMARK                         _______ _______ _______ _____ _____    ______ ____
ROOT
ATOM      1  C   UNL     1     102.632 131.190  85.200  0.00  0.00    +0.000 C 
ATOM      2  C   UNL     1     101.620 130.280  84.569  0.00  0.00    +0.000 A 
ATOM      3  C   UNL     1     102.019 129.056  84.014  0.00  0.00    +0.000 A 
ATOM      4  C   UNL     1     101.090 128.204  83.387  0.00  0.00    +0.000 A 
ATOM      5  C   UNL     1      99.740 128.598  83.325  0.00  0.00    +0.000 A 
ATOM      6  C   UNL     1      99.346 129.828  83.866  0.00  0.00    +0.000 A 
ATOM      7  C   UNL     1     100.281 130.666  84.478  0.00  0.00    +0.000 A 
ENDROOT
BRANCH   5   8
ATOM      8  C   UNL     1      98.739 127.765  82.718  0.00  0.00    +0.000 C 
ATOM      9  N   UNL     1      97.934 127.083  82.234  0.00  0.00    +0.000 NA
ENDBRANCH   5   8
BRANCH   4  10
ATOM     10  C   UNL     1     101.577 126.882  82.829  0.00  0.00    +0.000 C 
BRANCH  10  11
ATOM     11  C   UNL     1     102.709 127.073  81.812  0.00  0.00    +0.000 C 
BRANCH  11  12
ATOM     12  C   UNL     1     103.411 125.778  81.528  0.00  0.00    +0.000 A 
ATOM     13  C   UNL     1     103.826 125.286  80.307  0.00  0.00    +0.000 A 
ATOM     14  C   UNL     1     104.464 124.018  80.424  0.00  0.00    +0.000 A 
ATOM     15  C   UNL     1     104.514 123.584  81.730  0.00  0.00    +0.000 A 
ATOM     16  S   UNL     1     103.795 124.702  82.805  0.00  0.00    +0.000 S 
ENDBRANCH  11  12
ENDBRANCH  10  11
ENDBRANCH   4  10
TORSDOF 4
ENDMDL
