MODEL 1
REMARK VINA RESULT:      -5.3      0.000      0.000
REMARK  Name = *****
REMARK  4 active torsions:
REMARK  status: ('A' for Active; 'I' for Inactive)
REMARK    1  A    between atoms: C_1  and  C_2
REMARK    2  A    between atoms: C_4  and  C_18
REMARK    3  A    between atoms: C_5  and  C_8
REMARK    4  A    between atoms: C_15  and  C_17
REMARK                            x       y       z     vdW  Elec       q    Type
REMARK                         _______ _______ _______ _____ _____    ______ ____
ROOT
ATOM      1  C   UNL     1     102.485 126.177  82.470  0.00  0.00    +0.000 A 
ATOM      2  N   UNL     1     102.722 127.341  83.052  0.00  0.00    +0.000 NA
ATOM      3  C   UNL     1     101.484 127.919  83.167  0.00  0.00    +0.000 A 
ATOM      4  C   UNL     1     100.523 127.074  82.645  0.00  0.00    +0.000 A 
ATOM      5  O   UNL     1     101.154 125.953  82.195  0.00  0.00    +0.000 OA
ATOM      6  C   UNL     1      99.164 127.352  82.602  0.00  0.00    +0.000 A 
ATOM      7  C   UNL     1      98.779 128.589  83.135  0.00  0.00    +0.000 A 
ATOM      8  C   UNL     1      99.717 129.486  83.678  0.00  0.00    +0.000 A 
ATOM      9  C   UNL     1     101.086 129.153  83.698  0.00  0.00    +0.000 A 
ATOM     10  C   UNL     1      99.276 130.808  84.239  0.00  0.00    +0.000 C 
ENDROOT
BRANCH   1  15
ATOM     11  C   UNL     1     106.177 122.026  80.769  0.00  0.00    +0.000 C 
ATOM     12  C   UNL     1     105.223 123.089  81.227  0.00  0.00    +0.000 A 
ATOM     13  C   UNL     1     104.891 123.228  82.579  0.00  0.00    +0.000 A 
ATOM     14  C   UNL     1     103.994 124.225  83.018  0.00  0.00    +0.000 A 
ATOM     15  C   UNL     1     103.417 125.110  82.078  0.00  0.00    +0.000 A 
ATOM     16  C   UNL     1     103.762 124.952  80.721  0.00  0.00    +0.000 A 
ATOM     17  C   UNL     1     104.650 123.958  80.300  0.00  0.00    +0.000 A 
ATOM     18  C   UNL     1     103.693 124.302  84.493  0.00  0.00    +0.000 C 
ENDBRANCH   1  15
TORSDOF 1
ENDMDL
