REMARK  Name = *****
REMARK  6 active torsions:
REMARK  status: ('A' for Active; 'I' for Inactive)
REMARK    1  A    between atoms: C_1  and  C_2
REMARK    2  A    between atoms: C_5  and  C_8
REMARK    3  A    between atoms: C_8  and  O_10
REMARK    4  A    between atoms: O_10  and  C_11
REMARK    5  A    between atoms: C_12  and  C_18
REMARK    6  A    between atoms: C_16  and  C_17
REMARK                            x       y       z     vdW  Elec       q    Type
REMARK                         _______ _______ _______ _____ _____    ______ ____
ROOT
ATOM      1  C   UNL     1      -3.754   2.382  -0.952  0.00  0.00    +0.000 C 
ATOM      2  O   UNL     1      -4.035   3.354  -0.267  0.00  0.00    +0.000 OA
ENDROOT
BRANCH   1   7
ATOM      3  C   UNL     1       1.297   2.054  -3.792  0.00  0.00    +0.000 C 
ATOM      4  C   UNL     1       0.002   2.114  -3.037  0.00  0.00    +0.000 A 
ATOM      5  C   UNL     1      -0.883   1.029  -3.063  0.00  0.00    +0.000 A 
ATOM      6  C   UNL     1      -2.107   1.093  -2.389  0.00  0.00    +0.000 A 
ATOM      7  C   UNL     1      -2.465   2.252  -1.688  0.00  0.00    +0.000 A 
ATOM      8  C   UNL     1      -1.585   3.342  -1.672  0.00  0.00    +0.000 A 
ATOM      9  C   UNL     1      -0.364   3.276  -2.347  0.00  0.00    +0.000 A 
ENDBRANCH   1   7
BRANCH   1  10
ATOM     10  O   UNL     1      -4.535   1.266  -1.187  0.00  0.00    +0.000 OA
BRANCH  10  11
ATOM     11  C   UNL     1      -5.778   1.304  -0.540  0.00  0.00    +0.000 A 
ATOM     12  C   UNL     1      -6.877   1.874  -1.203  0.00  0.00    +0.000 A 
ATOM     13  C   UNL     1      -8.114   1.883  -0.549  0.00  0.00    +0.000 A 
ATOM     14  C   UNL     1      -8.252   1.307   0.715  0.00  0.00    +0.000 A 
ATOM     15  C   UNL     1      -7.155   0.714   1.344  0.00  0.00    +0.000 A 
ATOM     16  C   UNL     1      -5.904   0.692   0.717  0.00  0.00    +0.000 A 
ATOM     17  C   UNL     1      -4.726   0.068   1.406  0.00  0.00    +0.000 C 
ATOM     18  C   UNL     1      -6.735   2.512  -2.553  0.00  0.00    +0.000 C 
ENDBRANCH  10  11
ENDBRANCH   1  10
TORSDOF 3
