REMARK  Name = *****
REMARK  2 active torsions:
REMARK  status: ('A' for Active; 'I' for Inactive)
REMARK    1  A    between atoms: C_5  and  C_7
REMARK    2  A    between atoms: C_8  and  C_9
REMARK                            x       y       z     vdW  Elec       q    Type
REMARK                         _______ _______ _______ _____ _____    ______ ____
ROOT
ATOM      1  C   UNL     1       2.932   0.166  -0.321  0.00  0.00    +0.000 C 
ATOM      2  C   UNL     1       4.123   0.238  -0.456  0.00  0.00    +0.000 C 
ENDROOT
BRANCH   1   7
ATOM      3  C   UNL     1      -0.501  -1.240   0.068  0.00  0.00    +0.000 A 
ATOM      4  C   UNL     1      -1.267  -0.075   0.141  0.00  0.00    +0.000 A 
ATOM      5  C   UNL     1      -0.645   1.171   0.062  0.00  0.00    +0.000 A 
ATOM      6  C   UNL     1       0.737   1.245  -0.089  0.00  0.00    +0.000 A 
ATOM      7  C   UNL     1       1.512   0.087  -0.163  0.00  0.00    +0.000 A 
ATOM      8  C   UNL     1       0.887  -1.161  -0.084  0.00  0.00    +0.000 A 
ATOM      9  F   UNL     1       1.312   2.456  -0.163  0.00  0.00    +0.000 F 
ENDBRANCH   1   7
BRANCH   2  10
ATOM     10  C   UNL     1       5.540   0.336  -0.620  0.00  0.00    +0.000 A 
ATOM     11  C   UNL     1       6.149   1.594  -0.687  0.00  0.00    +0.000 A 
ATOM     12  C   UNL     1       7.533   1.691  -0.849  0.00  0.00    +0.000 A 
ATOM     13  C   UNL     1       8.294   0.531  -0.943  0.00  0.00    +0.000 A 
ATOM     14  C   UNL     1       7.700  -0.725  -0.878  0.00  0.00    +0.000 A 
ATOM     15  C   UNL     1       6.316  -0.824  -0.715  0.00  0.00    +0.000 A 
ATOM     16  F   UNL     1       9.621   0.624  -1.099  0.00  0.00    +0.000 F 
ENDBRANCH   2  10
TORSDOF 2
