MODEL 1
REMARK VINA RESULT:      -5.1      0.000      0.000
REMARK  Name = *****
REMARK  4 active torsions:
REMARK  status: ('A' for Active; 'I' for Inactive)
REMARK    1  A    between atoms: C_1  and  C_2
REMARK    2  A    between atoms: C_4  and  C_8
REMARK    3  A    between atoms: C_9  and  C_10
REMARK    4  A    between atoms: C_9  and  C_12
REMARK                            x       y       z     vdW  Elec       q    Type
REMARK                         _______ _______ _______ _____ _____    ______ ____
ROOT
ATOM      1  C   UNL     1     102.831 126.464  81.252  0.00  0.00    +0.000 C 
ATOM      2  C   UNL     1     102.272 126.374  82.476  0.00  0.00    +0.000 C 
ENDROOT
BRANCH   1   6
ATOM      3  C   UNL     1     105.017 122.047  80.468  0.00  0.00    +0.000 C 
ATOM      4  C   UNL     1     105.040 123.542  80.362  0.00  0.00    +0.000 A 
ATOM      5  C   UNL     1     103.962 124.304  80.834  0.00  0.00    +0.000 A 
ATOM      6  C   UNL     1     103.993 125.704  80.777  0.00  0.00    +0.000 A 
ATOM      7  C   UNL     1     105.111 126.341  80.231  0.00  0.00    +0.000 A 
ATOM      8  C   UNL     1     106.195 125.591  79.774  0.00  0.00    +0.000 A 
ATOM      9  C   UNL     1     106.163 124.199  79.846  0.00  0.00    +0.000 A 
ENDBRANCH   1   6
BRANCH   2  10
ATOM     10  C   UNL     1     101.103 127.225  82.771  0.00  0.00    +0.000 A 
ATOM     11  C   UNL     1      99.826 126.761  82.415  0.00  0.00    +0.000 A 
ATOM     12  C   UNL     1      98.692 127.535  82.671  0.00  0.00    +0.000 A 
ATOM     13  C   UNL     1      98.820 128.780  83.285  0.00  0.00    +0.000 A 
ATOM     14  C   UNL     1     100.083 129.253  83.642  0.00  0.00    +0.000 A 
ATOM     15  C   UNL     1     101.221 128.482  83.388  0.00  0.00    +0.000 A 
ATOM     16 CL   UNL     1     102.756 129.129  83.854  0.00  0.00    +0.000 Cl
ENDBRANCH   2  10
BRANCH   2  17
ATOM     17  C   UNL     1     102.736 125.484  83.493  0.00  0.00    +0.000 C 
ATOM     18  N   UNL     1     103.090 124.759  84.328  0.00  0.00    +0.000 NA
ENDBRANCH   2  17
TORSDOF 3
ENDMDL
