REMARK  Name = *****
REMARK  5 active torsions:
REMARK  status: ('A' for Active; 'I' for Inactive)
REMARK    1  A    between atoms: C_1  and  C_2
REMARK    2  A    between atoms: C_5  and  O_8
REMARK    3  A    between atoms: O_8  and  C_9
REMARK    4  A    between atoms: C_9  and  C_10
REMARK    5  A    between atoms: C_9  and  C_11
REMARK                            x       y       z     vdW  Elec       q    Type
REMARK                         _______ _______ _______ _____ _____    ______ ____
ROOT
ATOM      1  O   UNL     1      -2.434   0.392  -0.351  0.00  0.00    +0.000 OA
ENDROOT
BRANCH   1   6
ATOM      2  C   UNL     1       1.525  -1.022   3.465  0.00  0.00    +0.000 C 
ATOM      3  C   UNL     1       0.483  -0.608   2.470  0.00  0.00    +0.000 A 
ATOM      4  C   UNL     1      -0.341   0.495   2.718  0.00  0.00    +0.000 A 
ATOM      5  C   UNL     1      -1.332   0.869   1.802  0.00  0.00    +0.000 A 
ATOM      6  C   UNL     1      -1.520   0.134   0.633  0.00  0.00    +0.000 A 
ATOM      7  C   UNL     1      -0.705  -0.973   0.389  0.00  0.00    +0.000 A 
ATOM      8  C   UNL     1       0.285  -1.348   1.301  0.00  0.00    +0.000 A 
ENDBRANCH   1   6
BRANCH   1   9
ATOM      9  C   UNL     1      -3.425   1.407  -0.132  0.00  0.00    +0.000 C 
ATOM     10  C   UNL     1      -4.588   1.091  -1.075  0.00  0.00    +0.000 C 
BRANCH   9  11
ATOM     11  C   UNL     1      -2.904   2.806  -0.418  0.00  0.00    +0.000 A 
ATOM     12  C   UNL     1      -1.927   3.037  -1.399  0.00  0.00    +0.000 A 
ATOM     13  C   UNL     1      -1.466   4.329  -1.654  0.00  0.00    +0.000 A 
ATOM     14  C   UNL     1      -1.982   5.408  -0.938  0.00  0.00    +0.000 A 
ATOM     15  C   UNL     1      -2.960   5.196   0.031  0.00  0.00    +0.000 A 
ATOM     16  C   UNL     1      -3.421   3.903   0.288  0.00  0.00    +0.000 A 
ENDBRANCH   9  11
ENDBRANCH   1   9
TORSDOF 3
