REMARK  Name = *****
REMARK  3 active torsions:
REMARK  status: ('A' for Active; 'I' for Inactive)
REMARK    1  A    between atoms: C_4  and  C_7
REMARK    2  A    between atoms: C_7  and  C_8
REMARK    3  A    between atoms: C_8  and  C_9
REMARK                            x       y       z     vdW  Elec       q    Type
REMARK                         _______ _______ _______ _____ _____    ______ ____
ROOT
ATOM      1  C   UNL     1      -2.817   0.401  -0.260  0.00  0.00    +0.000 C 
ATOM      2  F   UNL     1      -3.470  -0.785  -0.482  0.00  0.00    +0.000 F 
ENDROOT
BRANCH   1   6
ATOM      3  C   UNL     1       1.420  -0.259   0.305  0.00  0.00    +0.000 A 
ATOM      4  C   UNL     1       0.845   0.947   0.701  0.00  0.00    +0.000 A 
ATOM      5  C   UNL     1      -0.523   1.161   0.522  0.00  0.00    +0.000 A 
ATOM      6  C   UNL     1      -1.330   0.172  -0.059  0.00  0.00    +0.000 A 
ATOM      7  C   UNL     1      -0.738  -1.038  -0.451  0.00  0.00    +0.000 A 
ATOM      8  C   UNL     1       0.629  -1.251  -0.270  0.00  0.00    +0.000 A 
ENDBRANCH   1   6
BRANCH   1   9
ATOM      9  C   UNL     1      -3.109   1.359  -1.434  0.00  0.00    +0.000 C 
ATOM     10  F   UNL     1      -2.458   2.545  -1.212  0.00  0.00    +0.000 F 
BRANCH   9  11
ATOM     11  C   UNL     1      -4.596   1.586  -1.636  0.00  0.00    +0.000 A 
ATOM     12  C   UNL     1      -5.191   2.791  -1.234  0.00  0.00    +0.000 A 
ATOM     13  C   UNL     1      -6.559   3.002  -1.415  0.00  0.00    +0.000 A 
ATOM     14  C   UNL     1      -7.347   2.013  -1.999  0.00  0.00    +0.000 A 
ATOM     15  C   UNL     1      -6.768   0.812  -2.404  0.00  0.00    +0.000 A 
ATOM     16  C   UNL     1      -5.400   0.599  -2.225  0.00  0.00    +0.000 A 
ENDBRANCH   9  11
ENDBRANCH   1   9
TORSDOF 3
