MODEL 1
REMARK VINA RESULT:      -4.8      0.000      0.000
REMARK  Name = *****
REMARK  3 active torsions:
REMARK  status: ('A' for Active; 'I' for Inactive)
REMARK    1  A    between atoms: C_4  and  C_7
REMARK    2  A    between atoms: C_8  and  C_9
REMARK    3  A    between atoms: C_12  and  C_15
REMARK                            x       y       z     vdW  Elec       q    Type
REMARK                         _______ _______ _______ _____ _____    ______ ____
ROOT
ATOM      1  C   UNL     1     101.956 125.941  82.563  0.00  0.00    +0.000 C 
ATOM      2  C   UNL     1     102.752 125.894  81.482  0.00  0.00    +0.000 C 
ENDROOT
BRANCH   1   6
ATOM      3  C   UNL     1      99.051 128.990  83.312  0.00  0.00    +0.000 A 
ATOM      4  C   UNL     1      98.658 127.807  82.690  0.00  0.00    +0.000 A 
ATOM      5  C   UNL     1      99.598 126.805  82.433  0.00  0.00    +0.000 A 
ATOM      6  C   UNL     1     100.942 126.982  82.785  0.00  0.00    +0.000 A 
ATOM      7  C   UNL     1     101.321 128.170  83.425  0.00  0.00    +0.000 A 
ATOM      8  C   UNL     1     100.381 129.171  83.681  0.00  0.00    +0.000 A 
ENDBRANCH   1   6
BRANCH   2   9
ATOM      9  C   UNL     1     103.778 124.864  81.267  0.00  0.00    +0.000 A 
ATOM     10  C   UNL     1     104.493 124.761  80.067  0.00  0.00    +0.000 A 
ATOM     11  C   UNL     1     105.486 123.787  79.911  0.00  0.00    +0.000 A 
ATOM     12  C   UNL     1     105.782 122.912  80.960  0.00  0.00    +0.000 A 
ATOM     13  C   UNL     1     105.085 123.019  82.166  0.00  0.00    +0.000 A 
ATOM     14  C   UNL     1     104.094 123.994  82.319  0.00  0.00    +0.000 A 
BRANCH  12  15
ATOM     15  C   UNL     1     106.800 121.915  80.801  0.00  0.00    +0.000 C 
ATOM     16  N   UNL     1     107.623 121.108  80.673  0.00  0.00    +0.000 NA
ENDBRANCH  12  15
ENDBRANCH   2   9
TORSDOF 3
ENDMDL
