REMARK  Name = *****
REMARK  4 active torsions:
REMARK  status: ('A' for Active; 'I' for Inactive)
REMARK    1  A    between atoms: C_1  and  C_2
REMARK    2  A    between atoms: C_5  and  C_7
REMARK    3  A    between atoms: N_8  and  C_9
REMARK    4  A    between atoms: C_12  and  C_15
REMARK                            x       y       z     vdW  Elec       q    Type
REMARK                         _______ _______ _______ _____ _____    ______ ____
ROOT
ATOM      1  C   UNL     1      -5.318   0.451  -0.307  0.00  0.00    +0.000 A 
ATOM      2  C   UNL     1      -5.775   1.371  -1.252  0.00  0.00    +0.000 A 
ATOM      3  C   UNL     1      -7.040   1.952  -1.121  0.00  0.00    +0.000 A 
ATOM      4  C   UNL     1      -7.870   1.615  -0.041  0.00  0.00    +0.000 A 
ATOM      5  C   UNL     1      -7.415   0.670   0.892  0.00  0.00    +0.000 A 
ATOM      6  C   UNL     1      -6.149   0.093   0.756  0.00  0.00    +0.000 A 
ENDROOT
BRANCH   4   7
ATOM      7  C   UNL     1      -9.246   2.222   0.086  0.00  0.00    +0.000 C 
ATOM      8  F   UNL     1      -9.307   3.503  -0.376  0.00  0.00    +0.000 F 
ATOM      9  F   UNL     1     -10.186   1.528  -0.611  0.00  0.00    +0.000 F 
ATOM     10  F   UNL     1      -9.693   2.272   1.372  0.00  0.00    +0.000 F 
ENDBRANCH   4   7
BRANCH   1  12
ATOM     11  C   UNL     1      -3.068   0.501   0.090  0.00  0.00    +0.000 C 
ATOM     12  N   UNL     1      -4.057  -0.143  -0.447  0.00  0.00    +0.000 NA
BRANCH  11  17
ATOM     13  C   UNL     1       2.153  -0.096   0.575  0.00  0.00    +0.000 C 
ATOM     14  C   UNL     1       0.717  -0.295   0.234  0.00  0.00    +0.000 A 
ATOM     15  C   UNL     1       0.135  -1.337  -0.458  0.00  0.00    +0.000 A 
ATOM     16  C   UNL     1      -1.275  -1.175  -0.589  0.00  0.00    +0.000 A 
ATOM     17  C   UNL     1      -1.724  -0.015   0.008  0.00  0.00    +0.000 A 
ATOM     18  S   UNL     1      -0.445   0.865   0.718  0.00  0.00    +0.000 S 
ENDBRANCH  11  17
ENDBRANCH   1  12
TORSDOF 3
