REMARK  Name = *****
REMARK  4 active torsions:
REMARK  status: ('A' for Active; 'I' for Inactive)
REMARK    1  A    between atoms: C_1  and  C_2
REMARK    2  A    between atoms: C_5  and  C_8
REMARK    3  A    between atoms: C_8  and  O_9
REMARK    4  A    between atoms: O_9  and  C_10
REMARK                            x       y       z     vdW  Elec       q    Type
REMARK                         _______ _______ _______ _____ _____    ______ ____
ROOT
ATOM      1  C   UNL     1      -3.327   0.025  -0.027  0.00  0.00    +0.000 C 
ENDROOT
BRANCH   1   6
ATOM      2  C   UNL     1       2.508  -0.014  -0.035  0.00  0.00    +0.000 C 
ATOM      3  C   UNL     1       1.009   0.016  -0.038  0.00  0.00    +0.000 A 
ATOM      4  C   UNL     1       0.308   1.069   0.558  0.00  0.00    +0.000 A 
ATOM      5  C   UNL     1      -1.090   1.083   0.554  0.00  0.00    +0.000 A 
ATOM      6  C   UNL     1      -1.814   0.049  -0.054  0.00  0.00    +0.000 A 
ATOM      7  C   UNL     1      -1.108  -1.014  -0.634  0.00  0.00    +0.000 A 
ATOM      8  C   UNL     1       0.289  -1.028  -0.630  0.00  0.00    +0.000 A 
ENDBRANCH   1   6
BRANCH   1   9
ATOM      9  O   UNL     1      -3.844   1.352  -0.134  0.00  0.00    +0.000 OA
BRANCH   9  10
ATOM     10  C   UNL     1      -5.201   1.501  -0.068  0.00  0.00    +0.000 A 
ATOM     11  C   UNL     1      -6.139   0.469   0.025  0.00  0.00    +0.000 A 
ATOM     12  C   UNL     1      -7.504   0.767   0.082  0.00  0.00    +0.000 A 
ATOM     13  C   UNL     1      -7.924   2.092   0.047  0.00  0.00    +0.000 A 
ATOM     14  C   UNL     1      -7.004   3.128  -0.047  0.00  0.00    +0.000 A 
ATOM     15  C   UNL     1      -5.642   2.829  -0.105  0.00  0.00    +0.000 A 
ATOM     16  F   UNL     1      -9.232   2.371   0.102  0.00  0.00    +0.000 F 
ENDBRANCH   9  10
ENDBRANCH   1   9
TORSDOF 3
