MODEL 1
REMARK VINA RESULT:      -4.5      0.000      0.000
REMARK  Name = *****
REMARK  2 active torsions:
REMARK  status: ('A' for Active; 'I' for Inactive)
REMARK    1  A    between atoms: C_4  and  C_7
REMARK    2  A    between atoms: C_8  and  C_11
REMARK                            x       y       z     vdW  Elec       q    Type
REMARK                         _______ _______ _______ _____ _____    ______ ____
ROOT
ATOM      1  C   UNL     1      88.779  69.085  85.703  0.00  0.00    +0.000 C 
ATOM      2  C   UNL     1      88.464  68.838  86.971  0.00  0.00    +0.000 C 
ATOM      3  C   UNL     1      89.820  68.491  86.538  0.00  0.00    +0.000 C 
ATOM      4  O   UNL     1      90.344  67.405  86.460  0.00  0.00    +0.000 OA
ENDROOT
BRANCH   2   5
ATOM      5  C   UNL     1      87.969  69.818  87.922  0.00  0.00    +0.000 A 
ATOM      6  C   UNL     1      86.588  70.065  87.964  0.00  0.00    +0.000 A 
ATOM      7  C   UNL     1      86.067  71.019  88.840  0.00  0.00    +0.000 A 
ATOM      8  C   UNL     1      86.925  71.722  89.676  0.00  0.00    +0.000 A 
ATOM      9  C   UNL     1      88.294  71.484  89.658  0.00  0.00    +0.000 A 
ATOM     10  C   UNL     1      88.818  70.530  88.783  0.00  0.00    +0.000 A 
ATOM     11  F   UNL     1      86.426  72.641  90.513  0.00  0.00    +0.000 F 
ENDBRANCH   2   5
BRANCH   1  15
ATOM     12  C   UNL     1      88.594  72.843  83.713  0.00  0.00    +0.000 A 
ATOM     13  C   UNL     1      87.424  72.110  83.905  0.00  0.00    +0.000 A 
ATOM     14  C   UNL     1      87.467  70.881  84.567  0.00  0.00    +0.000 A 
ATOM     15  C   UNL     1      88.685  70.372  85.037  0.00  0.00    +0.000 A 
ATOM     16  C   UNL     1      89.853  71.124  84.849  0.00  0.00    +0.000 A 
ATOM     17  C   UNL     1      89.808  72.352  84.187  0.00  0.00    +0.000 A 
ENDBRANCH   1  15
TORSDOF 2
ENDMDL
