MODEL 1
REMARK VINA RESULT:      -4.6      0.000      0.000
REMARK  Name = *****
REMARK  2 active torsions:
REMARK  status: ('A' for Active; 'I' for Inactive)
REMARK    1  A    between atoms: C_2  and  C_9
REMARK    2  A    between atoms: C_3  and  C_4
REMARK                            x       y       z     vdW  Elec       q    Type
REMARK                         _______ _______ _______ _____ _____    ______ ____
ROOT
ATOM      1  C   UNL     1     103.686 127.060  80.094  0.00  0.00    +0.000 C 
ATOM      2  C   UNL     1     103.500 126.687  81.535  0.00  0.00    +0.000 C 
ATOM      3  C   UNL     1     103.385 125.622  80.445  0.00  0.00    +0.000 C 
ENDROOT
BRANCH   2   4
ATOM      4  C   UNL     1     102.261 127.127  82.279  0.00  0.00    +0.000 A 
ATOM      5  C   UNL     1     102.250 128.304  83.047  0.00  0.00    +0.000 A 
ATOM      6  C   UNL     1     101.099 128.722  83.725  0.00  0.00    +0.000 A 
ATOM      7  C   UNL     1      99.935 127.968  83.636  0.00  0.00    +0.000 A 
ATOM      8  C   UNL     1      99.911 126.804  82.875  0.00  0.00    +0.000 A 
ATOM      9  C   UNL     1     101.065 126.392  82.202  0.00  0.00    +0.000 A 
ATOM     10 CL   UNL     1      98.517 128.479  84.466  0.00  0.00    +0.000 Cl
ENDBRANCH   2   4
BRANCH   3  11
ATOM     11  C   UNL     1     104.486 124.569  80.319  0.00  0.00    +0.000 A 
ATOM     12  C   UNL     1     104.493 123.323  80.907  0.00  0.00    +0.000 A 
ATOM     13  C   UNL     1     105.672 122.588  80.583  0.00  0.00    +0.000 A 
ATOM     14  C   UNL     1     106.516 123.301  79.761  0.00  0.00    +0.000 A 
ATOM     15  S   UNL     1     105.888 124.848  79.386  0.00  0.00    +0.000 S 
ENDBRANCH   3  11
TORSDOF 2
ENDMDL
