MODEL 1
REMARK VINA RESULT:      -4.4      0.000      0.000
REMARK  Name = *****
REMARK  3 active torsions:
REMARK  status: ('A' for Active; 'I' for Inactive)
REMARK    1  A    between atoms: C_4  and  S_7
REMARK    2  A    between atoms: S_7  and  C_8
REMARK    3  A    between atoms: C_8  and  C_9
REMARK                            x       y       z     vdW  Elec       q    Type
REMARK                         _______ _______ _______ _____ _____    ______ ____
ROOT
ATOM      1  C   UNL     1     103.105 126.115  83.128  0.00  0.00    +0.000 A 
ATOM      2  C   UNL     1     103.559 124.817  82.882  0.00  0.00    +0.000 A 
ATOM      3  C   UNL     1     103.974 124.429  81.610  0.00  0.00    +0.000 A 
ATOM      4  C   UNL     1     103.943 125.338  80.563  0.00  0.00    +0.000 A 
ATOM      5  C   UNL     1     103.497 126.633  80.786  0.00  0.00    +0.000 A 
ATOM      6  C   UNL     1     103.083 127.017  82.060  0.00  0.00    +0.000 A 
ATOM      7  F   UNL     1     102.650 128.270  82.258  0.00  0.00    +0.000 F 
ATOM      8  F   UNL     1     103.459 127.513  79.776  0.00  0.00    +0.000 F 
ATOM      9  F   UNL     1     104.337 124.965  79.338  0.00  0.00    +0.000 F 
ATOM     10  F   UNL     1     104.398 123.175  81.398  0.00  0.00    +0.000 F 
ATOM     11  F   UNL     1     103.589 123.925  83.883  0.00  0.00    +0.000 F 
ENDROOT
BRANCH   1  12
ATOM     12  C   UNL     1     102.692 126.542  84.507  0.00  0.00    +0.000 C 
BRANCH  12  13
ATOM     13  S   UNL     1     100.895 126.340  84.742  0.00  0.00    +0.000 S 
BRANCH  13  17
ATOM     14  C   UNL     1      99.532 130.625  83.863  0.00  0.00    +0.000 A 
ATOM     15  C   UNL     1     100.440 130.388  84.895  0.00  0.00    +0.000 A 
ATOM     16  C   UNL     1     100.862 129.085  85.169  0.00  0.00    +0.000 A 
ATOM     17  C   UNL     1     100.371 128.012  84.417  0.00  0.00    +0.000 A 
ATOM     18  C   UNL     1      99.472 128.259  83.374  0.00  0.00    +0.000 A 
ATOM     19  C   UNL     1      99.051 129.562  83.101  0.00  0.00    +0.000 A 
ENDBRANCH  13  17
ENDBRANCH  12  13
ENDBRANCH   1  12
TORSDOF 3
ENDMDL
