MODEL 1
REMARK VINA RESULT:      -4.3      0.000      0.000
REMARK  Name = *****
REMARK  4 active torsions:
REMARK  status: ('A' for Active; 'I' for Inactive)
REMARK    1  A    between atoms: C_5  and  C_8
REMARK    2  A    between atoms: C_8  and  O_10
REMARK    3  A    between atoms: O_10  and  C_11
REMARK    4  A    between atoms: C_11  and  C_12
REMARK                            x       y       z     vdW  Elec       q    Type
REMARK                         _______ _______ _______ _____ _____    ______ ____
ROOT
ATOM      1  C   UNL     1     103.362 125.258  81.544  0.00  0.00    +0.000 C 
ATOM      2  O   UNL     1     104.083 124.524  82.205  0.00  0.00    +0.000 OA
ENDROOT
BRANCH   1   7
ATOM      3  C   UNL     1     105.553 128.704  80.897  0.00  0.00    +0.000 C 
ATOM      4  C   UNL     1     106.445 127.726  80.140  0.00  0.00    +0.000 C 
ATOM      5  C   UNL     1     106.304 126.266  80.557  0.00  0.00    +0.000 C 
ATOM      6  C   UNL     1     105.184 125.539  79.807  0.00  0.00    +0.000 C 
ATOM      7  C   UNL     1     103.748 125.903  80.213  0.00  0.00    +0.000 C 
ATOM      8  C   UNL     1     103.450 127.411  80.163  0.00  0.00    +0.000 C 
ATOM      9  C   UNL     1     104.145 128.232  81.247  0.00  0.00    +0.000 C 
ENDBRANCH   1   7
BRANCH   1  10
ATOM     10  O   UNL     1     102.079 125.570  81.869  0.00  0.00    +0.000 OA
BRANCH  10  11
ATOM     11  C   UNL     1     101.896 125.964  83.230  0.00  0.00    +0.000 C 
BRANCH  11  12
ATOM     12  C   UNL     1     100.954 127.139  83.241  0.00  0.00    +0.000 A 
ATOM     13  C   UNL     1     101.336 128.359  83.816  0.00  0.00    +0.000 A 
ATOM     14  C   UNL     1     100.450 129.437  83.843  0.00  0.00    +0.000 A 
ATOM     15  C   UNL     1      99.171 129.304  83.303  0.00  0.00    +0.000 A 
ATOM     16  C   UNL     1      98.777 128.092  82.740  0.00  0.00    +0.000 A 
ATOM     17  C   UNL     1      99.661 127.013  82.712  0.00  0.00    +0.000 A 
ENDBRANCH  11  12
ENDBRANCH  10  11
ENDBRANCH   1  10
TORSDOF 4
ENDMDL
