MODEL 1
REMARK VINA RESULT:      -4.7      0.000      0.000
REMARK  Name = *****
REMARK  3 active torsions:
REMARK  status: ('A' for Active; 'I' for Inactive)
REMARK    1  A    between atoms: C_4  and  N_7
REMARK    2  A    between atoms: C_8  and  C_9
REMARK    3  A    between atoms: C_12  and  C_15
REMARK                            x       y       z     vdW  Elec       q    Type
REMARK                         _______ _______ _______ _____ _____    ______ ____
ROOT
ATOM      1  C   UNL     1     103.012 126.151  81.907  0.00  0.00    +0.000 A 
ATOM      2  C   UNL     1     103.427 125.992  80.583  0.00  0.00    +0.000 A 
ATOM      3  C   UNL     1     104.116 124.837  80.204  0.00  0.00    +0.000 A 
ATOM      4  C   UNL     1     104.391 123.830  81.142  0.00  0.00    +0.000 A 
ATOM      5  C   UNL     1     103.976 124.008  82.473  0.00  0.00    +0.000 A 
ATOM      6  C   UNL     1     103.286 125.163  82.855  0.00  0.00    +0.000 A 
ENDROOT
BRANCH   4   7
ATOM      7  C   UNL     1     105.157 122.593  80.737  0.00  0.00    +0.000 C 
ATOM      8  F   UNL     1     104.349 121.555  80.385  0.00  0.00    +0.000 F 
ATOM      9  F   UNL     1     105.970 122.816  79.668  0.00  0.00    +0.000 F 
ATOM     10  F   UNL     1     105.963 122.116  81.727  0.00  0.00    +0.000 F 
ENDBRANCH   4   7
BRANCH   1  12
ATOM     11  N   UNL     1     102.140 127.675  83.579  0.00  0.00    +0.000 NA
ATOM     12  C   UNL     1     102.283 127.363  82.330  0.00  0.00    +0.000 C 
BRANCH  11  16
ATOM     13  C   UNL     1      99.997 131.213  84.314  0.00  0.00    +0.000 A 
ATOM     14  C   UNL     1     101.332 131.114  84.704  0.00  0.00    +0.000 A 
ATOM     15  C   UNL     1     102.044 129.938  84.460  0.00  0.00    +0.000 A 
ATOM     16  C   UNL     1     101.424 128.852  83.836  0.00  0.00    +0.000 A 
ATOM     17  C   UNL     1     100.091 128.965  83.433  0.00  0.00    +0.000 A 
ATOM     18  C   UNL     1      99.376 130.139  83.675  0.00  0.00    +0.000 A 
ENDBRANCH  11  16
ENDBRANCH   1  12
TORSDOF 3
ENDMDL
