REMARK  Name = *****
REMARK  4 active torsions:
REMARK  status: ('A' for Active; 'I' for Inactive)
REMARK    1  A    between atoms: C_1  and  C_2
REMARK    2  A    between atoms: C_7  and  S_8
REMARK    3  A    between atoms: S_8  and  S_9
REMARK    4  A    between atoms: S_9  and  C_10
REMARK                            x       y       z     vdW  Elec       q    Type
REMARK                         _______ _______ _______ _____ _____    ______ ____
ROOT
ATOM      1  S   UNL     1       1.211  -2.538   0.257  0.00  0.00    +0.000 S 
ENDROOT
BRANCH   1   8
ATOM      2  C   UNL     1       2.490   0.094  -1.022  0.00  0.00    +0.000 C 
ATOM      3  C   UNL     1       1.162   0.217  -0.325  0.00  0.00    +0.000 A 
ATOM      4  C   UNL     1       0.548   1.480  -0.256  0.00  0.00    +0.000 A 
ATOM      5  C   UNL     1      -0.684   1.645   0.376  0.00  0.00    +0.000 A 
ATOM      6  C   UNL     1      -1.323   0.551   0.950  0.00  0.00    +0.000 A 
ATOM      7  C   UNL     1      -0.726  -0.708   0.894  0.00  0.00    +0.000 A 
ATOM      8  C   UNL     1       0.520  -0.886   0.270  0.00  0.00    +0.000 A 
ENDBRANCH   1   8
BRANCH   1   9
ATOM      9  S   UNL     1       2.430  -2.494   1.915  0.00  0.00    +0.000 S 
BRANCH   9  10
ATOM     10  C   UNL     1       1.268  -2.786   3.234  0.00  0.00    +0.000 A 
ATOM     11  C   UNL     1       0.713  -4.048   3.433  0.00  0.00    +0.000 A 
ATOM     12  C   UNL     1      -0.187  -4.209   4.472  0.00  0.00    +0.000 A 
ATOM     13  N   UNL     1      -0.556  -3.214   5.306  0.00  0.00    +0.000 NA
ATOM     14  C   UNL     1       0.004  -2.004   5.096  0.00  0.00    +0.000 A 
ATOM     15  C   UNL     1       0.913  -1.742   4.087  0.00  0.00    +0.000 A 
ENDBRANCH   9  10
ENDBRANCH   1   9
TORSDOF 3
