MODEL 1
REMARK VINA RESULT:      -4.8      0.000      0.000
REMARK  Name = *****
REMARK  5 active torsions:
REMARK  status: ('A' for Active; 'I' for Inactive)
REMARK    1  A    between atoms: C_1  and  C_2
REMARK    2  A    between atoms: C_5  and  O_8
REMARK    3  A    between atoms: O_8  and  C_9
REMARK    4  A    between atoms: C_9  and  C_10
REMARK    5  A    between atoms: C_9  and  C_16
REMARK                            x       y       z     vdW  Elec       q    Type
REMARK                         _______ _______ _______ _____ _____    ______ ____
ROOT
ATOM      1  C   UNL     1      87.410  70.223  88.237  0.00  0.00    +0.000 C 
ENDROOT
BRANCH   1   2
ATOM      2  C   UNL     1      86.324  71.074  87.592  0.00  0.00    +0.000 A 
ATOM      3  C   UNL     1      86.277  71.248  86.199  0.00  0.00    +0.000 A 
ATOM      4  C   UNL     1      85.268  72.013  85.614  0.00  0.00    +0.000 A 
ATOM      5  C   UNL     1      84.292  72.608  86.410  0.00  0.00    +0.000 A 
ATOM      6  C   UNL     1      84.322  72.438  87.792  0.00  0.00    +0.000 A 
ATOM      7  C   UNL     1      85.331  71.674  88.382  0.00  0.00    +0.000 A 
ENDBRANCH   1   2
BRANCH   1   8
ATOM      8  C   UNL     1      87.524  70.554  89.740  0.00  0.00    +0.000 C 
ATOM      9  O   UNL     1      86.950  69.919  90.623  0.00  0.00    +0.000 OA
ATOM     10 CL   UNL     1      88.592  71.911  90.038  0.00  0.00    +0.000 Cl
ENDBRANCH   1   8
BRANCH   1  11
ATOM     11  O   UNL     1      87.100  68.827  88.110  0.00  0.00    +0.000 OA
BRANCH  11  16
ATOM     12  C   UNL     1      91.096  65.818  85.434  0.00  0.00    +0.000 C 
ATOM     13  C   UNL     1      90.038  66.584  86.172  0.00  0.00    +0.000 A 
ATOM     14  C   UNL     1      89.005  65.912  86.834  0.00  0.00    +0.000 A 
ATOM     15  C   UNL     1      88.000  66.626  87.498  0.00  0.00    +0.000 A 
ATOM     16  C   UNL     1      88.008  68.019  87.488  0.00  0.00    +0.000 A 
ATOM     17  C   UNL     1      89.040  68.692  86.833  0.00  0.00    +0.000 A 
ATOM     18  C   UNL     1      90.043  67.983  86.168  0.00  0.00    +0.000 A 
ENDBRANCH  11  16
ENDBRANCH   1  11
TORSDOF 4
ENDMDL
