MODEL 1
REMARK VINA RESULT:      -4.3      0.000      0.000
REMARK  Name = *****
REMARK  4 active torsions:
REMARK  status: ('A' for Active; 'I' for Inactive)
REMARK    1  A    between atoms: C_4  and  O_7
REMARK    2  A    between atoms: O_7  and  C_8
REMARK    3  A    between atoms: C_8  and  O_10
REMARK    4  A    between atoms: O_10  and  C_11
REMARK                            x       y       z     vdW  Elec       q    Type
REMARK                         _______ _______ _______ _____ _____    ______ ____
ROOT
ATOM      1  C   UNL     1     103.455 126.514  80.684  0.00  0.00    +0.000 C 
ATOM      2  O   UNL     1     103.716 127.530  80.053  0.00  0.00    +0.000 OA
ENDROOT
BRANCH   1   3
ATOM      3  O   UNL     1     103.294 126.415  82.060  0.00  0.00    +0.000 OA
BRANCH   3   7
ATOM      4  C   UNL     1      99.826 128.282  83.434  0.00  0.00    +0.000 A 
ATOM      5  C   UNL     1     101.067 128.874  83.681  0.00  0.00    +0.000 A 
ATOM      6  C   UNL     1     102.236 128.256  83.239  0.00  0.00    +0.000 A 
ATOM      7  C   UNL     1     102.149 127.037  82.567  0.00  0.00    +0.000 A 
ATOM      8  C   UNL     1     100.915 126.448  82.296  0.00  0.00    +0.000 A 
ATOM      9  C   UNL     1      99.750 127.073  82.739  0.00  0.00    +0.000 A 
ENDBRANCH   3   7
ENDBRANCH   1   3
BRANCH   1  10
ATOM     10  O   UNL     1     103.265 125.245  80.155  0.00  0.00    +0.000 OA
BRANCH  10  11
ATOM     11  C   UNL     1     104.431 124.481  80.131  0.00  0.00    +0.000 A 
ATOM     12  C   UNL     1     105.493 124.874  79.316  0.00  0.00    +0.000 A 
ATOM     13  C   UNL     1     106.673 124.129  79.333  0.00  0.00    +0.000 A 
ATOM     14  C   UNL     1     106.781 123.016  80.170  0.00  0.00    +0.000 A 
ATOM     15  C   UNL     1     105.719 122.642  80.997  0.00  0.00    +0.000 A 
ATOM     16  C   UNL     1     104.536 123.383  80.984  0.00  0.00    +0.000 A 
ATOM     17 CL   UNL     1     108.239 122.102  80.190  0.00  0.00    +0.000 Cl
ENDBRANCH  10  11
ENDBRANCH   1  10
TORSDOF 4
ENDMDL
