REMARK  Name = *****
REMARK  1 active torsions:
REMARK  status: ('A' for Active; 'I' for Inactive)
REMARK    1  A    between atoms: C_6  and  C_7
REMARK                            x       y       z     vdW  Elec       q    Type
REMARK                         _______ _______ _______ _____ _____    ______ ____
ROOT
ATOM      1  C   UNL     1       4.750   0.868   0.960  0.00  0.00    +0.000 C 
ATOM      2  O   UNL     1       5.076   0.667   2.131  0.00  0.00    +0.000 OA
ATOM      3  N   UNL     1       5.772   1.212   0.058  0.00  0.00    +0.000 N 
ATOM      4  C   UNL     1       7.119   1.444   0.296  0.00  0.00    +0.000 A 
ATOM      5  C   UNL     1       7.634   1.709  -0.968  0.00  0.00    +0.000 A 
ATOM      6  C   UNL     1       8.996   1.999  -1.124  0.00  0.00    +0.000 A 
ATOM      7  C   UNL     1       9.801   2.011   0.018  0.00  0.00    +0.000 A 
ATOM      8  C   UNL     1       9.274   1.743   1.282  0.00  0.00    +0.000 A 
ATOM      9  C   UNL     1       7.915   1.453   1.451  0.00  0.00    +0.000 A 
ATOM     10 CL   UNL     1      11.480   2.364  -0.141  0.00  0.00    +0.000 Cl
ATOM     11  N   UNL     1       6.638   1.631  -1.897  0.00  0.00    +0.000 NA
ATOM     12  N   UNL     1       5.513   1.319  -1.271  0.00  0.00    +0.000 NA
ENDROOT
BRANCH   1  18
ATOM     13  C   UNL     1       2.674   1.510  -0.343  0.00  0.00    +0.000 A 
ATOM     14  C   UNL     1       1.313   1.329  -0.617  0.00  0.00    +0.000 A 
ATOM     15  C   UNL     1       0.587   0.358   0.070  0.00  0.00    +0.000 A 
ATOM     16  C   UNL     1       1.206  -0.433   1.035  0.00  0.00    +0.000 A 
ATOM     17  C   UNL     1       2.565  -0.256   1.310  0.00  0.00    +0.000 A 
ATOM     18  C   UNL     1       3.311   0.706   0.611  0.00  0.00    +0.000 A 
ATOM     19 CL   UNL     1      -1.085   0.142  -0.269  0.00  0.00    +0.000 Cl
ENDBRANCH   1  18
TORSDOF 1
