REMARK  Name = *****
REMARK  6 active torsions:
REMARK  status: ('A' for Active; 'I' for Inactive)
REMARK    1  A    between atoms: C_1  and  C_2
REMARK    2  A    between atoms: C_3  and  C_9
REMARK    3  A    between atoms: C_4  and  C_8
REMARK    4  A    between atoms: N_10  and  C_11
REMARK    5  A    between atoms: C_12  and  C_18
REMARK    6  A    between atoms: C_16  and  C_17
REMARK                            x       y       z     vdW  Elec       q    Type
REMARK                         _______ _______ _______ _____ _____    ______ ____
ROOT
ATOM      1  C   UNL     1       0.372   2.505  -0.454  0.00  0.00    +0.000 C 
ATOM      2  N   UNL     1       0.776   3.346   0.447  0.00  0.00    +0.000 NA
ENDROOT
BRANCH   1   5
ATOM      3  C   UNL     1       1.882   1.098   1.766  0.00  0.00    +0.000 C 
ATOM      4  C   UNL     1       0.959   0.385   0.814  0.00  0.00    +0.000 A 
ATOM      5  C   UNL     1       0.256   1.039  -0.224  0.00  0.00    +0.000 A 
ATOM      6  C   UNL     1      -0.585   0.295  -1.089  0.00  0.00    +0.000 A 
ATOM      7  C   UNL     1      -0.705  -1.092  -0.903  0.00  0.00    +0.000 A 
ATOM      8  C   UNL     1      -0.021  -1.735   0.123  0.00  0.00    +0.000 A 
ATOM      9  C   UNL     1       0.800  -1.003   0.975  0.00  0.00    +0.000 A 
ATOM     10  C   UNL     1      -1.369   0.929  -2.207  0.00  0.00    +0.000 C 
ENDBRANCH   1   5
BRANCH   2  11
ATOM     11  C   UNL     1       0.803   4.699   0.057  0.00  0.00    +0.000 A 
ATOM     12  C   UNL     1      -0.332   5.513   0.251  0.00  0.00    +0.000 A 
ATOM     13  C   UNL     1      -0.299   6.854  -0.157  0.00  0.00    +0.000 A 
ATOM     14  C   UNL     1       0.852   7.392  -0.727  0.00  0.00    +0.000 A 
ATOM     15  C   UNL     1       1.985   6.598  -0.892  0.00  0.00    +0.000 A 
ATOM     16  C   UNL     1       1.975   5.252  -0.496  0.00  0.00    +0.000 A 
ATOM     17  C   UNL     1       3.212   4.416  -0.671  0.00  0.00    +0.000 C 
ATOM     18  C   UNL     1      -1.583   4.953   0.869  0.00  0.00    +0.000 C 
ENDBRANCH   2  11
TORSDOF 2
