MODEL 1
REMARK VINA RESULT:      -4.5      0.000      0.000
REMARK  Name = *****
REMARK  4 active torsions:
REMARK  status: ('A' for Active; 'I' for Inactive)
REMARK    1  A    between atoms: C_1  and  C_2
REMARK    2  A    between atoms: C_5  and  O_8
REMARK    3  A    between atoms: O_8  and  C_9
REMARK    4  A    between atoms: C_9  and  C_11
REMARK                            x       y       z     vdW  Elec       q    Type
REMARK                         _______ _______ _______ _____ _____    ______ ____
ROOT
ATOM      1  O   UNL     1     103.451 127.103  82.800  0.00  0.00    +0.000 OA
ENDROOT
BRANCH   1   6
ATOM      2  C   UNL     1     105.655 124.751  79.324  0.00  0.00    +0.000 C 
ATOM      3  C   UNL     1     104.675 124.683  80.493  0.00  0.00    +0.000 C 
ATOM      4  C   UNL     1     103.432 125.545  80.251  0.00  0.00    +0.000 C 
ATOM      5  C   UNL     1     103.714 127.042  80.381  0.00  0.00    +0.000 C 
ATOM      6  C   UNL     1     104.368 127.389  81.725  0.00  0.00    +0.000 C 
ATOM      7  C   UNL     1     105.625 126.543  81.960  0.00  0.00    +0.000 C 
ATOM      8  C   UNL     1     105.343 125.045  81.823  0.00  0.00    +0.000 C 
ATOM      9  F   UNL     1     104.263 123.382  80.582  0.00  0.00    +0.000 F 
ENDBRANCH   1   6
BRANCH   1  10
ATOM     10  C   UNL     1     102.788 128.164  83.322  0.00  0.00    +0.000 C 
ATOM     11  O   UNL     1     103.299 129.132  83.862  0.00  0.00    +0.000 OA
BRANCH  10  12
ATOM     12  C   UNL     1     101.320 128.000  83.142  0.00  0.00    +0.000 A 
ATOM     13  C   UNL     1     100.479 129.025  83.595  0.00  0.00    +0.000 A 
ATOM     14  C   UNL     1      99.094 128.920  83.446  0.00  0.00    +0.000 A 
ATOM     15  C   UNL     1      98.543 127.790  82.843  0.00  0.00    +0.000 A 
ATOM     16  C   UNL     1      99.373 126.766  82.388  0.00  0.00    +0.000 A 
ATOM     17  C   UNL     1     100.758 126.867  82.536  0.00  0.00    +0.000 A 
ENDBRANCH  10  12
ENDBRANCH   1  10
TORSDOF 3
ENDMDL
