MODEL 1
REMARK VINA RESULT:      -3.7      0.000      0.000
REMARK  Name = *****
REMARK  4 active torsions:
REMARK  status: ('A' for Active; 'I' for Inactive)
REMARK    1  A    between atoms: C_4  and  C_7
REMARK    2  A    between atoms: C_7  and  O_8
REMARK    3  A    between atoms: O_8  and  N_9
REMARK    4  A    between atoms: C_10  and  C_11
REMARK                            x       y       z     vdW  Elec       q    Type
REMARK                         _______ _______ _______ _____ _____    ______ ____
ROOT
ATOM      1  N   UNL     1      90.086  69.376  82.909  0.00  0.00    +0.000 NA
ATOM      2  C   UNL     1      89.440  68.268  83.121  0.00  0.00    +0.000 C 
ENDROOT
BRANCH   2   3
ATOM      3  C   UNL     1      89.072  67.619  84.399  0.00  0.00    +0.000 A 
ATOM      4  C   UNL     1      90.020  67.053  85.258  0.00  0.00    +0.000 A 
ATOM      5  C   UNL     1      89.615  66.486  86.469  0.00  0.00    +0.000 A 
ATOM      6  C   UNL     1      88.267  66.497  86.825  0.00  0.00    +0.000 A 
ATOM      7  C   UNL     1      87.320  67.078  85.983  0.00  0.00    +0.000 A 
ATOM      8  C   UNL     1      87.722  67.647  84.770  0.00  0.00    +0.000 A 
ATOM      9 CL   UNL     1      87.770  65.801  88.317  0.00  0.00    +0.000 Cl
ENDBRANCH   2   3
BRANCH   1  10
ATOM     10  O   UNL     1      90.545  69.963  84.093  0.00  0.00    +0.000 OA
BRANCH  10  11
ATOM     11  C   UNL     1      89.807  71.160  84.337  0.00  0.00    +0.000 C 
BRANCH  11  15
ATOM     12  C   UNL     1      87.421  70.543  87.875  0.00  0.00    +0.000 A 
ATOM     13  C   UNL     1      88.785  70.254  87.893  0.00  0.00    +0.000 A 
ATOM     14  C   UNL     1      89.556  70.458  86.749  0.00  0.00    +0.000 A 
ATOM     15  C   UNL     1      88.972  70.959  85.576  0.00  0.00    +0.000 A 
ATOM     16  C   UNL     1      87.598  71.236  85.567  0.00  0.00    +0.000 A 
ATOM     17  C   UNL     1      86.827  71.031  86.712  0.00  0.00    +0.000 A 
ENDBRANCH  11  15
ENDBRANCH  10  11
ENDBRANCH   1  10
TORSDOF 4
ENDMDL
