MODEL 1
REMARK VINA RESULT:      -4.3      0.000      0.000
REMARK  Name = *****
REMARK  6 active torsions:
REMARK  status: ('A' for Active; 'I' for Inactive)
REMARK    1  A    between atoms: C_1  and  N_2
REMARK    2  A    between atoms: N_2  and  C_3
REMARK    3  A    between atoms: N_2  and  C_19
REMARK    4  A    between atoms: C_3  and  C_4
REMARK    5  A    between atoms: C_4  and  C_13
REMARK    6  A    between atoms: C_5  and  C_6
REMARK                            x       y       z     vdW  Elec       q    Type
REMARK                         _______ _______ _______ _____ _____    ______ ____
ROOT
ATOM      1  C   UNL     1      88.767  66.130  86.886  0.00  0.00    +0.000 C 
ATOM      2  C   UNL     1      88.135  67.320  87.005  0.00  0.00    +0.000 C 
ATOM      3 CL   UNL     1      86.628  67.509  87.854  0.00  0.00    +0.000 Cl
ENDROOT
BRANCH   2   4
ATOM      4  C   UNL     1      88.638  68.579  86.431  0.00  0.00    +0.000 A 
ATOM      5  C   UNL     1      89.334  69.494  87.236  0.00  0.00    +0.000 A 
ATOM      6  C   UNL     1      89.776  70.704  86.700  0.00  0.00    +0.000 A 
ATOM      7  C   UNL     1      89.527  71.007  85.362  0.00  0.00    +0.000 A 
ATOM      8  C   UNL     1      88.845  70.098  84.553  0.00  0.00    +0.000 A 
ATOM      9  C   UNL     1      88.403  68.886  85.085  0.00  0.00    +0.000 A 
ENDBRANCH   2   4
BRANCH   1  10
ATOM     10  C   UNL     1      88.235  64.891  87.488  0.00  0.00    +0.000 A 
ATOM     11  C   UNL     1      88.498  64.568  88.828  0.00  0.00    +0.000 A 
ATOM     12  C   UNL     1      87.956  63.412  89.393  0.00  0.00    +0.000 A 
ATOM     13  C   UNL     1      87.152  62.571  88.627  0.00  0.00    +0.000 A 
ATOM     14  C   UNL     1      86.892  62.879  87.293  0.00  0.00    +0.000 A 
ATOM     15  C   UNL     1      87.432  64.033  86.723  0.00  0.00    +0.000 A 
ENDBRANCH   1  10
BRANCH   1  16
ATOM     16  C   UNL     1      90.119  66.126  86.239  0.00  0.00    +0.000 C 
BRANCH  16  18
ATOM     17  C   UNL     1      91.740  64.733  85.002  0.00  0.00    +0.000 C 
ATOM     18  N   UNL     1      90.485  65.521  85.155  0.00  0.00    +0.000 NA
ATOM     19  C   UNL     1      89.594  65.545  83.957  0.00  0.00    +0.000 C 
ENDBRANCH  16  18
ENDBRANCH   1  16
TORSDOF 4
ENDMDL
