MODEL 1
REMARK VINA RESULT:      -4.7      0.000      0.000
REMARK  Name = *****
REMARK  4 active torsions:
REMARK  status: ('A' for Active; 'I' for Inactive)
REMARK    1  A    between atoms: C_1  and  C_2
REMARK    2  A    between atoms: C_2  and  C_11
REMARK    3  A    between atoms: N_3  and  O_4
REMARK    4  A    between atoms: O_4  and  C_5
REMARK                            x       y       z     vdW  Elec       q    Type
REMARK                         _______ _______ _______ _____ _____    ______ ____
ROOT
ATOM      1  C   UNL     1      89.781  70.750  85.656  0.00  0.00    +0.000 C 
ATOM      2  C   UNL     1      88.761  70.022  86.511  0.00  0.00    +0.000 C 
ATOM      3  N   UNL     1      88.942  68.813  86.958  0.00  0.00    +0.000 NA
ENDROOT
BRANCH   2   4
ATOM      4  C   UNL     1      87.487  70.724  86.847  0.00  0.00    +0.000 A 
ATOM      5  C   UNL     1      87.090  70.925  88.174  0.00  0.00    +0.000 A 
ATOM      6  C   UNL     1      85.893  71.591  88.453  0.00  0.00    +0.000 A 
ATOM      7  C   UNL     1      85.095  72.064  87.411  0.00  0.00    +0.000 A 
ATOM      8  C   UNL     1      85.493  71.878  86.088  0.00  0.00    +0.000 A 
ATOM      9  C   UNL     1      86.687  71.214  85.805  0.00  0.00    +0.000 A 
ENDBRANCH   2   4
BRANCH   3  10
ATOM     10  O   UNL     1      90.170  68.288  86.537  0.00  0.00    +0.000 OA
BRANCH  10  11
ATOM     11  C   UNL     1      90.083  66.936  86.296  0.00  0.00    +0.000 A 
ATOM     12  C   UNL     1      91.024  66.192  85.581  0.00  0.00    +0.000 A 
ATOM     13  C   UNL     1      90.844  64.817  85.405  0.00  0.00    +0.000 A 
ATOM     14  C   UNL     1      89.727  64.183  85.946  0.00  0.00    +0.000 A 
ATOM     15  C   UNL     1      88.788  64.920  86.667  0.00  0.00    +0.000 A 
ATOM     16  C   UNL     1      88.968  66.293  86.843  0.00  0.00    +0.000 A 
ENDBRANCH  10  11
ENDBRANCH   3  10
TORSDOF 3
ENDMDL
