MODEL 1
REMARK VINA RESULT:      -4.6      0.000      0.000
REMARK  Name = *****
REMARK  5 active torsions:
REMARK  status: ('A' for Active; 'I' for Inactive)
REMARK    1  A    between atoms: C_1  and  C_2
REMARK    2  A    between atoms: C_5  and  S_8
REMARK    3  A    between atoms: S_8  and  C_9
REMARK    4  A    between atoms: S_8  and  C_10
REMARK    5  A    between atoms: C_10  and  C_11
REMARK                            x       y       z     vdW  Elec       q    Type
REMARK                         _______ _______ _______ _____ _____    ______ ____
ROOT
ATOM      1  S   UNL     1      88.971  70.449  86.716  0.00  0.00    +0.000 S 
ATOM      2  C   UNL     1      90.087  70.754  85.331  0.00  0.00    +0.000 C 
ENDROOT
BRANCH   1   7
ATOM      3  C   UNL     1      88.794  64.344  87.022  0.00  0.00    +0.000 C 
ATOM      4  C   UNL     1      88.879  65.840  86.964  0.00  0.00    +0.000 A 
ATOM      5  C   UNL     1      87.839  66.629  87.463  0.00  0.00    +0.000 A 
ATOM      6  C   UNL     1      87.904  68.022  87.378  0.00  0.00    +0.000 A 
ATOM      7  C   UNL     1      89.002  68.651  86.784  0.00  0.00    +0.000 A 
ATOM      8  C   UNL     1      90.034  67.864  86.269  0.00  0.00    +0.000 A 
ATOM      9  C   UNL     1      89.971  66.467  86.354  0.00  0.00    +0.000 A 
ENDBRANCH   1   7
BRANCH   1  10
ATOM     10  C   UNL     1      87.424  70.699  85.791  0.00  0.00    +0.000 C 
BRANCH  10  11
ATOM     11  C   UNL     1      86.345  71.301  86.654  0.00  0.00    +0.000 A 
ATOM     12  C   UNL     1      85.230  71.921  86.070  0.00  0.00    +0.000 A 
ATOM     13  C   UNL     1      84.235  72.487  86.867  0.00  0.00    +0.000 A 
ATOM     14  C   UNL     1      84.344  72.446  88.255  0.00  0.00    +0.000 A 
ATOM     15  C   UNL     1      85.451  71.841  88.848  0.00  0.00    +0.000 A 
ATOM     16  C   UNL     1      86.447  71.273  88.052  0.00  0.00    +0.000 A 
ENDBRANCH  10  11
ENDBRANCH   1  10
TORSDOF 3
ENDMDL
