REMARK  Name = *****
REMARK  4 active torsions:
REMARK  status: ('A' for Active; 'I' for Inactive)
REMARK    1  A    between atoms: C_2  and  C_9
REMARK    2  A    between atoms: C_9  and  O_10
REMARK    3  A    between atoms: O_10  and  C_11
REMARK    4  A    between atoms: C_11  and  C_12
REMARK                            x       y       z     vdW  Elec       q    Type
REMARK                         _______ _______ _______ _____ _____    ______ ____
ROOT
ATOM      1  C   UNL     1       2.818  -0.005  -0.035  0.00  0.00    +0.000 C 
ENDROOT
BRANCH   1   3
ATOM      2  C   UNL     1       0.758   1.410  -0.288  0.00  0.00    +0.000 C 
ATOM      3  C   UNL     1       1.267  -0.022  -0.018  0.00  0.00    +0.000 C 
ATOM      4  C   UNL     1       0.797  -0.500   1.372  0.00  0.00    +0.000 C 
ATOM      5  S   UNL     1      -1.002  -0.646   1.592  0.00  0.00    +0.000 S 
ATOM      6  C   UNL     1      -1.546  -0.097  -0.038  0.00  0.00    +0.000 C 
ATOM      7  S   UNL     1      -1.048   1.602  -0.379  0.00  0.00    +0.000 S 
ATOM      8  S   UNL     1      -0.970  -1.217  -1.329  0.00  0.00    +0.000 S 
ATOM      9  C   UNL     1       0.819  -0.995  -1.128  0.00  0.00    +0.000 C 
ENDBRANCH   1   3
BRANCH   1  10
ATOM     10  O   UNL     1       3.310   0.875   0.971  0.00  0.00    +0.000 OA
BRANCH  10  11
ATOM     11  C   UNL     1       4.737   0.935   0.984  0.00  0.00    +0.000 C 
BRANCH  11  12
ATOM     12  C   UNL     1       5.184   1.861   2.084  0.00  0.00    +0.000 A 
ATOM     13  C   UNL     1       4.699   1.704   3.391  0.00  0.00    +0.000 A 
ATOM     14  C   UNL     1       5.134   2.544   4.417  0.00  0.00    +0.000 A 
ATOM     15  C   UNL     1       6.063   3.547   4.150  0.00  0.00    +0.000 A 
ATOM     16  C   UNL     1       6.559   3.710   2.858  0.00  0.00    +0.000 A 
ATOM     17  C   UNL     1       6.125   2.870   1.830  0.00  0.00    +0.000 A 
ENDBRANCH  11  12
ENDBRANCH  10  11
ENDBRANCH   1  10
TORSDOF 4
