MODEL 1
REMARK VINA RESULT:      -4.4      0.000      0.000
REMARK  Name = *****
REMARK  2 active torsions:
REMARK  status: ('A' for Active; 'I' for Inactive)
REMARK    1  A    between atoms: C_4  and  S_7
REMARK    2  A    between atoms: S_7  and  C_8
REMARK                            x       y       z     vdW  Elec       q    Type
REMARK                         _______ _______ _______ _____ _____    ______ ____
ROOT
ATOM      1  C   UNL     1      89.313  68.597  86.797  0.00  0.00    +0.000 A 
ATOM      2  N   UNL     1      88.413  67.681  87.098  0.00  0.00    +0.000 NA
ATOM      3  C   UNL     1      88.969  66.512  86.647  0.00  0.00    +0.000 A 
ATOM      4  C   UNL     1      88.496  65.193  86.675  0.00  0.00    +0.000 A 
ATOM      5  C   UNL     1      89.307  64.190  86.124  0.00  0.00    +0.000 A 
ATOM      6  C   UNL     1      90.554  64.493  85.561  0.00  0.00    +0.000 A 
ATOM      7  C   UNL     1      91.039  65.805  85.527  0.00  0.00    +0.000 A 
ATOM      8  C   UNL     1      90.206  66.768  86.083  0.00  0.00    +0.000 A 
ATOM      9  O   UNL     1      90.435  68.108  86.177  0.00  0.00    +0.000 OA
ENDROOT
BRANCH   1  10
ATOM     10  S   UNL     1      89.140  70.295  87.145  0.00  0.00    +0.000 S 
BRANCH  10  14
ATOM     11  C   UNL     1      84.952  72.277  87.006  0.00  0.00    +0.000 C 
ATOM     12  C   UNL     1      85.462  71.619  85.728  0.00  0.00    +0.000 C 
ATOM     13  C   UNL     1      86.965  71.352  85.790  0.00  0.00    +0.000 C 
ATOM     14  C   UNL     1      87.330  70.515  87.024  0.00  0.00    +0.000 C 
ATOM     15  C   UNL     1      86.831  71.197  88.306  0.00  0.00    +0.000 C 
ATOM     16  C   UNL     1      85.327  71.465  88.242  0.00  0.00    +0.000 C 
ENDBRANCH  10  14
ENDBRANCH   1  10
TORSDOF 2
ENDMDL
