MODEL 1
REMARK VINA RESULT:      -4.3      0.000      0.000
REMARK  Name = *****
REMARK  3 active torsions:
REMARK  status: ('A' for Active; 'I' for Inactive)
REMARK    1  A    between atoms: C_5  and  O_8
REMARK    2  A    between atoms: O_8  and  C_9
REMARK    3  A    between atoms: C_9  and  C_11
REMARK                            x       y       z     vdW  Elec       q    Type
REMARK                         _______ _______ _______ _____ _____    ______ ____
ROOT
ATOM      1  C   UNL     1      87.737  70.445  88.305  0.00  0.00    +0.000 C 
ATOM      2  O   UNL     1      88.292  70.600  89.380  0.00  0.00    +0.000 OA
ENDROOT
BRANCH   1   3
ATOM      3  C   UNL     1      86.503  71.176  87.906  0.00  0.00    +0.000 A 
ATOM      4  C   UNL     1      86.266  71.375  86.537  0.00  0.00    +0.000 A 
ATOM      5  C   UNL     1      85.120  72.053  86.111  0.00  0.00    +0.000 A 
ATOM      6  C   UNL     1      84.209  72.531  87.050  0.00  0.00    +0.000 A 
ATOM      7  C   UNL     1      84.432  72.339  88.412  0.00  0.00    +0.000 A 
ATOM      8  C   UNL     1      85.578  71.662  88.842  0.00  0.00    +0.000 A 
ATOM      9 CL   UNL     1      82.797  73.364  86.525  0.00  0.00    +0.000 Cl
ENDBRANCH   1   3
BRANCH   1  10
ATOM     10  O   UNL     1      88.133  69.612  87.312  0.00  0.00    +0.000 OA
BRANCH  10  15
ATOM     11  C   UNL     1      89.494  68.310  83.873  0.00  0.00    +0.000 C 
ATOM     12  C   UNL     1      90.050  69.729  83.818  0.00  0.00    +0.000 C 
ATOM     13  C   UNL     1      89.352  70.741  84.719  0.00  0.00    +0.000 C 
ATOM     14  C   UNL     1      89.930  70.760  86.136  0.00  0.00    +0.000 C 
ATOM     15  C   UNL     1      89.548  69.573  87.024  0.00  0.00    +0.000 C 
ATOM     16  C   UNL     1      89.877  68.198  86.422  0.00  0.00    +0.000 C 
ATOM     17  C   UNL     1      89.013  67.797  85.227  0.00  0.00    +0.000 C 
ENDBRANCH  10  15
ENDBRANCH   1  10
TORSDOF 3
ENDMDL
