MODEL 1
REMARK VINA RESULT:      -4.7      0.000      0.000
REMARK  Name = *****
REMARK  5 active torsions:
REMARK  status: ('A' for Active; 'I' for Inactive)
REMARK    1  A    between atoms: C_1  and  C_2
REMARK    2  A    between atoms: C_5  and  C_8
REMARK    3  A    between atoms: N_10  and  C_11
REMARK    4  A    between atoms: N_10  and  C_12
REMARK    5  A    between atoms: C_16  and  C_18
REMARK                            x       y       z     vdW  Elec       q    Type
REMARK                         _______ _______ _______ _____ _____    ______ ____
ROOT
ATOM      1  C   UNL     1     100.430 127.324  83.075  0.00  0.00    +0.000 C 
ATOM      2  O   UNL     1      99.704 126.715  82.293  0.00  0.00    +0.000 OA
ATOM      3  N   UNL     1     101.815 127.133  83.245  0.00  0.00    +0.000 N 
ATOM      4  C   UNL     1     102.438 127.402  84.544  0.00  0.00    +0.000 C 
ENDROOT
BRANCH   1   9
ATOM      5  C   UNL     1      97.741 131.290  86.319  0.00  0.00    +0.000 C 
ATOM      6  C   UNL     1      98.421 130.264  85.460  0.00  0.00    +0.000 A 
ATOM      7  C   UNL     1      98.252 128.897  85.721  0.00  0.00    +0.000 A 
ATOM      8  C   UNL     1      98.906 127.942  84.939  0.00  0.00    +0.000 A 
ATOM      9  C   UNL     1      99.757 128.352  83.909  0.00  0.00    +0.000 A 
ATOM     10  C   UNL     1      99.926 129.714  83.634  0.00  0.00    +0.000 A 
ATOM     11  C   UNL     1      99.269 130.665  84.417  0.00  0.00    +0.000 A 
ENDBRANCH   1   9
BRANCH   3  12
ATOM     12  C   UNL     1     102.636 126.531  82.216  0.00  0.00    +0.000 A 
ATOM     13  C   UNL     1     103.035 127.244  81.076  0.00  0.00    +0.000 A 
ATOM     14  C   UNL     1     103.842 126.663  80.091  0.00  0.00    +0.000 A 
ATOM     15  C   UNL     1     104.286 125.354  80.228  0.00  0.00    +0.000 A 
ATOM     16  C   UNL     1     103.942 124.622  81.364  0.00  0.00    +0.000 A 
ATOM     17  C   UNL     1     103.118 125.213  82.341  0.00  0.00    +0.000 A 
ATOM     18  C   UNL     1     104.389 123.197  81.514  0.00  0.00    +0.000 C 
ENDBRANCH   3  12
TORSDOF 2
ENDMDL
