MODEL 1
REMARK VINA RESULT:      -4.0      0.000      0.000
REMARK  Name = *****
REMARK  7 active torsions:
REMARK  status: ('A' for Active; 'I' for Inactive)
REMARK    1  A    between atoms: C_1  and  C_2
REMARK    2  A    between atoms: C_5  and  C_7
REMARK    3  A    between atoms: C_7  and  C_8
REMARK    4  A    between atoms: C_8  and  C_9
REMARK    5  A    between atoms: C_9  and  C_10
REMARK    6  A    between atoms: C_10  and  C_11
REMARK    7  A    between atoms: C_13  and  C_16
REMARK                            x       y       z     vdW  Elec       q    Type
REMARK                         _______ _______ _______ _____ _____    ______ ____
ROOT
ATOM      1  C   UNL     1     103.692 127.879  82.638  0.00  0.00    +0.000 C 
ENDROOT
BRANCH   1   2
ATOM      2  C   UNL     1     102.501 126.928  82.789  0.00  0.00    +0.000 C 
BRANCH   2   7
ATOM      3  C   UNL     1      99.254 130.661  84.222  0.00  0.00    +0.000 C 
ATOM      4  C   UNL     1      99.705 129.351  83.673  0.00  0.00    +0.000 A 
ATOM      5  C   UNL     1      98.867 128.364  83.188  0.00  0.00    +0.000 A 
ATOM      6  S   UNL     1      99.717 126.989  82.635  0.00  0.00    +0.000 S 
ATOM      7  C   UNL     1     101.227 127.682  83.039  0.00  0.00    +0.000 A 
ATOM      8  C   UNL     1     101.074 128.943  83.582  0.00  0.00    +0.000 A 
ENDBRANCH   2   7
ENDBRANCH   1   2
BRANCH   1   9
ATOM      9  C   UNL     1     104.339 127.822  81.252  0.00  0.00    +0.000 C 
BRANCH   9  10
ATOM     10  C   UNL     1     103.653 126.836  80.303  0.00  0.00    +0.000 C 
BRANCH  10  11
ATOM     11  C   UNL     1     104.411 125.543  80.212  0.00  0.00    +0.000 A 
ATOM     12  C   UNL     1     104.026 124.297  80.664  0.00  0.00    +0.000 A 
ATOM     13  C   UNL     1     105.004 123.282  80.407  0.00  0.00    +0.000 A 
ATOM     14  C   UNL     1     106.106 123.818  79.767  0.00  0.00    +0.000 A 
ATOM     15  S   UNL     1     105.957 125.495  79.483  0.00  0.00    +0.000 S 
ATOM     16  C   UNL     1     104.861 121.847  80.783  0.00  0.00    +0.000 C 
ENDBRANCH  10  11
ENDBRANCH   9  10
ENDBRANCH   1   9
TORSDOF 5
ENDMDL
