MODEL 1
REMARK VINA RESULT:      -4.5      0.000      0.000
REMARK  Name = *****
REMARK  3 active torsions:
REMARK  status: ('A' for Active; 'I' for Inactive)
REMARK    1  A    between atoms: C_3  and  C_8
REMARK    2  A    between atoms: C_8  and  N_10
REMARK    3  A    between atoms: N_10  and  C_11
REMARK                            x       y       z     vdW  Elec       q    Type
REMARK                         _______ _______ _______ _____ _____    ______ ____
ROOT
ATOM      1  C   UNL     1      87.798  63.636  86.524  0.00  0.00    +0.000 C 
ATOM      2  S   UNL     1      86.481  63.674  85.489  0.00  0.00    +0.000 S 
ENDROOT
BRANCH   1   5
ATOM      3  C   UNL     1      90.103  66.617  86.224  0.00  0.00    +0.000 A 
ATOM      4  C   UNL     1      88.998  65.824  86.536  0.00  0.00    +0.000 A 
ATOM      5  C   UNL     1      89.001  64.460  86.205  0.00  0.00    +0.000 A 
ATOM      6  C   UNL     1      90.101  63.891  85.558  0.00  0.00    +0.000 A 
ATOM      7  C   UNL     1      91.193  64.697  85.255  0.00  0.00    +0.000 A 
ATOM      8  C   UNL     1      91.203  66.050  85.581  0.00  0.00    +0.000 A 
ATOM      9  F   UNL     1      92.251  64.163  84.632  0.00  0.00    +0.000 F 
ENDBRANCH   1   5
BRANCH   1  10
ATOM     10  N   UNL     1      87.955  62.955  87.726  0.00  0.00    +0.000 N 
ATOM     11  H   UNL     1      88.051  61.981  87.619  0.00  0.00    +0.000 HD
BRANCH  10  12
ATOM     12  C   UNL     1      88.005  63.386  89.073  0.00  0.00    +0.000 A 
ATOM     13  C   UNL     1      89.166  63.602  89.813  0.00  0.00    +0.000 A 
ATOM     14  C   UNL     1      89.098  64.049  91.141  0.00  0.00    +0.000 A 
ATOM     15  C   UNL     1      87.864  64.290  91.733  0.00  0.00    +0.000 A 
ATOM     16  C   UNL     1      86.695  64.097  91.008  0.00  0.00    +0.000 A 
ATOM     17  C   UNL     1      86.768  63.652  89.683  0.00  0.00    +0.000 A 
ATOM     18 CL   UNL     1      87.784  64.842  93.360  0.00  0.00    +0.000 Cl
ENDBRANCH  10  12
ENDBRANCH   1  10
TORSDOF 3
ENDMDL
