MODEL 1
REMARK VINA RESULT:      -4.6      0.000      0.000
REMARK  Name = *****
REMARK  3 active torsions:
REMARK  status: ('A' for Active; 'I' for Inactive)
REMARK    1  A    between atoms: C_5  and  O_7
REMARK    2  A    between atoms: O_7  and  C_8
REMARK    3  A    between atoms: C_8  and  C_9
REMARK                            x       y       z     vdW  Elec       q    Type
REMARK                         _______ _______ _______ _____ _____    ______ ____
ROOT
ATOM      1  C   UNL     1     103.398 127.729  82.219  0.00  0.00    +0.000 C 
ENDROOT
BRANCH   1   2
ATOM      2  C   UNL     1     103.806 126.341  81.772  0.00  0.00    +0.000 A 
ATOM      3  C   UNL     1     103.901 125.292  82.702  0.00  0.00    +0.000 A 
ATOM      4  C   UNL     1     104.256 124.002  82.293  0.00  0.00    +0.000 A 
ATOM      5  C   UNL     1     104.513 123.748  80.943  0.00  0.00    +0.000 A 
ATOM      6  C   UNL     1     104.412 124.783  80.010  0.00  0.00    +0.000 A 
ATOM      7  C   UNL     1     104.057 126.071  80.421  0.00  0.00    +0.000 A 
ATOM      8 CL   UNL     1     104.954 122.182  80.360  0.00  0.00    +0.000 Cl
ATOM      9 CL   UNL     1     104.355 122.773  83.504  0.00  0.00    +0.000 Cl
ENDBRANCH   1   2
BRANCH   1  10
ATOM     10  O   UNL     1     102.568 127.608  83.374  0.00  0.00    +0.000 OA
BRANCH  10  15
ATOM     11  C   UNL     1      99.424 129.391  83.657  0.00  0.00    +0.000 A 
ATOM     12  C   UNL     1      98.517 128.547  83.018  0.00  0.00    +0.000 A 
ATOM     13  C   UNL     1      98.962 127.346  82.470  0.00  0.00    +0.000 A 
ATOM     14  C   UNL     1     100.308 126.990  82.566  0.00  0.00    +0.000 A 
ATOM     15  C   UNL     1     101.228 127.824  83.206  0.00  0.00    +0.000 A 
ATOM     16  C   UNL     1     100.771 129.030  83.749  0.00  0.00    +0.000 A 
ATOM     17  F   UNL     1     100.682 125.824  82.020  0.00  0.00    +0.000 F 
ENDBRANCH  10  15
ENDBRANCH   1  10
TORSDOF 3
ENDMDL
