MODEL 1
REMARK VINA RESULT:      -4.4      0.000      0.000
REMARK  Name = *****
REMARK  4 active torsions:
REMARK  status: ('A' for Active; 'I' for Inactive)
REMARK    1  A    between atoms: C_6  and  C_7
REMARK    2  A    between atoms: C_7  and  C_8
REMARK    3  A    between atoms: C_8  and  C_10
REMARK    4  A    between atoms: C_10  and  C_11
REMARK                            x       y       z     vdW  Elec       q    Type
REMARK                         _______ _______ _______ _____ _____    ______ ____
ROOT
ATOM      1  C   UNL     1      89.691  67.890  86.217  0.00  0.00    +0.000 C 
ATOM      2  O   UNL     1      90.740  67.309  86.502  0.00  0.00    +0.000 OA
ENDROOT
BRANCH   1   3
ATOM      3  C   UNL     1      89.593  69.398  86.027  0.00  0.00    +0.000 C 
BRANCH   3   9
ATOM      4  C   UNL     1      87.423  70.635  86.415  0.00  0.00    +0.000 A 
ATOM      5  C   UNL     1      86.498  71.253  87.259  0.00  0.00    +0.000 A 
ATOM      6  C   UNL     1      86.737  71.306  88.630  0.00  0.00    +0.000 A 
ATOM      7  C   UNL     1      87.894  70.745  89.165  0.00  0.00    +0.000 A 
ATOM      8  C   UNL     1      88.822  70.128  88.322  0.00  0.00    +0.000 A 
ATOM      9  C   UNL     1      88.598  70.075  86.938  0.00  0.00    +0.000 A 
ATOM     10 CL   UNL     1      85.596  72.068  89.669  0.00  0.00    +0.000 Cl
ENDBRANCH   3   9
ENDBRANCH   1   3
BRANCH   1  11
ATOM     11  C   UNL     1      88.414  67.102  85.997  0.00  0.00    +0.000 C 
BRANCH  11  12
ATOM     12  C   UNL     1      87.918  66.432  87.254  0.00  0.00    +0.000 A 
ATOM     13  C   UNL     1      88.485  65.227  87.693  0.00  0.00    +0.000 A 
ATOM     14  C   UNL     1      88.017  64.610  88.856  0.00  0.00    +0.000 A 
ATOM     15  C   UNL     1      86.984  65.195  89.586  0.00  0.00    +0.000 A 
ATOM     16  C   UNL     1      86.416  66.394  89.164  0.00  0.00    +0.000 A 
ATOM     17  C   UNL     1      86.882  67.013  88.001  0.00  0.00    +0.000 A 
ATOM     18 CL   UNL     1      86.410  64.432  91.016  0.00  0.00    +0.000 Cl
ENDBRANCH  11  12
ENDBRANCH   1  11
TORSDOF 4
ENDMDL
