MODEL 1
REMARK VINA RESULT:      -4.1      0.000      0.000
REMARK  Name = *****
REMARK  3 active torsions:
REMARK  status: ('A' for Active; 'I' for Inactive)
REMARK    1  A    between atoms: C_1  and  C_2
REMARK    2  A    between atoms: C_2  and  C_10
REMARK    3  A    between atoms: N_3  and  C_4
REMARK                            x       y       z     vdW  Elec       q    Type
REMARK                         _______ _______ _______ _____ _____    ______ ____
ROOT
ATOM      1  C   UNL     1     103.493 127.123  80.576  0.00  0.00    +0.000 C 
ATOM      2  C   UNL     1     103.055 126.005  81.503  0.00  0.00    +0.000 C 
ATOM      3  N   UNL     1     102.018 126.054  82.271  0.00  0.00    +0.000 NA
ENDROOT
BRANCH   3   4
ATOM      4  C   UNL     1     101.126 127.207  82.323  0.00  0.00    +0.000 C 
ATOM      5  C   UNL     1     101.448 128.047  83.564  0.00  0.00    +0.000 C 
ATOM      6  C   UNL     1     100.443 129.182  83.749  0.00  0.00    +0.000 C 
ATOM      7  C   UNL     1      99.010 128.659  83.806  0.00  0.00    +0.000 C 
ATOM      8  C   UNL     1      98.677 127.800  82.589  0.00  0.00    +0.000 C 
ATOM      9  C   UNL     1      99.688 126.672  82.403  0.00  0.00    +0.000 C 
ENDBRANCH   3   4
BRANCH   2  10
ATOM     10  C   UNL     1     103.824 124.760  81.528  0.00  0.00    +0.000 A 
ATOM     11  C   UNL     1     104.354 124.082  80.442  0.00  0.00    +0.000 A 
ATOM     12  C   UNL     1     105.058 122.901  80.812  0.00  0.00    +0.000 A 
ATOM     13  C   UNL     1     105.052 122.708  82.174  0.00  0.00    +0.000 A 
ATOM     14  S   UNL     1     104.208 123.948  82.991  0.00  0.00    +0.000 S 
ENDBRANCH   2  10
TORSDOF 2
ENDMDL
