MODEL 1
REMARK VINA RESULT:      -5.4      0.000      0.000
REMARK  Name = *****
REMARK  1 active torsions:
REMARK  status: ('A' for Active; 'I' for Inactive)
REMARK    1  A    between atoms: C_3  and  C_11
REMARK                            x       y       z     vdW  Elec       q    Type
REMARK                         _______ _______ _______ _____ _____    ______ ____
ROOT
ATOM      1  C   UNL     1     102.733 128.344  83.366  0.00  0.00    +0.000 C 
ATOM      2  C   UNL     1     103.505 127.549  82.305  0.00  0.00    +0.000 C 
ATOM      3  C   UNL     1     102.889 126.197  82.023  0.00  0.00    +0.000 C 
ATOM      4  C   UNL     1     101.566 125.994  82.174  0.00  0.00    +0.000 C 
ATOM      5  C   UNL     1     100.687 127.079  82.626  0.00  0.00    +0.000 A 
ATOM      6  C   UNL     1      99.298 126.956  82.519  0.00  0.00    +0.000 A 
ATOM      7  C   UNL     1      98.463 127.984  82.963  0.00  0.00    +0.000 A 
ATOM      8  C   UNL     1      99.012 129.136  83.525  0.00  0.00    +0.000 A 
ATOM      9  C   UNL     1     100.395 129.264  83.644  0.00  0.00    +0.000 A 
ATOM     10  C   UNL     1     101.239 128.245  83.187  0.00  0.00    +0.000 A 
ENDROOT
BRANCH   3  11
ATOM     11  C   UNL     1     103.773 125.119  81.532  0.00  0.00    +0.000 A 
ATOM     12  C   UNL     1     104.316 125.176  80.239  0.00  0.00    +0.000 A 
ATOM     13  C   UNL     1     105.162 124.165  79.777  0.00  0.00    +0.000 A 
ATOM     14  C   UNL     1     105.471 123.096  80.609  0.00  0.00    +0.000 A 
ATOM     15  C   UNL     1     104.951 123.019  81.894  0.00  0.00    +0.000 A 
ATOM     16  C   UNL     1     104.103 124.030  82.356  0.00  0.00    +0.000 A 
ATOM     17  F   UNL     1     106.282 122.127  80.165  0.00  0.00    +0.000 F 
ENDBRANCH   3  11
TORSDOF 1
ENDMDL
