MODEL 1
REMARK VINA RESULT:      -4.6      0.000      0.000
REMARK  Name = *****
REMARK  3 active torsions:
REMARK  status: ('A' for Active; 'I' for Inactive)
REMARK    1  A    between atoms: C_4  and  O_8
REMARK    2  A    between atoms: O_8  and  C_9
REMARK    3  A    between atoms: C_9  and  C_11
REMARK                            x       y       z     vdW  Elec       q    Type
REMARK                         _______ _______ _______ _____ _____    ______ ____
ROOT
ATOM      1  O   UNL     1     100.578 126.865  83.207  0.00  0.00    +0.000 OA
ENDROOT
BRANCH   1   5
ATOM      2  C   UNL     1     104.548 126.362  81.035  0.00  0.00    +0.000 C 
ATOM      3  C   UNL     1     103.228 125.644  80.777  0.00  0.00    +0.000 C 
ATOM      4  C   UNL     1     102.256 125.675  81.953  0.00  0.00    +0.000 C 
ATOM      5  C   UNL     1     101.611 127.042  82.213  0.00  0.00    +0.000 C 
ATOM      6  C   UNL     1     102.553 128.065  82.789  0.00  0.00    +0.000 C 
ATOM      7  C   UNL     1     103.754 128.423  82.313  0.00  0.00    +0.000 C 
ATOM      8  C   UNL     1     104.432 127.882  81.092  0.00  0.00    +0.000 C 
ENDBRANCH   1   5
BRANCH   1   9
ATOM      9  C   UNL     1      99.375 127.420  82.919  0.00  0.00    +0.000 C 
ATOM     10  O   UNL     1      98.610 127.058  82.039  0.00  0.00    +0.000 OA
BRANCH   9  11
ATOM     11  C   UNL     1      99.090 128.553  83.840  0.00  0.00    +0.000 A 
ATOM     12  C   UNL     1      99.481 129.841  83.445  0.00  0.00    +0.000 A 
ATOM     13  C   UNL     1      99.235 130.937  84.274  0.00  0.00    +0.000 A 
ATOM     14  C   UNL     1      98.597 130.756  85.500  0.00  0.00    +0.000 A 
ATOM     15  C   UNL     1      98.205 129.478  85.901  0.00  0.00    +0.000 A 
ATOM     16  C   UNL     1      98.449 128.379  85.075  0.00  0.00    +0.000 A 
ENDBRANCH   9  11
ENDBRANCH   1   9
TORSDOF 3
ENDMDL
