MODEL 1
REMARK VINA RESULT:      -4.9      0.000      0.000
REMARK  Name = *****
REMARK  3 active torsions:
REMARK  status: ('A' for Active; 'I' for Inactive)
REMARK    1  A    between atoms: C_4  and  C_7
REMARK    2  A    between atoms: C_8  and  C_9
REMARK    3  A    between atoms: C_14  and  C_15
REMARK                            x       y       z     vdW  Elec       q    Type
REMARK                         _______ _______ _______ _____ _____    ______ ____
ROOT
ATOM      1  C   UNL     1     102.522 126.542  82.483  0.00  0.00    +0.000 C 
ATOM      2  C   UNL     1     101.891 127.456  82.938  0.00  0.00    +0.000 C 
ENDROOT
BRANCH   1   6
ATOM      3  C   UNL     1     104.549 123.133  80.818  0.00  0.00    +0.000 C 
ATOM      4  C   UNL     1     104.682 124.459  80.077  0.00  0.00    +0.000 C 
ATOM      5  C   UNL     1     103.555 125.422  80.463  0.00  0.00    +0.000 C 
ATOM      6  C   UNL     1     103.287 125.463  81.947  0.00  0.00    +0.000 C 
ATOM      7  C   UNL     1     103.767 124.525  82.783  0.00  0.00    +0.000 C 
ATOM      8  C   UNL     1     104.574 123.342  82.333  0.00  0.00    +0.000 C 
ENDBRANCH   1   6
BRANCH   2   9
ATOM      9  C   UNL     1     101.155 128.557  83.487  0.00  0.00    +0.000 A 
ATOM     10  C   UNL     1     101.859 129.569  84.151  0.00  0.00    +0.000 A 
ATOM     11  C   UNL     1     101.179 130.658  84.700  0.00  0.00    +0.000 A 
ATOM     12  C   UNL     1      99.793 130.743  84.589  0.00  0.00    +0.000 A 
ATOM     13  C   UNL     1      99.084 129.738  83.929  0.00  0.00    +0.000 A 
ATOM     14  C   UNL     1      99.759 128.641  83.374  0.00  0.00    +0.000 A 
BRANCH  14  15
ATOM     15  C   UNL     1      98.998 127.628  82.700  0.00  0.00    +0.000 C 
ATOM     16  N   UNL     1      98.356 126.824  82.161  0.00  0.00    +0.000 NA
ENDBRANCH  14  15
ENDBRANCH   2   9
TORSDOF 3
ENDMDL
