MODEL 1
REMARK VINA RESULT:      -3.6      0.000      0.000
REMARK  Name = *****
REMARK  4 active torsions:
REMARK  status: ('A' for Active; 'I' for Inactive)
REMARK    1  A    between atoms: C_4  and  C_7
REMARK    2  A    between atoms: C_7  and  P_8
REMARK    3  A    between atoms: P_8  and  C_9
REMARK    4  A    between atoms: C_9  and  C_10
REMARK                            x       y       z     vdW  Elec       q    Type
REMARK                         _______ _______ _______ _____ _____    ______ ____
ROOT
ATOM      1  P   UNL     1      86.404  64.912  86.504  0.00  0.00    +0.000 P 
ENDROOT
BRANCH   1   2
ATOM      2  C   UNL     1      86.701  63.077  86.548  0.00  0.00    +0.000 C 
BRANCH   2   6
ATOM      3  C   UNL     1      84.276  61.722  89.853  0.00  0.00    +0.000 A 
ATOM      4  C   UNL     1      85.593  61.286  89.731  0.00  0.00    +0.000 A 
ATOM      5  C   UNL     1      86.376  61.717  88.658  0.00  0.00    +0.000 A 
ATOM      6  C   UNL     1      85.848  62.587  87.688  0.00  0.00    +0.000 A 
ATOM      7  C   UNL     1      84.517  63.019  87.828  0.00  0.00    +0.000 A 
ATOM      8  C   UNL     1      83.738  62.587  88.903  0.00  0.00    +0.000 A 
ENDBRANCH   2   6
ENDBRANCH   1   2
BRANCH   1   9
ATOM      9  C   UNL     1      87.996  65.379  87.342  0.00  0.00    +0.000 C 
BRANCH   9  10
ATOM     10  C   UNL     1      87.765  65.047  88.793  0.00  0.00    +0.000 A 
ATOM     11  C   UNL     1      86.627  65.525  89.467  0.00  0.00    +0.000 A 
ATOM     12  C   UNL     1      86.399  65.193  90.804  0.00  0.00    +0.000 A 
ATOM     13  C   UNL     1      87.300  64.377  91.484  0.00  0.00    +0.000 A 
ATOM     14  C   UNL     1      88.431  63.891  90.831  0.00  0.00    +0.000 A 
ATOM     15  C   UNL     1      88.661  64.222  89.494  0.00  0.00    +0.000 A 
ENDBRANCH   9  10
ENDBRANCH   1   9
TORSDOF 4
ENDMDL
