MODEL 1
REMARK VINA RESULT:      -4.5      0.000      0.000
REMARK  Name = *****
REMARK  5 active torsions:
REMARK  status: ('A' for Active; 'I' for Inactive)
REMARK    1  A    between atoms: C_1  and  O_2
REMARK    2  A    between atoms: O_2  and  P_3
REMARK    3  A    between atoms: P_3  and  C_5
REMARK    4  A    between atoms: P_3  and  O_11
REMARK    5  A    between atoms: O_11  and  C_12
REMARK                            x       y       z     vdW  Elec       q    Type
REMARK                         _______ _______ _______ _____ _____    ______ ____
ROOT
ATOM      1  P   UNL     1     102.849 125.585  84.032  0.00  0.00    +0.000 P 
ATOM      2  S   UNL     1     103.996 126.719  85.249  0.00  0.00    +0.000 S 
ENDROOT
BRANCH   1   3
ATOM      3  C   UNL     1     103.632 124.731  82.586  0.00  0.00    +0.000 A 
ATOM      4  C   UNL     1     103.598 125.349  81.325  0.00  0.00    +0.000 A 
ATOM      5  C   UNL     1     104.217 124.744  80.231  0.00  0.00    +0.000 A 
ATOM      6  C   UNL     1     104.873 123.523  80.385  0.00  0.00    +0.000 A 
ATOM      7  C   UNL     1     104.908 122.901  81.633  0.00  0.00    +0.000 A 
ATOM      8  C   UNL     1     104.289 123.500  82.730  0.00  0.00    +0.000 A 
ENDBRANCH   1   3
BRANCH   1  10
ATOM      9  C   UNL     1     103.053 124.460  86.418  0.00  0.00    +0.000 C 
ATOM     10  O   UNL     1     103.168 124.208  85.030  0.00  0.00    +0.000 OA
ENDBRANCH   1  10
BRANCH   1  11
ATOM     11  O   UNL     1     102.529 126.961  83.035  0.00  0.00    +0.000 OA
BRANCH  11  12
ATOM     12  C   UNL     1     101.263 127.487  83.036  0.00  0.00    +0.000 A 
ATOM     13  C   UNL     1     100.961 128.751  83.538  0.00  0.00    +0.000 A 
ATOM     14  C   UNL     1      99.640 129.201  83.503  0.00  0.00    +0.000 A 
ATOM     15  C   UNL     1      98.630 128.407  82.962  0.00  0.00    +0.000 A 
ATOM     16  C   UNL     1      98.943 127.150  82.443  0.00  0.00    +0.000 A 
ATOM     17  C   UNL     1     100.261 126.693  82.478  0.00  0.00    +0.000 A 
ATOM     18 CL   UNL     1      99.258 130.754  84.141  0.00  0.00    +0.000 Cl
ENDBRANCH  11  12
ENDBRANCH   1  11
TORSDOF 4
ENDMDL
