MODEL 1
REMARK VINA RESULT:      -4.2      0.000      0.000
REMARK  Name = *****
REMARK  5 active torsions:
REMARK  status: ('A' for Active; 'I' for Inactive)
REMARK    1  A    between atoms: C_1  and  O_2
REMARK    2  A    between atoms: O_2  and  C_3
REMARK    3  A    between atoms: C_6  and  C_9
REMARK    4  A    between atoms: C_9  and  N_10
REMARK    5  A    between atoms: N_10  and  C_11
REMARK                            x       y       z     vdW  Elec       q    Type
REMARK                         _______ _______ _______ _____ _____    ______ ____
ROOT
ATOM      1  C   UNL     1     105.895 122.762  80.963  0.00  0.00    +0.000 A 
ATOM      2  C   UNL     1     105.383 122.778  82.262  0.00  0.00    +0.000 A 
ATOM      3  C   UNL     1     104.364 123.676  82.604  0.00  0.00    +0.000 A 
ATOM      4  C   UNL     1     103.856 124.561  81.652  0.00  0.00    +0.000 A 
ATOM      5  C   UNL     1     104.373 124.556  80.358  0.00  0.00    +0.000 A 
ATOM      6  C   UNL     1     105.391 123.660  80.019  0.00  0.00    +0.000 A 
ENDROOT
BRANCH   1   8
ATOM      7  C   UNL     1     107.112 120.740  81.233  0.00  0.00    +0.000 C 
ATOM      8  O   UNL     1     106.878 121.934  80.498  0.00  0.00    +0.000 OA
ENDBRANCH   1   8
BRANCH   4   9
ATOM      9  C   UNL     1     102.799 125.459  82.001  0.00  0.00    +0.000 C 
BRANCH   9  10
ATOM     10  N   UNL     1     101.986 126.168  82.282  0.00  0.00    +0.000 NA
BRANCH  10  11
ATOM     11  C   UNL     1     100.979 127.044  82.645  0.00  0.00    +0.000 A 
ATOM     12  C   UNL     1     101.313 128.223  83.304  0.00  0.00    +0.000 A 
ATOM     13  C   UNL     1     100.298 129.111  83.657  0.00  0.00    +0.000 A 
ATOM     14  C   UNL     1      98.968 128.809  83.349  0.00  0.00    +0.000 A 
ATOM     15  C   UNL     1      98.650 127.621  82.688  0.00  0.00    +0.000 A 
ATOM     16  C   UNL     1      99.661 126.729  82.332  0.00  0.00    +0.000 A 
ENDBRANCH  10  11
ENDBRANCH   9  10
ENDBRANCH   4   9
TORSDOF 4
ENDMDL
