MODEL 1
REMARK VINA RESULT:      -4.0      0.000      0.000
REMARK  Name = *****
REMARK  5 active torsions:
REMARK  status: ('A' for Active; 'I' for Inactive)
REMARK    1  A    between atoms: C_1  and  C_2
REMARK    2  A    between atoms: C_4  and  C_16
REMARK    3  A    between atoms: C_6  and  O_8
REMARK    4  A    between atoms: O_8  and  C_9
REMARK    5  A    between atoms: C_9  and  C_10
REMARK                            x       y       z     vdW  Elec       q    Type
REMARK                         _______ _______ _______ _____ _____    ______ ____
ROOT
ATOM      1  C   UNL     1      87.077  68.924  88.616  0.00  0.00    +0.000 C 
ATOM      2  C   UNL     1      87.615  70.347  88.438  0.00  0.00    +0.000 C 
ATOM      3  C   UNL     1      86.479  71.375  88.326  0.00  0.00    +0.000 C 
ATOM      4  C   UNL     1      85.744  71.316  86.980  0.00  0.00    +0.000 C 
ATOM      5  C   UNL     1      86.735  71.437  85.818  0.00  0.00    +0.000 C 
ATOM      6  C   UNL     1      87.843  70.381  85.886  0.00  0.00    +0.000 C 
ATOM      7  C   UNL     1      88.565  70.446  87.238  0.00  0.00    +0.000 C 
ATOM      8  C   UNL     1      84.686  72.416  86.899  0.00  0.00    +0.000 C 
ENDROOT
BRANCH   6   9
ATOM      9  O   UNL     1      88.745  70.658  84.809  0.00  0.00    +0.000 OA
BRANCH   9  10
ATOM     10  C   UNL     1      89.966  69.919  84.873  0.00  0.00    +0.000 C 
BRANCH  10  11
ATOM     11  C   UNL     1      89.811  68.577  84.250  0.00  0.00    +0.000 A 
ATOM     12  C   UNL     1      89.776  67.355  84.886  0.00  0.00    +0.000 A 
ATOM     13  S   UNL     1      89.580  66.138  83.717  0.00  0.00    +0.000 S 
ATOM     14  N   UNL     1      89.530  67.239  82.455  0.00  0.00    +0.000 NA
ATOM     15  N   UNL     1      89.663  68.493  82.863  0.00  0.00    +0.000 NA
ATOM     16 CL   UNL     1      89.885  66.979  86.549  0.00  0.00    +0.000 Cl
ENDBRANCH  10  11
ENDBRANCH   9  10
ENDBRANCH   6   9
TORSDOF 3
ENDMDL
