MODEL 1
REMARK VINA RESULT:      -4.4      0.000      0.000
REMARK  Name = *****
REMARK  6 active torsions:
REMARK  status: ('A' for Active; 'I' for Inactive)
REMARK    1  A    between atoms: C_1  and  C_2
REMARK    2  A    between atoms: C_4  and  C_8
REMARK    3  A    between atoms: C_8  and  O_9
REMARK    4  A    between atoms: O_9  and  C_10
REMARK    5  A    between atoms: C_10  and  C_11
REMARK    6  A    between atoms: C_15  and  C_17
REMARK                            x       y       z     vdW  Elec       q    Type
REMARK                         _______ _______ _______ _____ _____    ______ ____
ROOT
ATOM      1  O   UNL     1      89.897  68.416  86.677  0.00  0.00    +0.000 OA
ENDROOT
BRANCH   1   2
ATOM      2  C   UNL     1      88.975  67.479  86.127  0.00  0.00    +0.000 C 
BRANCH   2   6
ATOM      3  C   UNL     1      88.489  63.545  89.277  0.00  0.00    +0.000 C 
ATOM      4  C   UNL     1      87.984  64.847  88.728  0.00  0.00    +0.000 A 
ATOM      5  C   UNL     1      88.694  65.531  87.733  0.00  0.00    +0.000 A 
ATOM      6  C   UNL     1      88.234  66.757  87.227  0.00  0.00    +0.000 A 
ATOM      7  C   UNL     1      87.028  67.278  87.716  0.00  0.00    +0.000 A 
ATOM      8  C   UNL     1      86.314  66.602  88.706  0.00  0.00    +0.000 A 
ATOM      9  C   UNL     1      86.791  65.393  89.211  0.00  0.00    +0.000 A 
ENDBRANCH   2   6
ENDBRANCH   1   2
BRANCH   1  10
ATOM     10  C   UNL     1      89.617  69.745  86.249  0.00  0.00    +0.000 C 
BRANCH  10  11
ATOM     11  C   UNL     1      88.571  70.375  87.137  0.00  0.00    +0.000 A 
ATOM     12  C   UNL     1      88.736  70.434  88.527  0.00  0.00    +0.000 A 
ATOM     13  C   UNL     1      87.742  70.983  89.338  0.00  0.00    +0.000 A 
ATOM     14  C   UNL     1      86.566  71.472  88.771  0.00  0.00    +0.000 A 
ATOM     15  C   UNL     1      86.373  71.414  87.386  0.00  0.00    +0.000 A 
ATOM     16  C   UNL     1      87.376  70.858  86.579  0.00  0.00    +0.000 A 
ATOM     17  C   UNL     1      85.107  71.922  86.763  0.00  0.00    +0.000 C 
ENDBRANCH  10  11
ENDBRANCH   1  10
TORSDOF 4
ENDMDL
