MODEL 1
REMARK VINA RESULT:      -4.0      0.000      0.000
REMARK  Name = *****
REMARK  4 active torsions:
REMARK  status: ('A' for Active; 'I' for Inactive)
REMARK    1  A    between atoms: C_6  and  C_7
REMARK    2  A    between atoms: C_8  and  C_9
REMARK    3  A    between atoms: C_9  and  S_10
REMARK    4  A    between atoms: S_10  and  C_11
REMARK                            x       y       z     vdW  Elec       q    Type
REMARK                         _______ _______ _______ _____ _____    ______ ____
ROOT
ATOM      1  C   UNL     1     101.266 126.984  82.418  0.00  0.00    +0.000 C 
ATOM      2  C   UNL     1      99.964 126.657  82.446  0.00  0.00    +0.000 C 
ENDROOT
BRANCH   1   8
ATOM      3  C   UNL     1     102.893 125.780  80.926  0.00  0.00    +0.000 A 
ATOM      4  C   UNL     1     103.903 124.830  80.752  0.00  0.00    +0.000 A 
ATOM      5  C   UNL     1     104.363 124.110  81.848  0.00  0.00    +0.000 A 
ATOM      6  C   UNL     1     103.830 124.319  83.113  0.00  0.00    +0.000 A 
ATOM      7  C   UNL     1     102.820 125.268  83.288  0.00  0.00    +0.000 A 
ATOM      8  C   UNL     1     102.351 126.017  82.198  0.00  0.00    +0.000 A 
ATOM      9  F   UNL     1     105.329 123.199  81.680  0.00  0.00    +0.000 F 
ENDBRANCH   1   8
BRANCH   2  10
ATOM     10  C   UNL     1      98.860 127.648  82.667  0.00  0.00    +0.000 C 
BRANCH  10  11
ATOM     11  S   UNL     1      98.944 128.254  84.366  0.00  0.00    +0.000 S 
BRANCH  11  12
ATOM     12  C   UNL     1      99.416 129.926  83.972  0.00  0.00    +0.000 C 
ATOM     13  F   UNL     1     100.747 130.114  84.131  0.00  0.00    +0.000 F 
ATOM     14  F   UNL     1      99.116 130.236  82.688  0.00  0.00    +0.000 F 
ATOM     15  F   UNL     1      98.782 130.821  84.764  0.00  0.00    +0.000 F 
ENDBRANCH  11  12
ENDBRANCH  10  11
ENDBRANCH   2  10
TORSDOF 4
ENDMDL
