MODEL 1
REMARK VINA RESULT:      -4.8      0.000      0.000
REMARK  Name = *****
REMARK  2 active torsions:
REMARK  status: ('A' for Active; 'I' for Inactive)
REMARK    1  A    between atoms: C_4  and  C_7
REMARK    2  A    between atoms: N_8  and  C_9
REMARK                            x       y       z     vdW  Elec       q    Type
REMARK                         _______ _______ _______ _____ _____    ______ ____
ROOT
ATOM      1  C   UNL     1     103.758 124.920  81.895  0.00  0.00    +0.000 A 
ATOM      2  C   UNL     1     104.065 123.856  82.758  0.00  0.00    +0.000 A 
ATOM      3  C   UNL     1     104.772 122.740  82.322  0.00  0.00    +0.000 A 
ATOM      4  C   UNL     1     105.175 122.674  80.995  0.00  0.00    +0.000 A 
ATOM      5  C   UNL     1     104.882 123.699  80.106  0.00  0.00    +0.000 A 
ATOM      6  C   UNL     1     104.174 124.808  80.562  0.00  0.00    +0.000 A 
ATOM      7  F   UNL     1     103.900 125.789  79.686  0.00  0.00    +0.000 F 
ATOM      8  F   UNL     1     105.855 121.604  80.566  0.00  0.00    +0.000 F 
ATOM      9  F   UNL     1     103.684 123.903  84.045  0.00  0.00    +0.000 F 
ENDROOT
BRANCH   1  11
ATOM     10  C   UNL     1     101.719 125.942  82.279  0.00  0.00    +0.000 C 
ATOM     11  N   UNL     1     103.009 126.043  82.305  0.00  0.00    +0.000 NA
BRANCH  10  15
ATOM     12  C   UNL     1      99.143 129.139  83.432  0.00  0.00    +0.000 A 
ATOM     13  C   UNL     1     100.511 129.231  83.687  0.00  0.00    +0.000 A 
ATOM     14  C   UNL     1     101.362 128.190  83.313  0.00  0.00    +0.000 A 
ATOM     15  C   UNL     1     100.839 127.057  82.683  0.00  0.00    +0.000 A 
ATOM     16  C   UNL     1      99.468 126.963  82.427  0.00  0.00    +0.000 A 
ATOM     17  C   UNL     1      98.621 128.007  82.802  0.00  0.00    +0.000 A 
ENDBRANCH  10  15
ENDBRANCH   1  11
TORSDOF 2
ENDMDL
