MODEL 1
REMARK VINA RESULT:      -3.9      0.000      0.000
REMARK  Name = *****
REMARK  3 active torsions:
REMARK  status: ('A' for Active; 'I' for Inactive)
REMARK    1  A    between atoms: C_6  and  S_8
REMARK    2  A    between atoms: S_8  and  C_10
REMARK    3  A    between atoms: C_10  and  C_11
REMARK                            x       y       z     vdW  Elec       q    Type
REMARK                         _______ _______ _______ _____ _____    ______ ____
ROOT
ATOM      1  S   UNL     1      95.627 116.901  82.889  0.00  0.00    +0.000 S 
ATOM      2  O   UNL     1      94.607 117.223  83.944  0.00  0.00    +0.000 OA
ENDROOT
BRANCH   1   8
ATOM      3  C   UNL     1      98.347 119.701  83.319  0.00  0.00    +0.000 C 
ATOM      4  C   UNL     1      97.328 120.517  82.506  0.00  0.00    +0.000 C 
ATOM      5  C   UNL     1      97.921 120.262  81.128  0.00  0.00    +0.000 C 
ATOM      6  C   UNL     1      98.402 119.000  81.129  0.00  0.00    +0.000 C 
ATOM      7  C   UNL     1      98.116 118.419  82.505  0.00  0.00    +0.000 C 
ATOM      8  C   UNL     1      96.610 118.339  82.691  0.00  0.00    +0.000 C 
ATOM      9  C   UNL     1      96.135 119.601  82.697  0.00  0.00    +0.000 C 
ENDBRANCH   1   8
BRANCH   1  10
ATOM     10  C   UNL     1      94.800 116.952  81.264  0.00  0.00    +0.000 C 
BRANCH  10  11
ATOM     11  C   UNL     1      95.754 116.661  80.134  0.00  0.00    +0.000 A 
ATOM     12  C   UNL     1      95.643 117.349  78.917  0.00  0.00    +0.000 A 
ATOM     13  C   UNL     1      96.521 117.080  77.867  0.00  0.00    +0.000 A 
ATOM     14  C   UNL     1      97.518 116.119  78.020  0.00  0.00    +0.000 A 
ATOM     15  C   UNL     1      97.635 115.424  79.223  0.00  0.00    +0.000 A 
ATOM     16  C   UNL     1      96.758 115.692  80.275  0.00  0.00    +0.000 A 
ENDBRANCH  10  11
ENDBRANCH   1  10
TORSDOF 3
ENDMDL
