MODEL 1
REMARK VINA RESULT:      -4.4      0.000      0.000
REMARK  Name = *****
REMARK  5 active torsions:
REMARK  status: ('A' for Active; 'I' for Inactive)
REMARK    1  A    between atoms: C_1  and  C_2
REMARK    2  A    between atoms: C_4  and  C_8
REMARK    3  A    between atoms: C_5  and  C_7
REMARK    4  A    between atoms: C_8  and  C_9
REMARK    5  A    between atoms: C_9  and  C_11
REMARK                            x       y       z     vdW  Elec       q    Type
REMARK                         _______ _______ _______ _____ _____    ______ ____
ROOT
ATOM      1  C   UNL     1      88.816  70.038  86.997  0.00  0.00    +0.000 C 
ENDROOT
BRANCH   1   5
ATOM      2  C   UNL     1      91.103  65.713  85.372  0.00  0.00    +0.000 C 
ATOM      3  C   UNL     1      90.117  66.633  86.004  0.00  0.00    +0.000 A 
ATOM      4  C   UNL     1      90.164  68.007  86.097  0.00  0.00    +0.000 A 
ATOM      5  C   UNL     1      89.024  68.565  86.768  0.00  0.00    +0.000 A 
ATOM      6  C   UNL     1      88.170  67.561  87.202  0.00  0.00    +0.000 A 
ATOM      7  S   UNL     1      88.713  66.005  86.739  0.00  0.00    +0.000 S 
ATOM      8  C   UNL     1      86.896  67.685  87.974  0.00  0.00    +0.000 C 
ENDBRANCH   1   5
BRANCH   1   9
ATOM      9  C   UNL     1      87.875  70.673  85.991  0.00  0.00    +0.000 C 
ATOM     10  O   UNL     1      88.148  70.685  84.789  0.00  0.00    +0.000 OA
BRANCH   9  11
ATOM     11  C   UNL     1      86.600  71.306  86.454  0.00  0.00    +0.000 A 
ATOM     12  C   UNL     1      85.651  71.836  85.572  0.00  0.00    +0.000 A 
ATOM     13  C   UNL     1      84.477  72.413  86.065  0.00  0.00    +0.000 A 
ATOM     14  C   UNL     1      84.241  72.462  87.438  0.00  0.00    +0.000 A 
ATOM     15  C   UNL     1      85.180  71.939  88.324  0.00  0.00    +0.000 A 
ATOM     16  C   UNL     1      86.355  71.364  87.834  0.00  0.00    +0.000 A 
ENDBRANCH   9  11
ENDBRANCH   1   9
TORSDOF 3
ENDMDL
