REMARK  Name = *****
REMARK  3 active torsions:
REMARK  status: ('A' for Active; 'I' for Inactive)
REMARK    1  A    between atoms: C_6  and  C_7
REMARK    2  A    between atoms: C_7  and  C_8
REMARK    3  A    between atoms: C_8  and  C_9
REMARK                            x       y       z     vdW  Elec       q    Type
REMARK                         _______ _______ _______ _____ _____    ______ ____
ROOT
ATOM      1  C   UNL     1       5.136  -1.455   0.095  0.00  0.00    +0.000 C 
ENDROOT
BRANCH   1   2
ATOM      2  C   UNL     1       6.645  -1.447   0.090  0.00  0.00    +0.000 A 
ATOM      3  C   UNL     1       7.359  -1.421   1.297  0.00  0.00    +0.000 A 
ATOM      4  C   UNL     1       8.751  -1.398   1.282  0.00  0.00    +0.000 A 
ATOM      5  C   UNL     1       9.442  -1.396   0.077  0.00  0.00    +0.000 A 
ATOM      6  C   UNL     1       8.750  -1.416  -1.129  0.00  0.00    +0.000 A 
ATOM      7  C   UNL     1       7.353  -1.439  -1.124  0.00  0.00    +0.000 A 
ATOM      8  F   UNL     1      10.782  -1.374   0.065  0.00  0.00    +0.000 F 
ATOM      9  F   UNL     1       9.420  -1.375   2.443  0.00  0.00    +0.000 F 
ENDBRANCH   1   2
BRANCH   1  10
ATOM     10  C   UNL     1       4.561  -0.036   0.057  0.00  0.00    +0.000 C 
BRANCH  10  16
ATOM     11  C   UNL     1       2.339  -0.086  -1.144  0.00  0.00    +0.000 A 
ATOM     12  C   UNL     1       0.942  -0.118  -1.140  0.00  0.00    +0.000 A 
ATOM     13  C   UNL     1       0.255  -0.117   0.072  0.00  0.00    +0.000 A 
ATOM     14  C   UNL     1       0.950  -0.085   1.279  0.00  0.00    +0.000 A 
ATOM     15  C   UNL     1       2.346  -0.053   1.273  0.00  0.00    +0.000 A 
ATOM     16  C   UNL     1       3.052  -0.048   0.062  0.00  0.00    +0.000 A 
ATOM     17 BR   UNL     1      -1.635  -0.162   0.079  0.00  0.00    +0.000 Br
ENDBRANCH  10  16
ENDBRANCH   1  10
TORSDOF 3
