REMARK  Name = *****
REMARK  4 active torsions:
REMARK  status: ('A' for Active; 'I' for Inactive)
REMARK    1  A    between atoms: C_1  and  C_2
REMARK    2  A    between atoms: C_2  and  C_11
REMARK    3  A    between atoms: N_3  and  C_4
REMARK    4  A    between atoms: C_14  and  C_17
REMARK                            x       y       z     vdW  Elec       q    Type
REMARK                         _______ _______ _______ _____ _____    ______ ____
ROOT
ATOM      1  C   UNL     1       0.918   0.456   0.565  0.00  0.00    +0.000 C 
ATOM      2  C   UNL     1       2.342   0.115   0.165  0.00  0.00    +0.000 C 
ATOM      3  N   UNL     1       2.966  -0.964   0.543  0.00  0.00    +0.000 NA
ENDROOT
BRANCH   3   4
ATOM      4  C   UNL     1       2.323  -1.904   1.356  0.00  0.00    +0.000 A 
ATOM      5  C   UNL     1       1.522  -2.902   0.789  0.00  0.00    +0.000 A 
ATOM      6  C   UNL     1       0.904  -3.854   1.601  0.00  0.00    +0.000 A 
ATOM      7  C   UNL     1       1.104  -3.813   2.976  0.00  0.00    +0.000 A 
ATOM      8  C   UNL     1       1.914  -2.842   3.553  0.00  0.00    +0.000 A 
ATOM      9  C   UNL     1       2.531  -1.891   2.739  0.00  0.00    +0.000 A 
ATOM     10  F   UNL     1       0.512  -4.727   3.756  0.00  0.00    +0.000 F 
ENDBRANCH   3   4
BRANCH   2  11
ATOM     11  C   UNL     1       3.067   1.070  -0.731  0.00  0.00    +0.000 A 
ATOM     12  C   UNL     1       4.466   1.114  -0.685  0.00  0.00    +0.000 A 
ATOM     13  C   UNL     1       5.174   1.990  -1.513  0.00  0.00    +0.000 A 
ATOM     14  C   UNL     1       4.494   2.835  -2.403  0.00  0.00    +0.000 A 
ATOM     15  C   UNL     1       3.093   2.769  -2.461  0.00  0.00    +0.000 A 
ATOM     16  C   UNL     1       2.384   1.893  -1.632  0.00  0.00    +0.000 A 
BRANCH  14  17
ATOM     17  C   UNL     1       5.256   3.764  -3.317  0.00  0.00    +0.000 C 
ATOM     18  F   UNL     1       6.469   4.133  -2.820  0.00  0.00    +0.000 F 
ATOM     19  F   UNL     1       5.503   3.206  -4.534  0.00  0.00    +0.000 F 
ATOM     20  F   UNL     1       4.589   4.925  -3.567  0.00  0.00    +0.000 F 
ENDBRANCH  14  17
ENDBRANCH   2  11
TORSDOF 3
