MODEL 1
REMARK VINA RESULT:      -4.2      0.000      0.000
REMARK  Name = *****
REMARK  4 active torsions:
REMARK  status: ('A' for Active; 'I' for Inactive)
REMARK    1  A    between atoms: N_2  and  C_3
REMARK    2  A    between atoms: C_6  and  O_9
REMARK    3  A    between atoms: O_9  and  C_10
REMARK    4  A    between atoms: C_10  and  C_11
REMARK                            x       y       z     vdW  Elec       q    Type
REMARK                         _______ _______ _______ _____ _____    ______ ____
ROOT
ATOM      1  C   UNL     1      89.893  66.561  86.254  0.00  0.00    +0.000 A 
ATOM      2  C   UNL     1      90.087  67.938  86.203  0.00  0.00    +0.000 A 
ATOM      3  C   UNL     1      89.145  68.773  86.804  0.00  0.00    +0.000 A 
ATOM      4  C   UNL     1      88.023  68.240  87.450  0.00  0.00    +0.000 A 
ATOM      5  C   UNL     1      87.846  66.854  87.493  0.00  0.00    +0.000 A 
ATOM      6  C   UNL     1      88.785  66.009  86.892  0.00  0.00    +0.000 A 
ENDROOT
BRANCH   1   8
ATOM      7  C   UNL     1      91.606  65.010  85.153  0.00  0.00    +0.000 C 
ATOM      8  N   UNL     1      90.822  65.721  85.658  0.00  0.00    +0.000 NA
ENDBRANCH   1   8
BRANCH   4   9
ATOM      9  O   UNL     1      87.186  69.175  87.992  0.00  0.00    +0.000 OA
BRANCH   9  10
ATOM     10  C   UNL     1      87.543  70.545  87.827  0.00  0.00    +0.000 C 
BRANCH  10  11
ATOM     11  C   UNL     1      86.373  71.262  87.200  0.00  0.00    +0.000 A 
ATOM     12  C   UNL     1      86.306  71.442  85.811  0.00  0.00    +0.000 A 
ATOM     13  C   UNL     1      85.227  72.116  85.235  0.00  0.00    +0.000 A 
ATOM     14  C   UNL     1      84.211  72.625  86.042  0.00  0.00    +0.000 A 
ATOM     15  C   UNL     1      84.274  72.465  87.425  0.00  0.00    +0.000 A 
ATOM     16  C   UNL     1      85.351  71.791  88.003  0.00  0.00    +0.000 A 
ENDBRANCH  10  11
ENDBRANCH   9  10
ENDBRANCH   4   9
TORSDOF 4
ENDMDL
