REMARK  Name = *****
REMARK  5 active torsions:
REMARK  status: ('A' for Active; 'I' for Inactive)
REMARK    1  A    between atoms: C_1  and  C_2
REMARK    2  A    between atoms: C_7  and  C_8
REMARK    3  A    between atoms: C_8  and  C_16
REMARK    4  A    between atoms: C_9  and  C_10
REMARK    5  A    between atoms: C_16  and  S_18
REMARK                            x       y       z     vdW  Elec       q    Type
REMARK                         _______ _______ _______ _____ _____    ______ ____
ROOT
ATOM      1  C   UNL     1       1.069  -2.422  -0.156  0.00  0.00    +0.000 C 
ATOM      2  C   UNL     1       0.540  -3.560   0.337  0.00  0.00    +0.000 C 
ENDROOT
BRANCH   1   9
ATOM      3  C   UNL     1       0.347  -0.949   2.382  0.00  0.00    +0.000 C 
ATOM      4  C   UNL     1      -0.077  -0.483   1.015  0.00  0.00    +0.000 A 
ATOM      5  C   UNL     1      -0.866   0.676   0.915  0.00  0.00    +0.000 A 
ATOM      6  C   UNL     1      -1.288   1.152  -0.326  0.00  0.00    +0.000 A 
ATOM      7  C   UNL     1      -0.934   0.474  -1.487  0.00  0.00    +0.000 A 
ATOM      8  C   UNL     1      -0.163  -0.685  -1.406  0.00  0.00    +0.000 A 
ATOM      9  C   UNL     1       0.268  -1.181  -0.163  0.00  0.00    +0.000 A 
ENDBRANCH   1   9
BRANCH   2  10
ATOM     10  C   UNL     1       1.196  -4.871   0.355  0.00  0.00    +0.000 A 
ATOM     11  C   UNL     1       1.504  -5.466   1.583  0.00  0.00    +0.000 A 
ATOM     12  C   UNL     1       2.125  -6.716   1.622  0.00  0.00    +0.000 A 
ATOM     13  C   UNL     1       2.435  -7.380   0.436  0.00  0.00    +0.000 A 
ATOM     14  C   UNL     1       2.123  -6.796  -0.791  0.00  0.00    +0.000 A 
ATOM     15  C   UNL     1       1.502  -5.546  -0.832  0.00  0.00    +0.000 A 
ENDBRANCH   2  10
BRANCH   1  16
ATOM     16  C   UNL     1       2.414  -2.420  -0.792  0.00  0.00    +0.000 C 
ATOM     17  O   UNL     1       2.587  -2.489  -2.002  0.00  0.00    +0.000 OA
BRANCH  16  18
ATOM     18  S   UNL     1       3.751  -2.250   0.324  0.00  0.00    +0.000 S 
ATOM     19  H   UNL     1       3.274  -2.199   1.597  0.00  0.00    +0.000 HD
ENDBRANCH  16  18
ENDBRANCH   1  16
TORSDOF 4
