MODEL 1
REMARK VINA RESULT:      -4.5      0.000      0.000
REMARK  Name = *****
REMARK  5 active torsions:
REMARK  status: ('A' for Active; 'I' for Inactive)
REMARK    1  A    between atoms: C_1  and  C_2
REMARK    2  A    between atoms: C_5  and  C_8
REMARK    3  A    between atoms: C_8  and  O_10
REMARK    4  A    between atoms: O_10  and  C_11
REMARK    5  A    between atoms: C_14  and  C_16
REMARK                            x       y       z     vdW  Elec       q    Type
REMARK                         _______ _______ _______ _____ _____    ______ ____
ROOT
ATOM      1  C   UNL     1      88.124  70.390  87.750  0.00  0.00    +0.000 C 
ATOM      2  O   UNL     1      88.599  70.416  88.875  0.00  0.00    +0.000 OA
ENDROOT
BRANCH   1   7
ATOM      3  C   UNL     1      83.120  73.085  86.558  0.00  0.00    +0.000 C 
ATOM      4  C   UNL     1      84.434  72.425  86.853  0.00  0.00    +0.000 A 
ATOM      5  C   UNL     1      85.282  72.036  85.808  0.00  0.00    +0.000 A 
ATOM      6  C   UNL     1      86.490  71.384  86.078  0.00  0.00    +0.000 A 
ATOM      7  C   UNL     1      86.860  71.101  87.399  0.00  0.00    +0.000 A 
ATOM      8  C   UNL     1      86.006  71.481  88.444  0.00  0.00    +0.000 A 
ATOM      9  C   UNL     1      84.801  72.133  88.172  0.00  0.00    +0.000 A 
ENDBRANCH   1   7
BRANCH   1  10
ATOM     10  O   UNL     1      88.601  69.750  86.658  0.00  0.00    +0.000 OA
BRANCH  10  11
ATOM     11  C   UNL     1      88.916  68.444  86.722  0.00  0.00    +0.000 A 
ATOM     12  N   UNL     1      90.198  68.160  86.477  0.00  0.00    +0.000 NA
ATOM     13  O   UNL     1      90.291  66.780  86.568  0.00  0.00    +0.000 OA
ATOM     14  C   UNL     1      89.065  66.264  86.858  0.00  0.00    +0.000 A 
ATOM     15  C   UNL     1      88.154  67.288  86.965  0.00  0.00    +0.000 A 
ATOM     16  C   UNL     1      88.973  64.799  86.978  0.00  0.00    +0.000 C 
ENDBRANCH  10  11
ENDBRANCH   1  10
TORSDOF 3
ENDMDL
