MODEL 1
REMARK VINA RESULT:      -4.6      0.000      0.000
REMARK  Name = *****
REMARK  2 active torsions:
REMARK  status: ('A' for Active; 'I' for Inactive)
REMARK    1  A    between atoms: C_6  and  C_7
REMARK    2  A    between atoms: C_8  and  C_10
REMARK                            x       y       z     vdW  Elec       q    Type
REMARK                         _______ _______ _______ _____ _____    ______ ____
ROOT
ATOM      1  C   UNL     1      87.874  65.202  87.363  0.00  0.00    +0.000 C 
ATOM      2  C   UNL     1      88.265  64.482  88.645  0.00  0.00    +0.000 C 
ATOM      3  O   UNL     1      88.850  64.148  87.376  0.00  0.00    +0.000 OA
ENDROOT
BRANCH   1   9
ATOM      4  C   UNL     1      87.624  67.715  87.582  0.00  0.00    +0.000 A 
ATOM      5  C   UNL     1      88.060  69.024  87.356  0.00  0.00    +0.000 A 
ATOM      6  C   UNL     1      89.244  69.246  86.659  0.00  0.00    +0.000 A 
ATOM      7  C   UNL     1      89.991  68.172  86.187  0.00  0.00    +0.000 A 
ATOM      8  C   UNL     1      89.548  66.866  86.417  0.00  0.00    +0.000 A 
ATOM      9  C   UNL     1      88.359  66.608  87.123  0.00  0.00    +0.000 A 
ATOM     10 CL   UNL     1      89.784  70.855  86.378  0.00  0.00    +0.000 Cl
ENDBRANCH   1   9
BRANCH   2  11
ATOM     11  C   UNL     1      87.309  63.495  89.263  0.00  0.00    +0.000 A 
ATOM     12  C   UNL     1      86.956  62.304  88.605  0.00  0.00    +0.000 A 
ATOM     13  C   UNL     1      86.073  61.386  89.184  0.00  0.00    +0.000 A 
ATOM     14  C   UNL     1      85.530  61.647  90.437  0.00  0.00    +0.000 A 
ATOM     15  C   UNL     1      85.865  62.815  91.116  0.00  0.00    +0.000 A 
ATOM     16  C   UNL     1      86.748  63.728  90.531  0.00  0.00    +0.000 A 
ATOM     17 CL   UNL     1      84.445  60.522  91.153  0.00  0.00    +0.000 Cl
ENDBRANCH   2  11
TORSDOF 2
ENDMDL
