REMARK  Name = *****
REMARK  4 active torsions:
REMARK  status: ('A' for Active; 'I' for Inactive)
REMARK    1  A    between atoms: C_3  and  C_4
REMARK    2  A    between atoms: C_5  and  C_10
REMARK    3  A    between atoms: C_7  and  C_8
REMARK    4  A    between atoms: C_11  and  C_12
REMARK                            x       y       z     vdW  Elec       q    Type
REMARK                         _______ _______ _______ _____ _____    ______ ____
ROOT
ATOM      1  C   UNL     1      -2.157  -0.570   0.034  0.00  0.00    +0.000 C 
ATOM      2  C   UNL     1      -3.298  -0.517   0.745  0.00  0.00    +0.000 C 
ATOM      3  C   UNL     1      -4.078  -0.751  -0.430  0.00  0.00    +0.000 C 
ATOM      4  C   UNL     1      -2.936  -0.802  -1.128  0.00  0.00    +0.000 C 
ENDROOT
BRANCH   1   7
ATOM      5  C   UNL     1       0.327   0.240  -0.519  0.00  0.00    +0.000 C 
ATOM      6  C   UNL     1       0.412  -1.232  -0.282  0.00  0.00    +0.000 C 
ATOM      7  C   UNL     1      -0.679  -0.429   0.391  0.00  0.00    +0.000 C 
ENDBRANCH   1   7
BRANCH   4   8
ATOM      8  C   UNL     1      -2.611  -1.014  -2.533  0.00  0.00    +0.000 C 
ATOM      9  O   UNL     1      -3.399  -1.209  -3.455  0.00  0.00    +0.000 OA
ENDBRANCH   4   8
BRANCH   2  10
ATOM     10  C   UNL     1      -3.740  -0.315   2.133  0.00  0.00    +0.000 C 
ATOM     11  C   UNL     1      -5.020  -0.325   2.537  0.00  0.00    +0.000 C 
BRANCH  11  12
ATOM     12  C   UNL     1      -5.440  -0.127   3.931  0.00  0.00    +0.000 A 
ATOM     13  C   UNL     1      -6.525  -0.866   4.422  0.00  0.00    +0.000 A 
ATOM     14  C   UNL     1      -6.974  -0.687   5.733  0.00  0.00    +0.000 A 
ATOM     15  C   UNL     1      -6.350   0.243   6.563  0.00  0.00    +0.000 A 
ATOM     16  C   UNL     1      -5.282   0.996   6.081  0.00  0.00    +0.000 A 
ATOM     17  C   UNL     1      -4.832   0.816   4.770  0.00  0.00    +0.000 A 
ENDBRANCH  11  12
ENDBRANCH   2  10
TORSDOF 4
