REMARK  Name = *****
REMARK  3 active torsions:
REMARK  status: ('A' for Active; 'I' for Inactive)
REMARK    1  A    between atoms: C_3  and  C_8
REMARK    2  A    between atoms: C_8  and  N_10
REMARK    3  A    between atoms: N_10  and  C_11
REMARK                            x       y       z     vdW  Elec       q    Type
REMARK                         _______ _______ _______ _____ _____    ______ ____
ROOT
ATOM      1  C   UNL     1       2.770   2.180  -0.728  0.00  0.00    +0.000 C 
ATOM      2  S   UNL     1       4.318   1.752  -1.208  0.00  0.00    +0.000 S 
ENDROOT
BRANCH   1   5
ATOM      3  C   UNL     1      -0.294  -0.030  -0.748  0.00  0.00    +0.000 A 
ATOM      4  C   UNL     1       0.633   0.950  -1.103  0.00  0.00    +0.000 A 
ATOM      5  C   UNL     1       1.804   1.108  -0.347  0.00  0.00    +0.000 A 
ATOM      6  C   UNL     1       2.044   0.296   0.767  0.00  0.00    +0.000 A 
ATOM      7  C   UNL     1       1.111  -0.679   1.111  0.00  0.00    +0.000 A 
ATOM      8  C   UNL     1      -0.054  -0.845   0.361  0.00  0.00    +0.000 A 
ATOM      9 CL   UNL     1       1.391  -1.682   2.480  0.00  0.00    +0.000 Cl
ENDBRANCH   1   5
BRANCH   1  10
ATOM     10  N   UNL     1       2.209   3.443  -0.578  0.00  0.00    +0.000 N 
ATOM     11  H   UNL     1       1.319   3.432  -0.157  0.00  0.00    +0.000 HD
BRANCH  10  12
ATOM     12  C   UNL     1       2.664   4.740  -0.912  0.00  0.00    +0.000 A 
ATOM     13  C   UNL     1       3.765   5.032  -1.719  0.00  0.00    +0.000 A 
ATOM     14  C   UNL     1       4.114   6.360  -1.998  0.00  0.00    +0.000 A 
ATOM     15  C   UNL     1       3.356   7.398  -1.477  0.00  0.00    +0.000 A 
ATOM     16  C   UNL     1       2.249   7.136  -0.685  0.00  0.00    +0.000 A 
ATOM     17  C   UNL     1       1.902   5.810  -0.409  0.00  0.00    +0.000 A 
ATOM     18  F   UNL     1       3.691   8.666  -1.748  0.00  0.00    +0.000 F 
ENDBRANCH  10  12
ENDBRANCH   1  10
TORSDOF 3
