MODEL 1
REMARK VINA RESULT:      -5.0      0.000      0.000
REMARK  Name = *****
REMARK  4 active torsions:
REMARK  status: ('A' for Active; 'I' for Inactive)
REMARK    1  A    between atoms: C_1  and  C_2
REMARK    2  A    between atoms: C_4  and  C_8
REMARK    3  A    between atoms: C_8  and  C_9
REMARK    4  A    between atoms: C_16  and  C_18
REMARK                            x       y       z     vdW  Elec       q    Type
REMARK                         _______ _______ _______ _____ _____    ______ ____
ROOT
ATOM      1  C   UNL     1      88.958  68.931  87.177  0.00  0.00    +0.000 A 
ATOM      2  N   UNL     1      90.078  68.598  86.558  0.00  0.00    +0.000 NA
ATOM      3  C   UNL     1      89.934  67.252  86.334  0.00  0.00    +0.000 A 
ATOM      4  C   UNL     1      88.721  66.817  86.841  0.00  0.00    +0.000 A 
ATOM      5  O   UNL     1      88.088  67.891  87.393  0.00  0.00    +0.000 OA
ATOM      6  C   UNL     1      88.262  65.508  86.778  0.00  0.00    +0.000 A 
ATOM      7  C   UNL     1      89.119  64.593  86.152  0.00  0.00    +0.000 A 
ATOM      8  C   UNL     1      90.369  64.980  85.633  0.00  0.00    +0.000 A 
ATOM      9  C   UNL     1      90.781  66.326  85.710  0.00  0.00    +0.000 A 
ATOM     10  C   UNL     1      91.241  63.974  84.939  0.00  0.00    +0.000 C 
ENDROOT
BRANCH   1  11
ATOM     11  C   UNL     1      88.539  70.266  87.683  0.00  0.00    +0.000 C 
BRANCH  11  15
ATOM     12  C   UNL     1      84.013  72.501  87.451  0.00  0.00    +0.000 C 
ATOM     13  C   UNL     1      85.228  71.950  86.765  0.00  0.00    +0.000 A 
ATOM     14  C   UNL     1      86.267  71.372  87.508  0.00  0.00    +0.000 A 
ATOM     15  C   UNL     1      87.422  70.888  86.876  0.00  0.00    +0.000 A 
ATOM     16  C   UNL     1      87.529  70.995  85.482  0.00  0.00    +0.000 A 
ATOM     17  C   UNL     1      86.504  71.578  84.738  0.00  0.00    +0.000 A 
ATOM     18  C   UNL     1      85.362  72.060  85.376  0.00  0.00    +0.000 A 
ENDBRANCH  11  15
ENDBRANCH   1  11
TORSDOF 2
ENDMDL
