MODEL 1
REMARK VINA RESULT:      -5.0      0.000      0.000
REMARK  Name = *****
REMARK  2 active torsions:
REMARK  status: ('A' for Active; 'I' for Inactive)
REMARK    1  A    between atoms: C_5  and  C_7
REMARK    2  A    between atoms: P_10  and  C_12
REMARK                            x       y       z     vdW  Elec       q    Type
REMARK                         _______ _______ _______ _____ _____    ______ ____
ROOT
ATOM      1  C   UNL     1     103.633 125.535  80.923  0.00  0.00    +0.000 C 
ATOM      2  C   UNL     1     104.450 126.814  80.676  0.00  0.00    +0.000 C 
ATOM      3  C   UNL     1     103.672 127.957  81.332  0.00  0.00    +0.000 C 
ATOM      4  P   UNL     1     103.125 127.285  82.975  0.00  0.00    +0.000 P 
ATOM      5  C   UNL     1     103.320 125.510  82.431  0.00  0.00    +0.000 C 
ENDROOT
BRANCH   1  10
ATOM      6  C   UNL     1     105.473 122.056  80.989  0.00  0.00    +0.000 C 
ATOM      7  C   UNL     1     106.802 122.593  80.459  0.00  0.00    +0.000 C 
ATOM      8  C   UNL     1     106.629 123.808  79.598  0.00  0.00    +0.000 C 
ATOM      9  C   UNL     1     105.496 124.524  79.555  0.00  0.00    +0.000 C 
ATOM     10  C   UNL     1     104.277 124.222  80.403  0.00  0.00    +0.000 C 
ATOM     11  C   UNL     1     104.588 123.188  81.508  0.00  0.00    +0.000 C 
ENDBRANCH   1  10
BRANCH   4  12
ATOM     12  C   UNL     1     101.322 127.525  82.955  0.00  0.00    +0.000 A 
ATOM     13  C   UNL     1     100.406 126.618  82.408  0.00  0.00    +0.000 A 
ATOM     14  C   UNL     1      99.032 126.876  82.440  0.00  0.00    +0.000 A 
ATOM     15  C   UNL     1      98.552 128.044  83.024  0.00  0.00    +0.000 A 
ATOM     16  C   UNL     1      99.446 128.957  83.574  0.00  0.00    +0.000 A 
ATOM     17  C   UNL     1     100.819 128.698  83.540  0.00  0.00    +0.000 A 
ENDBRANCH   4  12
TORSDOF 2
ENDMDL
