MODEL 1
REMARK VINA RESULT:      -5.1      0.000      0.000
REMARK  Name = *****
REMARK  2 active torsions:
REMARK  status: ('A' for Active; 'I' for Inactive)
REMARK    1  A    between atoms: C_1  and  N_2
REMARK    2  A    between atoms: C_11  and  C_13
REMARK                            x       y       z     vdW  Elec       q    Type
REMARK                         _______ _______ _______ _____ _____    ______ ____
ROOT
ATOM      1  C   UNL     1     104.983 122.934  84.466  0.00  0.00    +0.000 C 
ATOM      2  N   UNL     1     103.803 123.723  84.205  0.00  0.00    +0.000 NA
ATOM      3  C   UNL     1     103.557 124.337  83.103  0.00  0.00    +0.000 A 
ATOM      4  C   UNL     1     104.268 124.303  81.806  0.00  0.00    +0.000 A 
ATOM      5  C   UNL     1     105.115 123.265  81.398  0.00  0.00    +0.000 A 
ATOM      6  C   UNL     1     105.762 123.321  80.160  0.00  0.00    +0.000 A 
ATOM      7  C   UNL     1     105.550 124.403  79.313  0.00  0.00    +0.000 A 
ATOM      8  C   UNL     1     104.669 125.412  79.695  0.00  0.00    +0.000 A 
ATOM      9  C   UNL     1     104.014 125.359  80.931  0.00  0.00    +0.000 A 
ATOM     10  N   UNL     1     103.074 126.343  81.220  0.00  0.00    +0.000 NA
ATOM     11  C   UNL     1     102.342 126.156  82.268  0.00  0.00    +0.000 A 
ATOM     12  O   UNL     1     102.464 125.139  83.146  0.00  0.00    +0.000 OA
ENDROOT
BRANCH  11  13
ATOM     13  C   UNL     1     101.239 127.070  82.661  0.00  0.00    +0.000 A 
ATOM     14  C   UNL     1     101.480 128.284  83.322  0.00  0.00    +0.000 A 
ATOM     15  C   UNL     1     100.415 129.118  83.674  0.00  0.00    +0.000 A 
ATOM     16  C   UNL     1      99.106 128.747  83.368  0.00  0.00    +0.000 A 
ATOM     17  C   UNL     1      98.857 127.544  82.711  0.00  0.00    +0.000 A 
ATOM     18  C   UNL     1      99.919 126.708  82.358  0.00  0.00    +0.000 A 
ENDBRANCH  11  13
TORSDOF 1
ENDMDL
