MODEL 1
REMARK VINA RESULT:      -4.4      0.000      0.000
REMARK  Name = *****
REMARK  3 active torsions:
REMARK  status: ('A' for Active; 'I' for Inactive)
REMARK    1  A    between atoms: C_4  and  C_7
REMARK    2  A    between atoms: C_7  and  S_9
REMARK    3  A    between atoms: S_9  and  C_10
REMARK                            x       y       z     vdW  Elec       q    Type
REMARK                         _______ _______ _______ _____ _____    ______ ____
ROOT
ATOM      1  C   UNL     1      88.787  70.315  86.843  0.00  0.00    +0.000 C 
ATOM      2  F   UNL     1      90.014  70.896  86.685  0.00  0.00    +0.000 F 
ENDROOT
BRANCH   1   6
ATOM      3  C   UNL     1      89.026  66.000  86.876  0.00  0.00    +0.000 A 
ATOM      4  C   UNL     1      87.919  66.639  87.432  0.00  0.00    +0.000 A 
ATOM      5  C   UNL     1      87.840  68.033  87.424  0.00  0.00    +0.000 A 
ATOM      6  C   UNL     1      88.869  68.803  86.858  0.00  0.00    +0.000 A 
ATOM      7  C   UNL     1      89.975  68.146  86.298  0.00  0.00    +0.000 A 
ATOM      8  C   UNL     1      90.052  66.751  86.308  0.00  0.00    +0.000 A 
ENDBRANCH   1   6
BRANCH   1   9
ATOM      9  S   UNL     1      87.687  70.896  85.500  0.00  0.00    +0.000 S 
BRANCH   9  10
ATOM     10  C   UNL     1      86.309  71.479  86.468  0.00  0.00    +0.000 A 
ATOM     11  C   UNL     1      86.312  71.405  87.865  0.00  0.00    +0.000 A 
ATOM     12  C   UNL     1      85.221  71.878  88.599  0.00  0.00    +0.000 A 
ATOM     13  C   UNL     1      84.127  72.436  87.941  0.00  0.00    +0.000 A 
ATOM     14  C   UNL     1      84.124  72.527  86.551  0.00  0.00    +0.000 A 
ATOM     15  C   UNL     1      85.213  72.054  85.816  0.00  0.00    +0.000 A 
ENDBRANCH   9  10
ENDBRANCH   1   9
TORSDOF 3
ENDMDL
