MODEL 1
REMARK VINA RESULT:      -4.9      0.000      0.000
REMARK  Name = *****
REMARK  2 active torsions:
REMARK  status: ('A' for Active; 'I' for Inactive)
REMARK    1  A    between atoms: C_5  and  C_7
REMARK    2  A    between atoms: C_8  and  C_9
REMARK                            x       y       z     vdW  Elec       q    Type
REMARK                         _______ _______ _______ _____ _____    ______ ____
ROOT
ATOM      1  C   UNL     1     101.999 126.231  82.221  0.00  0.00    +0.000 C 
ATOM      2  C   UNL     1     102.869 125.476  81.882  0.00  0.00    +0.000 C 
ENDROOT
BRANCH   1   7
ATOM      3  C   UNL     1      98.575 127.611  82.707  0.00  0.00    +0.000 A 
ATOM      4  C   UNL     1      98.839 128.811  83.364  0.00  0.00    +0.000 A 
ATOM      5  C   UNL     1     100.155 129.173  83.653  0.00  0.00    +0.000 A 
ATOM      6  C   UNL     1     101.212 128.334  83.284  0.00  0.00    +0.000 A 
ATOM      7  C   UNL     1     100.953 127.125  82.622  0.00  0.00    +0.000 A 
ATOM      8  C   UNL     1      99.628 126.770  82.337  0.00  0.00    +0.000 A 
ATOM      9 BR   UNL     1     102.976 128.897  83.713  0.00  0.00    +0.000 Br
ENDBRANCH   1   7
BRANCH   2  10
ATOM     10  C   UNL     1     103.891 124.565  81.468  0.00  0.00    +0.000 A 
ATOM     11  C   UNL     1     104.310 123.548  82.333  0.00  0.00    +0.000 A 
ATOM     12  C   UNL     1     105.308 122.659  81.933  0.00  0.00    +0.000 A 
ATOM     13  C   UNL     1     105.879 122.794  80.672  0.00  0.00    +0.000 A 
ATOM     14  C   UNL     1     105.471 123.800  79.804  0.00  0.00    +0.000 A 
ATOM     15  C   UNL     1     104.472 124.691  80.203  0.00  0.00    +0.000 A 
ATOM     16  F   UNL     1     106.839 121.941  80.288  0.00  0.00    +0.000 F 
ENDBRANCH   2  10
TORSDOF 2
ENDMDL
