MODEL 1
REMARK VINA RESULT:      -4.3      0.000      0.000
REMARK  Name = *****
REMARK  5 active torsions:
REMARK  status: ('A' for Active; 'I' for Inactive)
REMARK    1  A    between atoms: C_1  and  C_2
REMARK    2  A    between atoms: C_5  and  S_8
REMARK    3  A    between atoms: S_8  and  O_10
REMARK    4  A    between atoms: O_10  and  C_11
REMARK    5  A    between atoms: C_11  and  C_17
REMARK                            x       y       z     vdW  Elec       q    Type
REMARK                         _______ _______ _______ _____ _____    ______ ____
ROOT
ATOM      1  S   UNL     1      89.994  67.957  85.430  0.00  0.00    +0.000 S 
ATOM      2  O   UNL     1      90.025  67.504  84.001  0.00  0.00    +0.000 OA
ENDROOT
BRANCH   1   7
ATOM      3  C   UNL     1      87.396  63.366  88.547  0.00  0.00    +0.000 C 
ATOM      4  C   UNL     1      88.024  64.487  87.774  0.00  0.00    +0.000 A 
ATOM      5  C   UNL     1      87.593  65.808  87.941  0.00  0.00    +0.000 A 
ATOM      6  C   UNL     1      88.187  66.845  87.215  0.00  0.00    +0.000 A 
ATOM      7  C   UNL     1      89.222  66.574  86.313  0.00  0.00    +0.000 A 
ATOM      8  C   UNL     1      89.660  65.255  86.152  0.00  0.00    +0.000 A 
ATOM      9  C   UNL     1      89.058  64.218  86.870  0.00  0.00    +0.000 A 
ENDBRANCH   1   7
BRANCH   1  10
ATOM     10  O   UNL     1      88.715  68.924  85.591  0.00  0.00    +0.000 OA
BRANCH  10  11
ATOM     11  C   UNL     1      88.941  70.336  85.738  0.00  0.00    +0.000 C 
ATOM     12  C   UNL     1      89.496  70.512  87.174  0.00  0.00    +0.000 C 
ATOM     13  C   UNL     1      88.467  70.145  88.247  0.00  0.00    +0.000 C 
ATOM     14  C   UNL     1      87.172  70.932  88.079  0.00  0.00    +0.000 C 
ATOM     15  C   UNL     1      86.607  70.794  86.670  0.00  0.00    +0.000 C 
ATOM     16  C   UNL     1      87.647  71.169  85.612  0.00  0.00    +0.000 C 
BRANCH  11  17
ATOM     17  C   UNL     1      89.972  70.818  84.784  0.00  0.00    +0.000 C 
ATOM     18  C   UNL     1      90.804  71.214  84.013  0.00  0.00    +0.000 C 
ENDBRANCH  11  17
ENDBRANCH  10  11
ENDBRANCH   1  10
TORSDOF 4
ENDMDL
