MODEL 1
REMARK VINA RESULT:      -4.6      0.000      0.000
REMARK  Name = *****
REMARK  3 active torsions:
REMARK  status: ('A' for Active; 'I' for Inactive)
REMARK    1  A    between atoms: C_2  and  C_9
REMARK    2  A    between atoms: C_9  and  O_10
REMARK    3  A    between atoms: O_10  and  C_11
REMARK                            x       y       z     vdW  Elec       q    Type
REMARK                         _______ _______ _______ _____ _____    ______ ____
ROOT
ATOM      1  C   UNL     1      89.292  69.076  85.880  0.00  0.00    +0.000 C 
ENDROOT
BRANCH   1   3
ATOM      2  C   UNL     1      88.930  69.987  88.213  0.00  0.00    +0.000 A 
ATOM      3  C   UNL     1      88.494  69.870  86.884  0.00  0.00    +0.000 A 
ATOM      4  C   UNL     1      87.320  70.535  86.504  0.00  0.00    +0.000 A 
ATOM      5  C   UNL     1      86.604  71.282  87.439  0.00  0.00    +0.000 A 
ATOM      6  C   UNL     1      87.033  71.391  88.754  0.00  0.00    +0.000 A 
ATOM      7  C   UNL     1      88.198  70.739  89.129  0.00  0.00    +0.000 A 
ATOM      8  F   UNL     1      88.629  70.836  90.394  0.00  0.00    +0.000 F 
ATOM      9  F   UNL     1      85.483  71.909  87.058  0.00  0.00    +0.000 F 
ENDBRANCH   1   3
BRANCH   1  10
ATOM     10  O   UNL     1      90.168  68.197  86.586  0.00  0.00    +0.000 OA
BRANCH  10  11
ATOM     11  C   UNL     1      89.992  66.854  86.406  0.00  0.00    +0.000 A 
ATOM     12  C   UNL     1      90.946  66.249  85.582  0.00  0.00    +0.000 A 
ATOM     13  C   UNL     1      90.882  64.882  85.316  0.00  0.00    +0.000 A 
ATOM     14  C   UNL     1      89.871  64.102  85.866  0.00  0.00    +0.000 A 
ATOM     15  C   UNL     1      88.924  64.706  86.688  0.00  0.00    +0.000 A 
ATOM     16  C   UNL     1      88.976  66.076  86.962  0.00  0.00    +0.000 A 
ATOM     17 CL   UNL     1      87.667  63.752  87.377  0.00  0.00    +0.000 Cl
ATOM     18 CL   UNL     1      92.063  64.154  84.298  0.00  0.00    +0.000 Cl
ENDBRANCH  10  11
ENDBRANCH   1  10
TORSDOF 3
ENDMDL
