REMARK  Name = *****
REMARK  7 active torsions:
REMARK  status: ('A' for Active; 'I' for Inactive)
REMARK    1  A    between atoms: C_1  and  C_2
REMARK    2  A    between atoms: C_2  and  C_4
REMARK    3  A    between atoms: C_5  and  C_12
REMARK    4  A    between atoms: C_7  and  O_10
REMARK    5  A    between atoms: O_10  and  C_11
REMARK    6  A    between atoms: C_12  and  C_13
REMARK    7  A    between atoms: C_13  and  C_14
REMARK                            x       y       z     vdW  Elec       q    Type
REMARK                         _______ _______ _______ _____ _____    ______ ____
ROOT
ATOM      1  C   UNL     1       3.382  -0.719   1.204  0.00  0.00    +0.000 A 
ATOM      2  C   UNL     1       3.002  -1.761   2.068  0.00  0.00    +0.000 A 
ATOM      3  C   UNL     1       3.822  -2.038   3.182  0.00  0.00    +0.000 A 
ATOM      4  C   UNL     1       4.990  -1.308   3.420  0.00  0.00    +0.000 A 
ATOM      5  C   UNL     1       5.353  -0.291   2.536  0.00  0.00    +0.000 A 
ATOM      6  C   UNL     1       4.560   0.002   1.428  0.00  0.00    +0.000 A 
ENDROOT
BRANCH   1   8
ATOM      7  C   UNL     1       1.269   0.340   0.246  0.00  0.00    +0.000 C 
ATOM      8  C   UNL     1       2.591  -0.339   0.016  0.00  0.00    +0.000 C 
ATOM      9  O   UNL     1       3.039  -0.559  -1.105  0.00  0.00    +0.000 OA
ENDBRANCH   1   8
BRANCH   4  10
ATOM     10  O   UNL     1       5.855  -1.491   4.463  0.00  0.00    +0.000 OA
ATOM     11  C   UNL     1       5.568  -2.555   5.362  0.00  0.00    +0.000 C 
ENDBRANCH   4  10
BRANCH   2  12
ATOM     12  C   UNL     1       1.775  -2.618   1.841  0.00  0.00    +0.000 C 
BRANCH  12  13
ATOM     13  C   UNL     1       0.610  -2.228   2.762  0.00  0.00    +0.000 C 
BRANCH  13  14
ATOM     14  C   UNL     1      -0.617  -3.112   2.694  0.00  0.00    +0.000 A 
ATOM     15  C   UNL     1      -0.962  -3.860   1.561  0.00  0.00    +0.000 A 
ATOM     16  C   UNL     1      -2.125  -4.636   1.545  0.00  0.00    +0.000 A 
ATOM     17  C   UNL     1      -2.966  -4.663   2.655  0.00  0.00    +0.000 A 
ATOM     18  C   UNL     1      -2.647  -3.911   3.782  0.00  0.00    +0.000 A 
ATOM     19  C   UNL     1      -1.484  -3.138   3.799  0.00  0.00    +0.000 A 
ENDBRANCH  13  14
ENDBRANCH  12  13
ENDBRANCH   2  12
TORSDOF 5
