MODEL 1
REMARK VINA RESULT:      -4.4      0.000      0.000
REMARK  Name = *****
REMARK  3 active torsions:
REMARK  status: ('A' for Active; 'I' for Inactive)
REMARK    1  A    between atoms: C_1  and  N_2
REMARK    2  A    between atoms: C_3  and  C_7
REMARK    3  A    between atoms: C_8  and  C_9
REMARK                            x       y       z     vdW  Elec       q    Type
REMARK                         _______ _______ _______ _____ _____    ______ ____
ROOT
ATOM      1  C   UNL     1     101.908 126.424  82.971  0.00  0.00    +0.000 C 
ATOM      2  C   UNL     1     102.833 126.257  82.012  0.00  0.00    +0.000 C 
ATOM      3 CL   UNL     1     103.180 127.404  80.775  0.00  0.00    +0.000 Cl
ENDROOT
BRANCH   2   4
ATOM      4  C   UNL     1     103.575 124.989  81.927  0.00  0.00    +0.000 A 
ATOM      5  C   UNL     1     104.052 124.526  80.691  0.00  0.00    +0.000 A 
ATOM      6  C   UNL     1     104.743 123.314  80.607  0.00  0.00    +0.000 A 
ATOM      7  C   UNL     1     104.961 122.561  81.758  0.00  0.00    +0.000 A 
ATOM      8  C   UNL     1     104.499 123.008  82.994  0.00  0.00    +0.000 A 
ATOM      9  C   UNL     1     103.807 124.221  83.078  0.00  0.00    +0.000 A 
ATOM     10 BR   UNL     1     105.894 120.922  81.644  0.00  0.00    +0.000 Br
ENDBRANCH   2   4
BRANCH   1  13
ATOM     11  C   UNL     1      98.910 126.738  82.385  0.00  0.00    +0.000 C 
ATOM     12  N   UNL     1      99.817 127.738  82.985  0.00  0.00    +0.000 NA
ATOM     13  C   UNL     1     101.085 127.630  83.195  0.00  0.00    +0.000 C 
ATOM     14  C   UNL     1     101.606 128.920  83.779  0.00  0.00    +0.000 C 
ATOM     15  C   UNL     1     100.344 129.551  84.343  0.00  0.00    +0.000 C 
ATOM     16  C   UNL     1      99.266 129.054  83.404  0.00  0.00    +0.000 C 
ENDBRANCH   1  13
TORSDOF 2
ENDMDL
