MODEL 1
REMARK VINA RESULT:      -4.4      0.000      0.000
REMARK  Name = *****
REMARK  6 active torsions:
REMARK  status: ('A' for Active; 'I' for Inactive)
REMARK    1  A    between atoms: C_1  and  O_2
REMARK    2  A    between atoms: O_2  and  C_3
REMARK    3  A    between atoms: C_6  and  C_9
REMARK    4  A    between atoms: C_10  and  C_11
REMARK    5  A    between atoms: C_14  and  O_17
REMARK    6  A    between atoms: O_17  and  C_18
REMARK                            x       y       z     vdW  Elec       q    Type
REMARK                         _______ _______ _______ _____ _____    ______ ____
ROOT
ATOM      1  C   UNL     1     103.020 125.548  82.838  0.00  0.00    +0.000 C 
ATOM      2  C   UNL     1     101.889 125.943  82.230  0.00  0.00    +0.000 C 
ENDROOT
BRANCH   1   6
ATOM      3  C   UNL     1     105.325 122.206  81.451  0.00  0.00    +0.000 A 
ATOM      4  C   UNL     1     105.021 122.321  82.807  0.00  0.00    +0.000 A 
ATOM      5  C   UNL     1     104.275 123.412  83.272  0.00  0.00    +0.000 A 
ATOM      6  C   UNL     1     103.833 124.408  82.392  0.00  0.00    +0.000 A 
ATOM      7  C   UNL     1     104.128 124.277  81.031  0.00  0.00    +0.000 A 
ATOM      8  C   UNL     1     104.873 123.188  80.567  0.00  0.00    +0.000 A 
BRANCH   3  10
ATOM      9  C   UNL     1     107.428 121.137  81.169  0.00  0.00    +0.000 C 
ATOM     10  O   UNL     1     106.040 121.197  80.868  0.00  0.00    +0.000 OA
ENDBRANCH   3  10
ENDBRANCH   1   6
BRANCH   2  11
ATOM     11  C   UNL     1     101.069 127.074  82.686  0.00  0.00    +0.000 A 
ATOM     12  C   UNL     1      99.677 127.098  82.534  0.00  0.00    +0.000 A 
ATOM     13  C   UNL     1      98.920 128.177  83.012  0.00  0.00    +0.000 A 
ATOM     14  C   UNL     1      99.547 129.242  83.658  0.00  0.00    +0.000 A 
ATOM     15  C   UNL     1     100.932 129.214  83.825  0.00  0.00    +0.000 A 
ATOM     16  C   UNL     1     101.688 128.138  83.349  0.00  0.00    +0.000 A 
BRANCH  14  17
ATOM     17  O   UNL     1      98.931 130.349  84.169  0.00  0.00    +0.000 OA
ATOM     18  C   UNL     1      99.656 131.571  84.114  0.00  0.00    +0.000 C 
ENDBRANCH  14  17
ENDBRANCH   2  11
TORSDOF 4
ENDMDL
