MODEL 1
REMARK VINA RESULT:      -4.9      0.000      0.000
REMARK  Name = *****
REMARK  6 active torsions:
REMARK  status: ('A' for Active; 'I' for Inactive)
REMARK    1  A    between atoms: C_1  and  C_2
REMARK    2  A    between atoms: C_4  and  C_17
REMARK    3  A    between atoms: C_5  and  C_8
REMARK    4  A    between atoms: C_8  and  O_9
REMARK    5  A    between atoms: O_9  and  O_10
REMARK    6  A    between atoms: O_10  and  C_11
REMARK                            x       y       z     vdW  Elec       q    Type
REMARK                         _______ _______ _______ _____ _____    ______ ____
ROOT
ATOM      1  C   UNL     1      89.299  69.954  87.179  0.00  0.00    +0.000 C 
ENDROOT
BRANCH   1   6
ATOM      2  C   UNL     1      84.087  72.570  87.212  0.00  0.00    +0.000 C 
ATOM      3  C   UNL     1      85.415  71.873  87.217  0.00  0.00    +0.000 A 
ATOM      4  C   UNL     1      86.061  71.579  88.425  0.00  0.00    +0.000 A 
ATOM      5  C   UNL     1      87.322  70.960  88.448  0.00  0.00    +0.000 A 
ATOM      6  C   UNL     1      87.946  70.622  87.230  0.00  0.00    +0.000 A 
ATOM      7  C   UNL     1      87.306  70.946  86.022  0.00  0.00    +0.000 A 
ATOM      8  C   UNL     1      86.056  71.567  86.016  0.00  0.00    +0.000 A 
ATOM      9  C   UNL     1      87.969  70.666  89.774  0.00  0.00    +0.000 C 
ENDBRANCH   1   6
BRANCH   1  10
ATOM     10  O   UNL     1      89.115  68.546  87.057  0.00  0.00    +0.000 OA
BRANCH  10  11
ATOM     11  O   UNL     1      90.328  68.046  86.416  0.00  0.00    +0.000 OA
BRANCH  11  12
ATOM     12  C   UNL     1      90.195  66.691  86.220  0.00  0.00    +0.000 A 
ATOM     13  C   UNL     1      91.070  65.923  85.450  0.00  0.00    +0.000 A 
ATOM     14  C   UNL     1      90.861  64.548  85.320  0.00  0.00    +0.000 A 
ATOM     15  C   UNL     1      89.783  63.940  85.964  0.00  0.00    +0.000 A 
ATOM     16  C   UNL     1      88.915  64.704  86.743  0.00  0.00    +0.000 A 
ATOM     17  C   UNL     1      89.124  66.077  86.874  0.00  0.00    +0.000 A 
ENDBRANCH  11  12
ENDBRANCH  10  11
ENDBRANCH   1  10
TORSDOF 4
ENDMDL
