REMARK  Name = *****
REMARK  6 active torsions:
REMARK  status: ('A' for Active; 'I' for Inactive)
REMARK    1  A    between atoms: C_1  and  C_2
REMARK    2  A    between atoms: C_2  and  O_3
REMARK    3  A    between atoms: O_3  and  S_4
REMARK    4  A    between atoms: S_4  and  N_5
REMARK    5  A    between atoms: S_4  and  C_13
REMARK    6  A    between atoms: N_5  and  C_6
REMARK                            x       y       z     vdW  Elec       q    Type
REMARK                         _______ _______ _______ _____ _____    ______ ____
ROOT
ATOM      1  S   UNL     1       4.787  -0.173   1.662  0.00  0.00    +0.000 S 
ATOM      2  O   UNL     1       5.207   1.212   1.639  0.00  0.00    +0.000 OA
ENDROOT
BRANCH   1   3
ATOM      3  C   UNL     1       5.338  -0.835   3.213  0.00  0.00    +0.000 A 
ATOM      4  C   UNL     1       6.576  -1.481   3.278  0.00  0.00    +0.000 A 
ATOM      5  C   UNL     1       7.004  -2.019   4.491  0.00  0.00    +0.000 A 
ATOM      6  C   UNL     1       6.200  -1.906   5.627  0.00  0.00    +0.000 A 
ATOM      7  C   UNL     1       4.966  -1.255   5.557  0.00  0.00    +0.000 A 
ATOM      8  C   UNL     1       4.529  -0.715   4.347  0.00  0.00    +0.000 A 
ENDBRANCH   1   3
BRANCH   1   9
ATOM      9  O   UNL     1       3.160  -0.213   1.726  0.00  0.00    +0.000 OA
BRANCH   9  11
ATOM     10  C   UNL     1       0.974   0.264   0.914  0.00  0.00    +0.000 C 
ATOM     11  C   UNL     1       2.443   0.628   0.835  0.00  0.00    +0.000 C 
ENDBRANCH   9  11
ENDBRANCH   1   9
BRANCH   1  12
ATOM     12  N   UNL     1       4.993  -1.215   0.560  0.00  0.00    +0.000 NA
BRANCH  12  13
ATOM     13  C   UNL     1       4.551  -2.571   0.506  0.00  0.00    +0.000 A 
ATOM     14  C   UNL     1       3.737  -3.201   1.449  0.00  0.00    +0.000 A 
ATOM     15  C   UNL     1       3.373  -4.544   1.292  0.00  0.00    +0.000 A 
ATOM     16  C   UNL     1       3.819  -5.266   0.187  0.00  0.00    +0.000 A 
ATOM     17  C   UNL     1       4.627  -4.647  -0.763  0.00  0.00    +0.000 A 
ATOM     18  C   UNL     1       4.987  -3.306  -0.601  0.00  0.00    +0.000 A 
ENDBRANCH  12  13
ENDBRANCH   1  12
TORSDOF 5
