MODEL 1
REMARK VINA RESULT:      -4.5      0.000      0.000
REMARK  Name = *****
REMARK  3 active torsions:
REMARK  status: ('A' for Active; 'I' for Inactive)
REMARK    1  A    between atoms: C_4  and  C_7
REMARK    2  A    between atoms: C_7  and  C_8
REMARK    3  A    between atoms: C_8  and  C_9
REMARK                            x       y       z     vdW  Elec       q    Type
REMARK                         _______ _______ _______ _____ _____    ______ ____
ROOT
ATOM      1  C   UNL     1      87.706  70.702  85.738  0.00  0.00    +0.000 C 
ATOM      2 CL   UNL     1      88.397  71.902  84.591  0.00  0.00    +0.000 Cl
ENDROOT
BRANCH   1   3
ATOM      3  C   UNL     1      86.508  71.320  86.437  0.00  0.00    +0.000 A 
ATOM      4  C   UNL     1      86.391  71.327  87.837  0.00  0.00    +0.000 A 
ATOM      5  C   UNL     1      85.275  71.892  88.456  0.00  0.00    +0.000 A 
ATOM      6  C   UNL     1      84.261  72.457  87.687  0.00  0.00    +0.000 A 
ATOM      7  C   UNL     1      84.363  72.463  86.298  0.00  0.00    +0.000 A 
ATOM      8  C   UNL     1      85.479  71.900  85.676  0.00  0.00    +0.000 A 
ENDBRANCH   1   3
BRANCH   1   9
ATOM      9  C   UNL     1      88.770  70.205  86.735  0.00  0.00    +0.000 C 
BRANCH   9  13
ATOM     10  C   UNL     1      89.067  65.901  86.888  0.00  0.00    +0.000 A 
ATOM     11  C   UNL     1      90.090  66.650  86.309  0.00  0.00    +0.000 A 
ATOM     12  C   UNL     1      89.997  68.042  86.263  0.00  0.00    +0.000 A 
ATOM     13  C   UNL     1      88.880  68.697  86.796  0.00  0.00    +0.000 A 
ATOM     14  C   UNL     1      87.856  67.934  87.375  0.00  0.00    +0.000 A 
ATOM     15  C   UNL     1      87.950  66.543  87.421  0.00  0.00    +0.000 A 
ENDBRANCH   9  13
ENDBRANCH   1   9
TORSDOF 3
ENDMDL
