REMARK  Name = *****
REMARK  4 active torsions:
REMARK  status: ('A' for Active; 'I' for Inactive)
REMARK    1  A    between atoms: C_2  and  C_3
REMARK    2  A    between atoms: C_2  and  O_9
REMARK    3  A    between atoms: O_9  and  C_10
REMARK    4  A    between atoms: C_10  and  C_12
REMARK                            x       y       z     vdW  Elec       q    Type
REMARK                         _______ _______ _______ _____ _____    ______ ____
ROOT
ATOM      1  O   UNL     1       3.101   1.367   0.154  0.00  0.00    +0.000 OA
ENDROOT
BRANCH   1   3
ATOM      2  C   UNL     1       1.003   0.241   0.291  0.00  0.00    +0.000 C 
ATOM      3  C   UNL     1       2.338   0.191   0.180  0.00  0.00    +0.000 C 
BRANCH   3   4
ATOM      4  C   UNL     1       3.105  -1.067   0.196  0.00  0.00    +0.000 A 
ATOM      5  C   UNL     1       2.733  -2.153  -0.610  0.00  0.00    +0.000 A 
ATOM      6  C   UNL     1       3.475  -3.336  -0.597  0.00  0.00    +0.000 A 
ATOM      7  C   UNL     1       4.600  -3.446   0.218  0.00  0.00    +0.000 A 
ATOM      8  C   UNL     1       4.986  -2.373   1.018  0.00  0.00    +0.000 A 
ATOM      9  C   UNL     1       4.245  -1.188   1.004  0.00  0.00    +0.000 A 
ENDBRANCH   3   4
ENDBRANCH   1   3
BRANCH   1  10
ATOM     10  C   UNL     1       3.356   1.811  -1.113  0.00  0.00    +0.000 C 
ATOM     11  O   UNL     1       2.959   1.334  -2.166  0.00  0.00    +0.000 OA
BRANCH  10  12
ATOM     12  C   UNL     1       4.222   3.024  -1.056  0.00  0.00    +0.000 A 
ATOM     13  C   UNL     1       4.646   3.598   0.152  0.00  0.00    +0.000 A 
ATOM     14  C   UNL     1       5.459   4.737   0.143  0.00  0.00    +0.000 A 
ATOM     15  C   UNL     1       5.849   5.304  -1.069  0.00  0.00    +0.000 A 
ATOM     16  C   UNL     1       5.435   4.743  -2.275  0.00  0.00    +0.000 A 
ATOM     17  C   UNL     1       4.623   3.605  -2.269  0.00  0.00    +0.000 A 
ATOM     18 CL   UNL     1       6.849   6.703  -1.075  0.00  0.00    +0.000 Cl
ENDBRANCH  10  12
ENDBRANCH   1  10
TORSDOF 4
