MODEL 1
REMARK VINA RESULT:      -4.7      0.000      0.000
REMARK  Name = *****
REMARK  6 active torsions:
REMARK  status: ('A' for Active; 'I' for Inactive)
REMARK    1  A    between atoms: C_1  and  C_2
REMARK    2  A    between atoms: C_2  and  C_3
REMARK    3  A    between atoms: C_2  and  C_4
REMARK    4  A    between atoms: C_4  and  C_5
REMARK    5  A    between atoms: C_4  and  C_11
REMARK    6  A    between atoms: C_11  and  C_13
REMARK                            x       y       z     vdW  Elec       q    Type
REMARK                         _______ _______ _______ _____ _____    ______ ____
ROOT
ATOM      1  C   UNL     1      88.384  70.702  85.237  0.00  0.00    +0.000 C 
ENDROOT
BRANCH   1   2
ATOM      2  C   UNL     1      89.395  71.525  84.445  0.00  0.00    +0.000 A 
ATOM      3  C   UNL     1      89.105  72.819  83.986  0.00  0.00    +0.000 A 
ATOM      4  C   UNL     1      90.052  73.546  83.262  0.00  0.00    +0.000 A 
ATOM      5  C   UNL     1      91.297  72.988  82.981  0.00  0.00    +0.000 A 
ATOM      6  C   UNL     1      91.595  71.700  83.419  0.00  0.00    +0.000 A 
ATOM      7  C   UNL     1      90.651  70.971  84.144  0.00  0.00    +0.000 A 
ENDBRANCH   1   2
BRANCH   1   9
ATOM      8  C   UNL     1      86.007  71.118  84.396  0.00  0.00    +0.000 C 
ATOM      9  C   UNL     1      87.050  71.476  85.462  0.00  0.00    +0.000 C 
ATOM     10  C   UNL     1      86.437  71.338  86.860  0.00  0.00    +0.000 C 
ENDBRANCH   1   9
BRANCH   1  11
ATOM     11  C   UNL     1      88.979  70.084  86.514  0.00  0.00    +0.000 C 
ATOM     12  O   UNL     1      89.504  70.761  87.397  0.00  0.00    +0.000 OA
BRANCH  11  13
ATOM     13  C   UNL     1      88.925  68.600  86.706  0.00  0.00    +0.000 A 
ATOM     14  C   UNL     1      87.867  67.954  87.356  0.00  0.00    +0.000 A 
ATOM     15  C   UNL     1      87.878  66.564  87.506  0.00  0.00    +0.000 A 
ATOM     16  C   UNL     1      88.940  65.811  87.008  0.00  0.00    +0.000 A 
ATOM     17  C   UNL     1      89.993  66.444  86.351  0.00  0.00    +0.000 A 
ATOM     18  C   UNL     1      89.984  67.832  86.198  0.00  0.00    +0.000 A 
ENDBRANCH  11  13
ENDBRANCH   1  11
TORSDOF 4
ENDMDL
