MODEL 1
REMARK VINA RESULT:      -3.7      0.000      0.000
REMARK  Name = *****
REMARK  5 active torsions:
REMARK  status: ('A' for Active; 'I' for Inactive)
REMARK    1  A    between atoms: C_1  and  C_2
REMARK    2  A    between atoms: C_5  and  C_7
REMARK    3  A    between atoms: C_7  and  N_8
REMARK    4  A    between atoms: N_8  and  C_9
REMARK    5  A    between atoms: C_12  and  C_14
REMARK                            x       y       z     vdW  Elec       q    Type
REMARK                         _______ _______ _______ _____ _____    ______ ____
ROOT
ATOM      1  C   UNL     1     101.572 126.045  83.736  0.00  0.00    +0.000 C 
ENDROOT
BRANCH   1   6
ATOM      2  C   UNL     1      99.404 130.858  83.803  0.00  0.00    +0.000 C 
ATOM      3  C   UNL     1      99.665 129.410  83.567  0.00  0.00    +0.000 A 
ATOM      4  C   UNL     1      98.880 128.494  82.898  0.00  0.00    +0.000 A 
ATOM      5  C   UNL     1      99.466 127.194  82.880  0.00  0.00    +0.000 A 
ATOM      6  C   UNL     1     100.680 127.161  83.535  0.00  0.00    +0.000 A 
ATOM      7  S   UNL     1     101.101 128.693  84.163  0.00  0.00    +0.000 S 
ENDBRANCH   1   6
BRANCH   1   8
ATOM      8  N   UNL     1     102.848 126.181  83.551  0.00  0.00    +0.000 NA
BRANCH   8   9
ATOM      9  C   UNL     1     103.324 125.534  82.457  0.00  0.00    +0.000 A 
ATOM     10  C   UNL     1     103.279 125.919  81.131  0.00  0.00    +0.000 A 
ATOM     11  C   UNL     1     103.901 124.981  80.257  0.00  0.00    +0.000 A 
ATOM     12  C   UNL     1     104.426 123.906  80.942  0.00  0.00    +0.000 A 
ATOM     13  S   UNL     1     104.163 124.045  82.627  0.00  0.00    +0.000 S 
ATOM     14  C   UNL     1     105.159 122.728  80.401  0.00  0.00    +0.000 C 
ENDBRANCH   8   9
ENDBRANCH   1   8
TORSDOF 3
ENDMDL
