MODEL 1
REMARK VINA RESULT:      -4.6      0.000      0.000
REMARK  Name = *****
REMARK  4 active torsions:
REMARK  status: ('A' for Active; 'I' for Inactive)
REMARK    1  A    between atoms: C_1  and  C_2
REMARK    2  A    between atoms: C_5  and  C_8
REMARK    3  A    between atoms: C_8  and  C_10
REMARK    4  A    between atoms: C_10  and  C_11
REMARK                            x       y       z     vdW  Elec       q    Type
REMARK                         _______ _______ _______ _____ _____    ______ ____
ROOT
ATOM      1  C   UNL     1      87.022  69.479  88.305  0.00  0.00    +0.000 C 
ATOM      2  O   UNL     1      86.159  68.946  89.003  0.00  0.00    +0.000 OA
ENDROOT
BRANCH   1   7
ATOM      3  C   UNL     1      90.751  65.993  85.580  0.00  0.00    +0.000 C 
ATOM      4  C   UNL     1      89.804  66.903  86.305  0.00  0.00    +0.000 A 
ATOM      5  C   UNL     1      90.023  68.287  86.322  0.00  0.00    +0.000 A 
ATOM      6  C   UNL     1      89.123  69.140  86.968  0.00  0.00    +0.000 A 
ATOM      7  C   UNL     1      87.997  68.610  87.601  0.00  0.00    +0.000 A 
ATOM      8  C   UNL     1      87.752  67.234  87.557  0.00  0.00    +0.000 A 
ATOM      9  C   UNL     1      88.653  66.385  86.912  0.00  0.00    +0.000 A 
ENDBRANCH   1   7
BRANCH   1  10
ATOM     10  C   UNL     1      87.085  70.985  88.124  0.00  0.00    +0.000 C 
BRANCH  10  11
ATOM     11  C   UNL     1      85.869  71.614  87.467  0.00  0.00    +0.000 A 
ATOM     12  C   UNL     1      85.780  71.728  86.063  0.00  0.00    +0.000 A 
ATOM     13  C   UNL     1      84.657  72.293  85.448  0.00  0.00    +0.000 A 
ATOM     14  C   UNL     1      83.601  72.770  86.215  0.00  0.00    +0.000 A 
ATOM     15  C   UNL     1      83.675  72.693  87.601  0.00  0.00    +0.000 A 
ATOM     16  C   UNL     1      84.796  72.128  88.223  0.00  0.00    +0.000 A 
ATOM     17 CL   UNL     1      84.787  72.120  89.954  0.00  0.00    +0.000 Cl
ATOM     18 CL   UNL     1      87.053  71.208  85.013  0.00  0.00    +0.000 Cl
ENDBRANCH  10  11
ENDBRANCH   1  10
TORSDOF 3
ENDMDL
