REMARK  Name = *****
REMARK  5 active torsions:
REMARK  status: ('A' for Active; 'I' for Inactive)
REMARK    1  A    between atoms: C_4  and  C_7
REMARK    2  A    between atoms: C_7  and  C_8
REMARK    3  A    between atoms: C_8  and  C_9
REMARK    4  A    between atoms: C_14  and  C_15
REMARK    5  A    between atoms: C_15  and  C_16
REMARK                            x       y       z     vdW  Elec       q    Type
REMARK                         _______ _______ _______ _____ _____    ______ ____
ROOT
ATOM      1  C   UNL     1      -5.053  -0.447  -0.451  0.00  0.00    +0.000 A 
ATOM      2  C   UNL     1      -5.787  -0.233   0.732  0.00  0.00    +0.000 A 
ATOM      3  C   UNL     1      -7.083   0.277   0.699  0.00  0.00    +0.000 A 
ATOM      4  C   UNL     1      -7.672   0.581  -0.520  0.00  0.00    +0.000 A 
ATOM      5  C   UNL     1      -6.967   0.368  -1.704  0.00  0.00    +0.000 A 
ATOM      6  C   UNL     1      -5.650  -0.139  -1.695  0.00  0.00    +0.000 A 
ENDROOT
BRANCH   1   7
ATOM      7  C   UNL     1      -3.624  -0.934  -0.298  0.00  0.00    +0.000 C 
BRANCH   7   8
ATOM      8  C   UNL     1      -2.658   0.254  -0.194  0.00  0.00    +0.000 C 
BRANCH   8  12
ATOM      9  C   UNL     1       1.574  -0.461   0.337  0.00  0.00    +0.000 A 
ATOM     10  C   UNL     1       0.697  -1.544   0.358  0.00  0.00    +0.000 A 
ATOM     11  C   UNL     1      -0.676  -1.344   0.183  0.00  0.00    +0.000 A 
ATOM     12  C   UNL     1      -1.188  -0.056  -0.019  0.00  0.00    +0.000 A 
ATOM     13  C   UNL     1      -0.289   1.024  -0.035  0.00  0.00    +0.000 A 
ATOM     14  C   UNL     1       1.081   0.824   0.140  0.00  0.00    +0.000 A 
ENDBRANCH   8  12
ENDBRANCH   7   8
ENDBRANCH   1   7
BRANCH   6  15
ATOM     15  C   UNL     1      -4.959  -0.339  -3.031  0.00  0.00    +0.000 C 
BRANCH  15  16
ATOM     16  C   UNL     1      -4.780   0.911  -3.790  0.00  0.00    +0.000 C 
ATOM     17  N   UNL     1      -4.642   1.881  -4.412  0.00  0.00    +0.000 NA
ENDBRANCH  15  16
ENDBRANCH   6  15
TORSDOF 5
