MODEL 1
REMARK VINA RESULT:      -4.6      0.000      0.000
REMARK  Name = *****
REMARK  4 active torsions:
REMARK  status: ('A' for Active; 'I' for Inactive)
REMARK    1  A    between atoms: C_1  and  O_2
REMARK    2  A    between atoms: O_2  and  C_3
REMARK    3  A    between atoms: C_6  and  C_9
REMARK    4  A    between atoms: C_10  and  C_11
REMARK                            x       y       z     vdW  Elec       q    Type
REMARK                         _______ _______ _______ _____ _____    ______ ____
ROOT
ATOM      1  C   UNL     1     105.968 122.745  80.693  0.00  0.00    +0.000 A 
ATOM      2  C   UNL     1     105.509 123.727  79.814  0.00  0.00    +0.000 A 
ATOM      3  C   UNL     1     104.495 124.607  80.210  0.00  0.00    +0.000 A 
ATOM      4  C   UNL     1     103.937 124.511  81.486  0.00  0.00    +0.000 A 
ATOM      5  C   UNL     1     104.393 123.531  82.367  0.00  0.00    +0.000 A 
ATOM      6  C   UNL     1     105.404 122.653  81.969  0.00  0.00    +0.000 A 
ENDROOT
BRANCH   1   8
ATOM      7  C   UNL     1     108.215 122.334  80.034  0.00  0.00    +0.000 C 
ATOM      8  O   UNL     1     106.948 121.827  80.435  0.00  0.00    +0.000 OA
ENDBRANCH   1   8
BRANCH   4   9
ATOM      9  C   UNL     1     102.902 125.412  81.887  0.00  0.00    +0.000 C 
ATOM     10  C   UNL     1     102.033 126.171  82.223  0.00  0.00    +0.000 C 
BRANCH  10  11
ATOM     11  C   UNL     1     100.999 127.074  82.625  0.00  0.00    +0.000 A 
ATOM     12  C   UNL     1     101.322 128.255  83.296  0.00  0.00    +0.000 A 
ATOM     13  C   UNL     1     100.312 129.135  83.688  0.00  0.00    +0.000 A 
ATOM     14  C   UNL     1      98.978 128.836  83.409  0.00  0.00    +0.000 A 
ATOM     15  C   UNL     1      98.654 127.657  82.739  0.00  0.00    +0.000 A 
ATOM     16  C   UNL     1      99.662 126.775  82.346  0.00  0.00    +0.000 A 
ENDBRANCH  10  11
ENDBRANCH   4   9
TORSDOF 3
ENDMDL
