MODEL 1
REMARK VINA RESULT:      -5.0      0.000      0.000
REMARK  Name = *****
REMARK  3 active torsions:
REMARK  status: ('A' for Active; 'I' for Inactive)
REMARK    1  A    between atoms: C_5  and  C_7
REMARK    2  A    between atoms: C_8  and  C_9
REMARK    3  A    between atoms: C_12  and  C_15
REMARK                            x       y       z     vdW  Elec       q    Type
REMARK                         _______ _______ _______ _____ _____    ______ ____
ROOT
ATOM      1  C   UNL     1     101.924 126.077  82.630  0.00  0.00    +0.000 C 
ATOM      2  C   UNL     1     102.709 126.004  81.543  0.00  0.00    +0.000 C 
ENDROOT
BRANCH   1   7
ATOM      3  C   UNL     1     100.454 129.323  83.846  0.00  0.00    +0.000 A 
ATOM      4  C   UNL     1      99.124 129.225  83.438  0.00  0.00    +0.000 A 
ATOM      5  C   UNL     1      98.694 128.089  82.757  0.00  0.00    +0.000 A 
ATOM      6  C   UNL     1      99.594 127.060  82.481  0.00  0.00    +0.000 A 
ATOM      7  C   UNL     1     100.939 127.145  82.867  0.00  0.00    +0.000 A 
ATOM      8  C   UNL     1     101.354 128.288  83.567  0.00  0.00    +0.000 A 
ATOM      9  F   UNL     1      99.130 125.975  81.843  0.00  0.00    +0.000 F 
ENDBRANCH   1   7
BRANCH   2  10
ATOM     10  C   UNL     1     103.705 124.947  81.322  0.00  0.00    +0.000 A 
ATOM     11  C   UNL     1     104.377 124.798  80.101  0.00  0.00    +0.000 A 
ATOM     12  C   UNL     1     105.342 123.797  79.937  0.00  0.00    +0.000 A 
ATOM     13  C   UNL     1     105.653 122.941  80.997  0.00  0.00    +0.000 A 
ATOM     14  C   UNL     1     104.999 123.094  82.222  0.00  0.00    +0.000 A 
ATOM     15  C   UNL     1     104.035 124.095  82.384  0.00  0.00    +0.000 A 
BRANCH  13  16
ATOM     16  C   UNL     1     106.640 121.916  80.830  0.00  0.00    +0.000 C 
ATOM     17  N   UNL     1     107.441 121.087  80.693  0.00  0.00    +0.000 NA
ENDBRANCH  13  16
ENDBRANCH   2  10
TORSDOF 3
ENDMDL
