MODEL 1
REMARK VINA RESULT:      -4.7      0.000      0.000
REMARK  Name = *****
REMARK  4 active torsions:
REMARK  status: ('A' for Active; 'I' for Inactive)
REMARK    1  A    between atoms: C_1  and  C_2
REMARK    2  A    between atoms: C_7  and  O_8
REMARK    3  A    between atoms: O_8  and  C_9
REMARK    4  A    between atoms: C_9  and  C_11
REMARK                            x       y       z     vdW  Elec       q    Type
REMARK                         _______ _______ _______ _____ _____    ______ ____
ROOT
ATOM      1  C   UNL     1     102.756 125.622  83.400  0.00  0.00    +0.000 C 
ATOM      2  O   UNL     1     102.346 125.192  84.468  0.00  0.00    +0.000 OA
ENDROOT
BRANCH   1   3
ATOM      3  C   UNL     1     103.526 124.788  82.435  0.00  0.00    +0.000 A 
ATOM      4  C   UNL     1     104.105 123.563  82.789  0.00  0.00    +0.000 A 
ATOM      5  C   UNL     1     104.814 122.832  81.835  0.00  0.00    +0.000 A 
ATOM      6  C   UNL     1     104.952 123.307  80.532  0.00  0.00    +0.000 A 
ATOM      7  C   UNL     1     104.379 124.527  80.174  0.00  0.00    +0.000 A 
ATOM      8  C   UNL     1     103.669 125.265  81.123  0.00  0.00    +0.000 A 
ATOM      9 CL   UNL     1     105.525 121.327  82.271  0.00  0.00    +0.000 Cl
ENDBRANCH   1   3
BRANCH   1  10
ATOM     10  O   UNL     1     102.611 126.899  82.896  0.00  0.00    +0.000 OA
BRANCH  10  17
ATOM     11  C   UNL     1     102.171 129.410  84.240  0.00  0.00    +0.000 C 
ATOM     12  C   UNL     1     101.065 128.626  83.603  0.00  0.00    +0.000 A 
ATOM     13  C   UNL     1      99.746 129.097  83.644  0.00  0.00    +0.000 A 
ATOM     14  C   UNL     1      98.709 128.362  83.060  0.00  0.00    +0.000 A 
ATOM     15  C   UNL     1      98.975 127.146  82.430  0.00  0.00    +0.000 A 
ATOM     16  C   UNL     1     100.278 126.656  82.388  0.00  0.00    +0.000 A 
ATOM     17  C   UNL     1     101.304 127.389  82.991  0.00  0.00    +0.000 A 
ENDBRANCH  10  17
ENDBRANCH   1  10
TORSDOF 3
ENDMDL
