REMARK  Name = *****
REMARK  1 active torsions:
REMARK  status: ('A' for Active; 'I' for Inactive)
REMARK    1  A    between atoms: C_8  and  C_10
REMARK                            x       y       z     vdW  Elec       q    Type
REMARK                         _______ _______ _______ _____ _____    ______ ____
ROOT
ATOM      1  C   UNL     1      -2.635  -0.381   0.062  0.00  0.00    +0.000 A 
ATOM      2  C   UNL     1      -2.349   0.974  -0.028  0.00  0.00    +0.000 A 
ATOM      3  C   UNL     1      -1.026   1.417  -0.094  0.00  0.00    +0.000 A 
ATOM      4  C   UNL     1       0.014   0.467  -0.067  0.00  0.00    +0.000 A 
ATOM      5  C   UNL     1      -0.250  -0.900   0.024  0.00  0.00    +0.000 A 
ATOM      6  C   UNL     1      -1.600  -1.320   0.088  0.00  0.00    +0.000 A 
ATOM      7  C   UNL     1       0.967  -1.661   0.034  0.00  0.00    +0.000 A 
ATOM      8  C   UNL     1       2.109  -0.887  -0.038  0.00  0.00    +0.000 A 
ATOM      9  S   UNL     1       1.704   0.775  -0.140  0.00  0.00    +0.000 S 
ENDROOT
BRANCH   8  10
ATOM     10  C   UNL     1       3.514  -1.321  -0.062  0.00  0.00    +0.000 A 
ATOM     11  C   UNL     1       4.508  -0.634   0.656  0.00  0.00    +0.000 A 
ATOM     12  C   UNL     1       5.839  -1.065   0.634  0.00  0.00    +0.000 A 
ATOM     13  C   UNL     1       6.200  -2.191  -0.104  0.00  0.00    +0.000 A 
ATOM     14  C   UNL     1       5.228  -2.888  -0.816  0.00  0.00    +0.000 A 
ATOM     15  C   UNL     1       3.903  -2.455  -0.790  0.00  0.00    +0.000 A 
ATOM     16  F   UNL     1       3.001  -3.157  -1.495  0.00  0.00    +0.000 F 
ENDBRANCH   8  10
TORSDOF 1
