MODEL 1
REMARK VINA RESULT:      -4.2      0.000      0.000
REMARK  Name = *****
REMARK  5 active torsions:
REMARK  status: ('A' for Active; 'I' for Inactive)
REMARK    1  A    between atoms: C_1  and  C_2
REMARK    2  A    between atoms: C_6  and  C_17
REMARK    3  A    between atoms: N_7  and  N_8
REMARK    4  A    between atoms: N_8  and  C_9
REMARK    5  A    between atoms: C_9  and  C_10
REMARK                            x       y       z     vdW  Elec       q    Type
REMARK                         _______ _______ _______ _____ _____    ______ ____
ROOT
ATOM      1  N   UNL     1      96.150 117.574  81.924  0.00  0.00    +0.000 NA
ENDROOT
BRANCH   1   8
ATOM      2  C   UNL     1      99.190 119.070  83.411  0.00  0.00    +0.000 C 
ATOM      3  C   UNL     1      98.255 118.666  82.265  0.00  0.00    +0.000 C 
ATOM      4  C   UNL     1      98.270 119.683  81.112  0.00  0.00    +0.000 C 
ATOM      5  C   UNL     1      97.516 120.965  81.449  0.00  0.00    +0.000 C 
ATOM      6  C   UNL     1      96.124 120.651  81.986  0.00  0.00    +0.000 C 
ATOM      7  C   UNL     1      96.191 119.644  83.143  0.00  0.00    +0.000 C 
ATOM      8  N   UNL     1      96.876 118.384  82.750  0.00  0.00    +0.000 NA
ATOM      9  C   UNL     1      94.789 119.364  83.699  0.00  0.00    +0.000 C 
ENDBRANCH   1   8
BRANCH   1  10
ATOM     10  C   UNL     1      96.801 116.510  81.570  0.00  0.00    +0.000 C 
BRANCH  10  11
ATOM     11  C   UNL     1      96.773 116.009  80.181  0.00  0.00    +0.000 A 
ATOM     12  C   UNL     1      97.589 116.576  79.197  0.00  0.00    +0.000 A 
ATOM     13  C   UNL     1      97.546 116.085  77.891  0.00  0.00    +0.000 A 
ATOM     14  C   UNL     1      96.689 115.031  77.575  0.00  0.00    +0.000 A 
ATOM     15  C   UNL     1      95.874 114.462  78.555  0.00  0.00    +0.000 A 
ATOM     16  C   UNL     1      95.914 114.952  79.863  0.00  0.00    +0.000 A 
ATOM     17 CL   UNL     1      96.636 114.426  75.966  0.00  0.00    +0.000 Cl
ENDBRANCH  10  11
ENDBRANCH   1  10
TORSDOF 3
ENDMDL
