MODEL 1
REMARK VINA RESULT:      -4.6      0.000      0.000
REMARK  Name = *****
REMARK  4 active torsions:
REMARK  status: ('A' for Active; 'I' for Inactive)
REMARK    1  A    between atoms: C_4  and  C_7
REMARK    2  A    between atoms: C_7  and  O_8
REMARK    3  A    between atoms: O_8  and  C_9
REMARK    4  A    between atoms: C_10  and  S_17
REMARK                            x       y       z     vdW  Elec       q    Type
REMARK                         _______ _______ _______ _____ _____    ______ ____
ROOT
ATOM      1  C   UNL     1      88.434  66.254  86.979  0.00  0.00    +0.000 A 
ATOM      2  C   UNL     1      89.509  66.634  86.154  0.00  0.00    +0.000 A 
ATOM      3  C   UNL     1      89.871  67.985  86.070  0.00  0.00    +0.000 A 
ATOM      4  C   UNL     1      89.151  68.946  86.777  0.00  0.00    +0.000 A 
ATOM      5  C   UNL     1      88.061  68.583  87.560  0.00  0.00    +0.000 A 
ATOM      6  C   UNL     1      87.693  67.240  87.651  0.00  0.00    +0.000 A 
ATOM      7 CL   UNL     1      86.285  66.851  88.573  0.00  0.00    +0.000 Cl
ATOM      8 CL   UNL     1      89.604  70.602  86.661  0.00  0.00    +0.000 Cl
ENDROOT
BRANCH   2   9
ATOM      9  S   UNL     1      90.486  65.451  85.179  0.00  0.00    +0.000 S 
ATOM     10  O   UNL     1      90.431  65.986  83.781  0.00  0.00    +0.000 OA
ATOM     11  O   UNL     1      91.886  65.952  85.778  0.00  0.00    +0.000 OA
ENDBRANCH   2   9
BRANCH   1  12
ATOM     12  O   UNL     1      88.048  64.937  87.025  0.00  0.00    +0.000 OA
BRANCH  12  13
ATOM     13  C   UNL     1      88.729  64.223  88.068  0.00  0.00    +0.000 C 
BRANCH  13  17
ATOM     14  C   UNL     1      85.699  62.064  90.248  0.00  0.00    +0.000 A 
ATOM     15  C   UNL     1      86.025  61.683  88.947  0.00  0.00    +0.000 A 
ATOM     16  C   UNL     1      87.010  62.376  88.241  0.00  0.00    +0.000 A 
ATOM     17  C   UNL     1      87.682  63.453  88.833  0.00  0.00    +0.000 A 
ATOM     18  C   UNL     1      87.340  63.833  90.139  0.00  0.00    +0.000 A 
ATOM     19  C   UNL     1      86.356  63.139  90.843  0.00  0.00    +0.000 A 
ENDBRANCH  13  17
ENDBRANCH  12  13
ENDBRANCH   1  12
TORSDOF 4
ENDMDL
