REMARK  Name = *****
REMARK  4 active torsions:
REMARK  status: ('A' for Active; 'I' for Inactive)
REMARK    1  A    between atoms: C_4  and  C_7
REMARK    2  A    between atoms: C_7  and  C_8
REMARK    3  A    between atoms: C_8  and  C_9
REMARK    4  A    between atoms: C_12  and  C_15
REMARK                            x       y       z     vdW  Elec       q    Type
REMARK                         _______ _______ _______ _____ _____    ______ ____
ROOT
ATOM      1  C   UNL     1      -3.472   1.301   0.894  0.00  0.00    +0.000 C 
ATOM      2  F   UNL     1      -4.693   1.549   0.319  0.00  0.00    +0.000 F 
ATOM      3  F   UNL     1      -3.766   0.625   2.052  0.00  0.00    +0.000 F 
ENDROOT
BRANCH   1   4
ATOM      4  C   UNL     1      -2.748   2.606   1.204  0.00  0.00    +0.000 A 
ATOM      5  C   UNL     1      -2.903   3.723   0.367  0.00  0.00    +0.000 A 
ATOM      6  C   UNL     1      -2.234   4.916   0.646  0.00  0.00    +0.000 A 
ATOM      7  C   UNL     1      -1.404   5.002   1.766  0.00  0.00    +0.000 A 
ATOM      8  C   UNL     1      -1.239   3.901   2.609  0.00  0.00    +0.000 A 
ATOM      9  C   UNL     1      -1.910   2.708   2.328  0.00  0.00    +0.000 A 
BRANCH   7  10
ATOM     10  C   UNL     1      -0.692   6.260   2.069  0.00  0.00    +0.000 C 
ATOM     11  O   UNL     1      -0.801   7.256   1.364  0.00  0.00    +0.000 OA
ENDBRANCH   7  10
ENDBRANCH   1   4
BRANCH   1  12
ATOM     12  C   UNL     1      -2.634   0.379  -0.044  0.00  0.00    +0.000 C 
ATOM     13  F   UNL     1      -1.411   0.143   0.536  0.00  0.00    +0.000 F 
ATOM     14  F   UNL     1      -2.341   1.058  -1.199  0.00  0.00    +0.000 F 
BRANCH  12  18
ATOM     15  C   UNL     1      -4.691  -3.329  -0.902  0.00  0.00    +0.000 A 
ATOM     16  C   UNL     1      -4.901  -2.213  -1.710  0.00  0.00    +0.000 A 
ATOM     17  C   UNL     1      -4.235  -1.017  -1.436  0.00  0.00    +0.000 A 
ATOM     18  C   UNL     1      -3.351  -0.926  -0.349  0.00  0.00    +0.000 A 
ATOM     19  C   UNL     1      -3.147  -2.059   0.455  0.00  0.00    +0.000 A 
ATOM     20  C   UNL     1      -3.814  -3.253   0.179  0.00  0.00    +0.000 A 
ENDBRANCH  12  18
ENDBRANCH   1  12
TORSDOF 4
