MODEL 1
REMARK VINA RESULT:      -4.6      0.000      0.000
REMARK  Name = *****
REMARK  2 active torsions:
REMARK  status: ('A' for Active; 'I' for Inactive)
REMARK    1  A    between atoms: C_3  and  C_8
REMARK    2  A    between atoms: N_9  and  C_10
REMARK                            x       y       z     vdW  Elec       q    Type
REMARK                         _______ _______ _______ _____ _____    ______ ____
ROOT
ATOM      1  C   UNL     1     102.024 125.979  82.492  0.00  0.00    +0.000 C 
ATOM      2  N   UNL     1     102.752 126.006  81.421  0.00  0.00    +0.000 NA
ENDROOT
BRANCH   1   5
ATOM      3  C   UNL     1      98.687 127.708  82.646  0.00  0.00    +0.000 A 
ATOM      4  C   UNL     1      99.674 126.750  82.398  0.00  0.00    +0.000 A 
ATOM      5  C   UNL     1     101.000 127.006  82.764  0.00  0.00    +0.000 A 
ATOM      6  C   UNL     1     101.346 128.212  83.376  0.00  0.00    +0.000 A 
ATOM      7  C   UNL     1     100.353 129.153  83.617  0.00  0.00    +0.000 A 
ATOM      8  C   UNL     1      99.029 128.914  83.258  0.00  0.00    +0.000 A 
ATOM      9  F   UNL     1     100.673 130.314  84.204  0.00  0.00    +0.000 F 
ENDBRANCH   1   5
BRANCH   2  10
ATOM     10  C   UNL     1     103.684 124.970  81.286  0.00  0.00    +0.000 A 
ATOM     11  C   UNL     1     104.385 124.798  80.089  0.00  0.00    +0.000 A 
ATOM     12  C   UNL     1     105.328 123.775  79.962  0.00  0.00    +0.000 A 
ATOM     13  C   UNL     1     105.576 122.929  81.041  0.00  0.00    +0.000 A 
ATOM     14  C   UNL     1     104.896 123.102  82.246  0.00  0.00    +0.000 A 
ATOM     15  C   UNL     1     103.954 124.126  82.366  0.00  0.00    +0.000 A 
ATOM     16 CL   UNL     1     106.736 121.668  80.888  0.00  0.00    +0.000 Cl
ENDBRANCH   2  10
TORSDOF 2
ENDMDL
