MODEL 1
REMARK VINA RESULT:      -4.5      0.000      0.000
REMARK  Name = *****
REMARK  4 active torsions:
REMARK  status: ('A' for Active; 'I' for Inactive)
REMARK    1  A    between atoms: C_1  and  C_2
REMARK    2  A    between atoms: C_5  and  N_8
REMARK    3  A    between atoms: N_8  and  S_9
REMARK    4  A    between atoms: S_9  and  C_11
REMARK                            x       y       z     vdW  Elec       q    Type
REMARK                         _______ _______ _______ _____ _____    ______ ____
ROOT
ATOM      1  N   UNL     1     104.575 124.206  79.836  0.00  0.00    +0.000 N 
ATOM      2  H   UNL     1     104.021 123.630  79.261  0.00  0.00    +0.000 HD
ENDROOT
BRANCH   1   7
ATOM      3  C   UNL     1     102.104 128.264  83.069  0.00  0.00    +0.000 C 
ATOM      4  C   UNL     1     102.717 127.209  82.199  0.00  0.00    +0.000 A 
ATOM      5  C   UNL     1     103.274 127.546  80.962  0.00  0.00    +0.000 A 
ATOM      6  C   UNL     1     103.882 126.569  80.163  0.00  0.00    +0.000 A 
ATOM      7  C   UNL     1     103.939 125.230  80.570  0.00  0.00    +0.000 A 
ATOM      8  C   UNL     1     103.418 124.916  81.836  0.00  0.00    +0.000 A 
ATOM      9  C   UNL     1     102.810 125.888  82.639  0.00  0.00    +0.000 A 
ENDBRANCH   1   7
BRANCH   1  10
ATOM     10  S   UNL     1     106.221 123.923  79.895  0.00  0.00    +0.000 S 
ATOM     11  O   UNL     1     106.866 124.799  80.924  0.00  0.00    +0.000 OA
BRANCH  10  12
ATOM     12  C   UNL     1     106.021 122.296  80.661  0.00  0.00    +0.000 A 
ATOM     13  C   UNL     1     107.154 121.542  80.990  0.00  0.00    +0.000 A 
ATOM     14  C   UNL     1     107.011 120.281  81.578  0.00  0.00    +0.000 A 
ATOM     15  C   UNL     1     105.737 119.778  81.838  0.00  0.00    +0.000 A 
ATOM     16  C   UNL     1     104.604 120.523  81.517  0.00  0.00    +0.000 A 
ATOM     17  C   UNL     1     104.746 121.783  80.930  0.00  0.00    +0.000 A 
ATOM     18 CL   UNL     1     105.564 118.225  82.559  0.00  0.00    +0.000 Cl
ENDBRANCH  10  12
ENDBRANCH   1  10
TORSDOF 3
ENDMDL
