MODEL 1
REMARK VINA RESULT:      -4.6      0.000      0.000
REMARK  Name = *****
REMARK  2 active torsions:
REMARK  status: ('A' for Active; 'I' for Inactive)
REMARK    1  A    between atoms: C_5  and  C_7
REMARK    2  A    between atoms: N_8  and  C_9
REMARK                            x       y       z     vdW  Elec       q    Type
REMARK                         _______ _______ _______ _____ _____    ______ ____
ROOT
ATOM      1  C   UNL     1     102.037 125.985  82.333  0.00  0.00    +0.000 C 
ATOM      2  N   UNL     1     102.782 126.139  81.281  0.00  0.00    +0.000 NA
ENDROOT
BRANCH   1   7
ATOM      3  C   UNL     1      98.670 127.654  82.668  0.00  0.00    +0.000 A 
ATOM      4  C   UNL     1      98.992 128.811  83.374  0.00  0.00    +0.000 A 
ATOM      5  C   UNL     1     100.314 129.056  83.745  0.00  0.00    +0.000 A 
ATOM      6  C   UNL     1     101.324 128.144  83.414  0.00  0.00    +0.000 A 
ATOM      7  C   UNL     1     101.004 126.978  82.705  0.00  0.00    +0.000 A 
ATOM      8  C   UNL     1      99.672 126.740  82.335  0.00  0.00    +0.000 A 
ATOM      9 CL   UNL     1     102.931 128.531  83.917  0.00  0.00    +0.000 Cl
ENDBRANCH   1   7
BRANCH   2  10
ATOM     10  C   UNL     1     103.720 125.125  81.039  0.00  0.00    +0.000 A 
ATOM     11  C   UNL     1     104.498 125.141  79.882  0.00  0.00    +0.000 A 
ATOM     12  C   UNL     1     105.434 124.136  79.670  0.00  0.00    +0.000 A 
ATOM     13  C   UNL     1     105.619 123.117  80.597  0.00  0.00    +0.000 A 
ATOM     14  C   UNL     1     104.857 123.105  81.763  0.00  0.00    +0.000 A 
ATOM     15  C   UNL     1     103.913 124.112  81.984  0.00  0.00    +0.000 A 
ATOM     16  F   UNL     1     106.174 124.149  78.552  0.00  0.00    +0.000 F 
ENDBRANCH   2  10
TORSDOF 2
ENDMDL
