REMARK  Name = *****
REMARK  3 active torsions:
REMARK  status: ('A' for Active; 'I' for Inactive)
REMARK    1  A    between atoms: C_4  and  C_7
REMARK    2  A    between atoms: C_8  and  S_9
REMARK    3  A    between atoms: S_9  and  C_10
REMARK                            x       y       z     vdW  Elec       q    Type
REMARK                         _______ _______ _______ _____ _____    ______ ____
ROOT
ATOM      1  C   UNL     1      -2.699   0.734  -0.409  0.00  0.00    +0.000 C 
ATOM      2  C   UNL     1      -3.553   0.001  -1.139  0.00  0.00    +0.000 C 
ENDROOT
BRANCH   1   6
ATOM      3  C   UNL     1       1.321  -0.364   0.560  0.00  0.00    +0.000 A 
ATOM      4  C   UNL     1       0.803  -0.694  -0.690  0.00  0.00    +0.000 A 
ATOM      5  C   UNL     1      -0.511  -0.348  -1.018  0.00  0.00    +0.000 A 
ATOM      6  C   UNL     1      -1.324   0.322  -0.094  0.00  0.00    +0.000 A 
ATOM      7  C   UNL     1      -0.785   0.664   1.153  0.00  0.00    +0.000 A 
ATOM      8  C   UNL     1       0.528   0.318   1.481  0.00  0.00    +0.000 A 
ENDBRANCH   1   6
BRANCH   2   9
ATOM      9  S   UNL     1      -5.164   0.559  -1.456  0.00  0.00    +0.000 S 
BRANCH   9  10
ATOM     10  C   UNL     1      -5.691  -0.723  -2.577  0.00  0.00    +0.000 A 
ATOM     11  C   UNL     1      -6.391  -1.834  -2.096  0.00  0.00    +0.000 A 
ATOM     12  C   UNL     1      -6.806  -2.837  -2.974  0.00  0.00    +0.000 A 
ATOM     13  C   UNL     1      -6.527  -2.732  -4.336  0.00  0.00    +0.000 A 
ATOM     14  C   UNL     1      -5.835  -1.624  -4.822  0.00  0.00    +0.000 A 
ATOM     15  C   UNL     1      -5.420  -0.620  -3.945  0.00  0.00    +0.000 A 
ENDBRANCH   9  10
ENDBRANCH   2   9
TORSDOF 3
