MODEL 1
REMARK VINA RESULT:      -4.6      0.000      0.000
REMARK  Name = *****
REMARK  5 active torsions:
REMARK  status: ('A' for Active; 'I' for Inactive)
REMARK    1  A    between atoms: C_1  and  C_2
REMARK    2  A    between atoms: C_7  and  C_8
REMARK    3  A    between atoms: C_8  and  C_9
REMARK    4  A    between atoms: C_9  and  C_10
REMARK    5  A    between atoms: C_10  and  C_12
REMARK                            x       y       z     vdW  Elec       q    Type
REMARK                         _______ _______ _______ _____ _____    ______ ____
ROOT
ATOM      1  C   UNL     1      88.472  67.740  86.241  0.00  0.00    +0.000 C 
ATOM      2  O   UNL     1      87.766  67.857  85.239  0.00  0.00    +0.000 OA
ENDROOT
BRANCH   1   3
ATOM      3  C   UNL     1      88.077  66.744  87.263  0.00  0.00    +0.000 A 
ATOM      4  C   UNL     1      87.003  66.953  88.126  0.00  0.00    +0.000 A 
ATOM      5  C   UNL     1      86.655  65.997  89.078  0.00  0.00    +0.000 A 
ATOM      6  C   UNL     1      87.389  64.817  89.160  0.00  0.00    +0.000 A 
ATOM      7  C   UNL     1      88.459  64.584  88.295  0.00  0.00    +0.000 A 
ATOM      8  C   UNL     1      88.801  65.547  87.341  0.00  0.00    +0.000 A 
ATOM      9 CL   UNL     1      86.971  63.634  90.336  0.00  0.00    +0.000 Cl
ATOM     10  F   UNL     1      86.270  68.072  88.055  0.00  0.00    +0.000 F 
ENDBRANCH   1   3
BRANCH   1  11
ATOM     11  C   UNL     1      89.709  68.598  86.436  0.00  0.00    +0.000 C 
BRANCH  11  12
ATOM     12  C   UNL     1      89.444  70.106  86.525  0.00  0.00    +0.000 C 
BRANCH  12  19
ATOM     13  C   UNL     1      86.840  71.298  85.572  0.00  0.00    +0.000 C 
ATOM     14  C   UNL     1      87.137  71.095  87.035  0.00  0.00    +0.000 A 
ATOM     15  C   UNL     1      86.156  71.467  87.970  0.00  0.00    +0.000 A 
ATOM     16  C   UNL     1      86.376  71.319  89.338  0.00  0.00    +0.000 A 
ATOM     17  C   UNL     1      87.582  70.801  89.790  0.00  0.00    +0.000 A 
ATOM     18  C   UNL     1      88.564  70.419  88.875  0.00  0.00    +0.000 A 
ATOM     19  C   UNL     1      88.353  70.535  87.488  0.00  0.00    +0.000 A 
ENDBRANCH  12  19
ENDBRANCH  11  12
ENDBRANCH   1  11
TORSDOF 4
ENDMDL
