MODEL 1
REMARK VINA RESULT:      -3.9      0.000      0.000
REMARK  Name = *****
REMARK  4 active torsions:
REMARK  status: ('A' for Active; 'I' for Inactive)
REMARK    1  A    between atoms: C_4  and  P_7
REMARK    2  A    between atoms: P_7  and  C_8
REMARK    3  A    between atoms: C_8  and  C_9
REMARK    4  A    between atoms: C_9  and  C_10
REMARK                            x       y       z     vdW  Elec       q    Type
REMARK                         _______ _______ _______ _____ _____    ______ ____
ROOT
ATOM      1  C   UNL     1     103.251 127.928  84.736  0.00  0.00    +0.000 C 
ENDROOT
BRANCH   1   2
ATOM      2  P   UNL     1     104.940 127.604  84.040  0.00  0.00    +0.000 P 
ATOM      3  H   UNL     1     105.588 128.778  83.709  0.00  0.00    +0.000 HD
BRANCH   2   7
ATOM      4  C   UNL     1     103.844 125.170  80.264  0.00  0.00    +0.000 A 
ATOM      5  C   UNL     1     103.902 124.536  81.504  0.00  0.00    +0.000 A 
ATOM      6  C   UNL     1     104.230 125.267  82.648  0.00  0.00    +0.000 A 
ATOM      7  C   UNL     1     104.507 126.637  82.563  0.00  0.00    +0.000 A 
ATOM      8  C   UNL     1     104.438 127.265  81.312  0.00  0.00    +0.000 A 
ATOM      9  C   UNL     1     104.110 126.533  80.168  0.00  0.00    +0.000 A 
ENDBRANCH   2   7
ENDBRANCH   1   2
BRANCH   1  10
ATOM     10  C   UNL     1     102.482 128.990  83.949  0.00  0.00    +0.000 C 
BRANCH  10  11
ATOM     11  C   UNL     1     101.137 128.475  83.480  0.00  0.00    +0.000 A 
ATOM     12  C   UNL     1     101.104 127.209  82.863  0.00  0.00    +0.000 A 
ATOM     13  C   UNL     1      99.910 126.666  82.386  0.00  0.00    +0.000 A 
ATOM     14  C   UNL     1      98.726 127.381  82.512  0.00  0.00    +0.000 A 
ATOM     15  C   UNL     1      98.734 128.639  83.114  0.00  0.00    +0.000 A 
ATOM     16  C   UNL     1      99.932 129.188  83.595  0.00  0.00    +0.000 A 
ATOM     17  I   UNL     1      99.796 131.095  84.466  0.00  0.00    +0.000 I 
ENDBRANCH  10  11
ENDBRANCH   1  10
TORSDOF 4
ENDMDL
