MODEL 1
REMARK VINA RESULT:      -4.3      0.000      0.000
REMARK  Name = *****
REMARK  4 active torsions:
REMARK  status: ('A' for Active; 'I' for Inactive)
REMARK    1  A    between atoms: C_4  and  C_7
REMARK    2  A    between atoms: C_7  and  N_8
REMARK    3  A    between atoms: N_8  and  C_9
REMARK    4  A    between atoms: C_9  and  C_10
REMARK                            x       y       z     vdW  Elec       q    Type
REMARK                         _______ _______ _______ _____ _____    ______ ____
ROOT
ATOM      1  N   UNL     1     103.484 125.229  80.072  0.00  0.00    +0.000 NA
ENDROOT
BRANCH   1   2
ATOM      2  C   UNL     1     103.643 126.633  80.478  0.00  0.00    +0.000 C 
BRANCH   2   6
ATOM      3  C   UNL     1     101.234 127.683  83.903  0.00  0.00    +0.000 A 
ATOM      4  C   UNL     1     100.949 126.526  83.179  0.00  0.00    +0.000 A 
ATOM      5  C   UNL     1     101.722 126.186  82.067  0.00  0.00    +0.000 A 
ATOM      6  C   UNL     1     102.787 127.004  81.666  0.00  0.00    +0.000 A 
ATOM      7  C   UNL     1     103.067 128.162  82.405  0.00  0.00    +0.000 A 
ATOM      8  C   UNL     1     102.294 128.500  83.517  0.00  0.00    +0.000 A 
ENDBRANCH   2   6
ENDBRANCH   1   2
BRANCH   1   9
ATOM      9  C   UNL     1     104.540 124.509  80.249  0.00  0.00    +0.000 C 
BRANCH   9  10
ATOM     10  C   UNL     1     104.556 123.362  81.176  0.00  0.00    +0.000 A 
ATOM     11  C   UNL     1     104.405 123.550  82.553  0.00  0.00    +0.000 A 
ATOM     12  C   UNL     1     104.425 122.449  83.411  0.00  0.00    +0.000 A 
ATOM     13  C   UNL     1     104.595 121.164  82.892  0.00  0.00    +0.000 A 
ATOM     14  C   UNL     1     104.744 120.977  81.518  0.00  0.00    +0.000 A 
ATOM     15  C   UNL     1     104.727 122.075  80.656  0.00  0.00    +0.000 A 
ENDBRANCH   9  10
ENDBRANCH   1   9
TORSDOF 4
ENDMDL
