REMARK  Name = *****
REMARK  4 active torsions:
REMARK  status: ('A' for Active; 'I' for Inactive)
REMARK    1  A    between atoms: C_1  and  C_2
REMARK    2  A    between atoms: C_5  and  S_8
REMARK    3  A    between atoms: S_8  and  C_9
REMARK    4  A    between atoms: C_9  and  C_10
REMARK                            x       y       z     vdW  Elec       q    Type
REMARK                         _______ _______ _______ _____ _____    ______ ____
ROOT
ATOM      1  S   UNL     1      -1.585  -0.361  -2.321  0.00  0.00    +0.000 S 
ENDROOT
BRANCH   1   6
ATOM      2  C   UNL     1       2.623   0.239   0.387  0.00  0.00    +0.000 C 
ATOM      3  C   UNL     1       1.109   0.143   0.570  0.00  0.00    +0.000 C 
ATOM      4  C   UNL     1       0.400   1.281  -0.176  0.00  0.00    +0.000 C 
ATOM      5  C   UNL     1      -1.122   1.170  -0.065  0.00  0.00    +0.000 C 
ATOM      6  C   UNL     1      -1.673  -0.199  -0.492  0.00  0.00    +0.000 C 
ATOM      7  C   UNL     1      -0.927  -1.327   0.232  0.00  0.00    +0.000 C 
ATOM      8  C   UNL     1       0.594  -1.226   0.110  0.00  0.00    +0.000 C 
ENDBRANCH   1   6
BRANCH   1   9
ATOM      9  C   UNL     1      -2.731  -1.754  -2.563  0.00  0.00    +0.000 C 
BRANCH   9  10
ATOM     10  C   UNL     1      -2.950  -2.040  -4.027  0.00  0.00    +0.000 A 
ATOM     11  C   UNL     1      -2.093  -2.909  -4.719  0.00  0.00    +0.000 A 
ATOM     12  C   UNL     1      -2.291  -3.168  -6.076  0.00  0.00    +0.000 A 
ATOM     13  C   UNL     1      -3.343  -2.558  -6.757  0.00  0.00    +0.000 A 
ATOM     14  C   UNL     1      -4.194  -1.685  -6.084  0.00  0.00    +0.000 A 
ATOM     15  C   UNL     1      -3.998  -1.424  -4.726  0.00  0.00    +0.000 A 
ENDBRANCH   9  10
ENDBRANCH   1   9
TORSDOF 3
