MODEL 1
REMARK VINA RESULT:      -4.8      0.000      0.000
REMARK  Name = *****
REMARK  1 active torsions:
REMARK  status: ('A' for Active; 'I' for Inactive)
REMARK    1  A    between atoms: C_3  and  C_13
REMARK                            x       y       z     vdW  Elec       q    Type
REMARK                         _______ _______ _______ _____ _____    ______ ____
ROOT
ATOM      1  C   UNL     1     104.268 128.135  81.938  0.00  0.00    +0.000 C 
ATOM      2  C   UNL     1     103.196 127.374  81.157  0.00  0.00    +0.000 C 
ATOM      3  C   UNL     1     102.822 126.050  81.826  0.00  0.00    +0.000 C 
ATOM      4  N   UNL     1     101.786 125.900  82.598  0.00  0.00    +0.000 NA
ATOM      5  C   UNL     1     100.926 126.969  82.897  0.00  0.00    +0.000 A 
ATOM      6  C   UNL     1      99.619 126.905  82.399  0.00  0.00    +0.000 A 
ATOM      7  C   UNL     1      98.690 127.905  82.688  0.00  0.00    +0.000 A 
ATOM      8  C   UNL     1      99.055 128.977  83.496  0.00  0.00    +0.000 A 
ATOM      9  C   UNL     1     100.348 129.048  84.016  0.00  0.00    +0.000 A 
ATOM     10  C   UNL     1     101.289 128.051  83.722  0.00  0.00    +0.000 A 
ATOM     11  S   UNL     1     102.933 128.219  84.414  0.00  0.00    +0.000 S 
ATOM     12  C   UNL     1     103.732 129.074  83.020  0.00  0.00    +0.000 C 
ENDROOT
BRANCH   3  13
ATOM     13  C   UNL     1     103.694 124.895  81.580  0.00  0.00    +0.000 A 
ATOM     14  C   UNL     1     104.219 124.427  80.386  0.00  0.00    +0.000 A 
ATOM     15  C   UNL     1     105.033 123.268  80.551  0.00  0.00    +0.000 A 
ATOM     16  C   UNL     1     105.110 122.879  81.867  0.00  0.00    +0.000 A 
ATOM     17  S   UNL     1     104.209 123.903  82.890  0.00  0.00    +0.000 S 
ENDBRANCH   3  13
TORSDOF 1
ENDMDL
