MODEL 1
REMARK VINA RESULT:      -3.9      0.000      0.000
REMARK  Name = *****
REMARK  5 active torsions:
REMARK  status: ('A' for Active; 'I' for Inactive)
REMARK    1  A    between atoms: C_1  and  C_2
REMARK    2  A    between atoms: C_7  and  S_8
REMARK    3  A    between atoms: S_8  and  C_10
REMARK    4  A    between atoms: C_10  and  C_11
REMARK    5  A    between atoms: C_11  and  C_12
REMARK                            x       y       z     vdW  Elec       q    Type
REMARK                         _______ _______ _______ _____ _____    ______ ____
ROOT
ATOM      1  S   UNL     1      87.865  65.141  87.134  0.00  0.00    +0.000 S 
ATOM      2  O   UNL     1      89.319  65.401  86.864  0.00  0.00    +0.000 OA
ENDROOT
BRANCH   1   9
ATOM      3  C   UNL     1      85.556  66.190  89.038  0.00  0.00    +0.000 C 
ATOM      4  C   UNL     1      86.648  65.368  89.666  0.00  0.00    +0.000 A 
ATOM      5  C   UNL     1      86.586  65.100  91.046  0.00  0.00    +0.000 A 
ATOM      6  C   UNL     1      87.584  64.357  91.677  0.00  0.00    +0.000 A 
ATOM      7  C   UNL     1      88.660  63.871  90.942  0.00  0.00    +0.000 A 
ATOM      8  C   UNL     1      88.734  64.122  89.573  0.00  0.00    +0.000 A 
ATOM      9  C   UNL     1      87.732  64.859  88.925  0.00  0.00    +0.000 A 
ENDBRANCH   1   9
BRANCH   1  10
ATOM     10  C   UNL     1      87.522  63.424  86.621  0.00  0.00    +0.000 C 
BRANCH  10  11
ATOM     11  C   UNL     1      86.018  63.202  86.512  0.00  0.00    +0.000 C 
BRANCH  11  12
ATOM     12  C   UNL     1      85.459  62.602  87.778  0.00  0.00    +0.000 A 
ATOM     13  C   UNL     1      86.255  61.776  88.582  0.00  0.00    +0.000 A 
ATOM     14  C   UNL     1      85.747  61.238  89.765  0.00  0.00    +0.000 A 
ATOM     15  C   UNL     1      84.440  61.522  90.156  0.00  0.00    +0.000 A 
ATOM     16  C   UNL     1      83.640  62.344  89.365  0.00  0.00    +0.000 A 
ATOM     17  C   UNL     1      84.147  62.886  88.182  0.00  0.00    +0.000 A 
ENDBRANCH  11  12
ENDBRANCH  10  11
ENDBRANCH   1  10
TORSDOF 4
ENDMDL
