MODEL 1
REMARK VINA RESULT:      -5.0      0.000      0.000
REMARK  Name = *****
REMARK  4 active torsions:
REMARK  status: ('A' for Active; 'I' for Inactive)
REMARK    1  A    between atoms: C_1  and  C_2
REMARK    2  A    between atoms: C_2  and  C_13
REMARK    3  A    between atoms: C_4  and  C_5
REMARK    4  A    between atoms: C_8  and  C_11
REMARK                            x       y       z     vdW  Elec       q    Type
REMARK                         _______ _______ _______ _____ _____    ______ ____
ROOT
ATOM      1  C   UNL     1      87.194  66.608  85.813  0.00  0.00    +0.000 C 
ATOM      2  C   UNL     1      88.407  66.154  86.594  0.00  0.00    +0.000 C 
ATOM      3  C   UNL     1      89.617  65.754  85.775  0.00  0.00    +0.000 C 
ATOM      4  C   UNL     1      89.697  66.991  86.627  0.00  0.00    +0.000 C 
ENDROOT
BRANCH   4   5
ATOM      5  C   UNL     1      89.777  68.370  86.018  0.00  0.00    +0.000 A 
ATOM      6  C   UNL     1      89.979  68.545  84.638  0.00  0.00    +0.000 A 
ATOM      7  C   UNL     1      89.996  69.818  84.056  0.00  0.00    +0.000 A 
ATOM      8  C   UNL     1      89.793  70.949  84.846  0.00  0.00    +0.000 A 
ATOM      9  C   UNL     1      89.581  70.800  86.218  0.00  0.00    +0.000 A 
ATOM     10  C   UNL     1      89.573  69.524  86.792  0.00  0.00    +0.000 A 
BRANCH   8  11
ATOM     11  C   UNL     1      89.786  72.253  84.250  0.00  0.00    +0.000 C 
ATOM     12  N   UNL     1      89.780  73.309  83.771  0.00  0.00    +0.000 NA
ENDBRANCH   8  11
ENDBRANCH   4   5
BRANCH   2  13
ATOM     13  C   UNL     1      88.075  65.376  87.863  0.00  0.00    +0.000 A 
ATOM     14  C   UNL     1      87.050  65.800  88.729  0.00  0.00    +0.000 A 
ATOM     15  C   UNL     1      86.737  65.095  89.893  0.00  0.00    +0.000 A 
ATOM     16  C   UNL     1      87.439  63.937  90.212  0.00  0.00    +0.000 A 
ATOM     17  C   UNL     1      88.449  63.487  89.368  0.00  0.00    +0.000 A 
ATOM     18  C   UNL     1      88.761  64.198  88.207  0.00  0.00    +0.000 A 
ENDBRANCH   2  13
TORSDOF 3
ENDMDL
