MODEL 1
REMARK VINA RESULT:      -4.2      0.000      0.000
REMARK  Name = *****
REMARK  4 active torsions:
REMARK  status: ('A' for Active; 'I' for Inactive)
REMARK    1  A    between atoms: C_1  and  C_2
REMARK    2  A    between atoms: C_4  and  C_15
REMARK    3  A    between atoms: C_5  and  C_8
REMARK    4  A    between atoms: C_9  and  C_10
REMARK                            x       y       z     vdW  Elec       q    Type
REMARK                         _______ _______ _______ _____ _____    ______ ____
ROOT
ATOM      1  C   UNL     1      99.364 131.240  84.559  0.00  0.00    +0.000 C 
ATOM      2  C   UNL     1      99.945 129.966  84.022  0.00  0.00    +0.000 A 
ATOM      3  C   UNL     1      99.125 128.973  83.473  0.00  0.00    +0.000 A 
ATOM      4  C   UNL     1      99.664 127.774  82.975  0.00  0.00    +0.000 A 
ATOM      5  C   UNL     1     101.056 127.568  83.034  0.00  0.00    +0.000 A 
ATOM      6  C   UNL     1     101.872 128.561  83.597  0.00  0.00    +0.000 A 
ATOM      7  C   UNL     1     101.324 129.749  84.083  0.00  0.00    +0.000 A 
ATOM      8  C   UNL     1      98.735 126.742  82.394  0.00  0.00    +0.000 C 
ENDROOT
BRANCH   5   9
ATOM      9  C   UNL     1     101.664 126.314  82.565  0.00  0.00    +0.000 C 
ATOM     10  C   UNL     1     102.786 126.277  81.825  0.00  0.00    +0.000 C 
BRANCH  10  11
ATOM     11  C   UNL     1     103.421 125.013  81.336  0.00  0.00    +0.000 C 
ATOM     12  S   UNL     1     104.195 124.155  82.741  0.00  0.00    +0.000 S 
ATOM     13  C   UNL     1     105.818 123.907  81.977  0.00  0.00    +0.000 C 
ATOM     14  C   UNL     1     106.117 125.119  81.119  0.00  0.00    +0.000 C 
ATOM     15  S   UNL     1     104.668 125.411  80.076  0.00  0.00    +0.000 S 
ENDBRANCH  10  11
ENDBRANCH   5   9
TORSDOF 2
ENDMDL
