REMARK  Name = *****
REMARK  5 active torsions:
REMARK  status: ('A' for Active; 'I' for Inactive)
REMARK    1  A    between atoms: C_1  and  O_2
REMARK    2  A    between atoms: O_2  and  C_3
REMARK    3  A    between atoms: C_3  and  C_12
REMARK    4  A    between atoms: N_4  and  C_5
REMARK    5  A    between atoms: C_12  and  C_13
REMARK                            x       y       z     vdW  Elec       q    Type
REMARK                         _______ _______ _______ _____ _____    ______ ____
ROOT
ATOM      1  C   UNL     1       2.935  -0.396   1.387  0.00  0.00    +0.000 C 
ATOM      2  N   UNL     1       2.253  -0.893   2.371  0.00  0.00    +0.000 NA
ENDROOT
BRANCH   2   3
ATOM      3  C   UNL     1       0.857  -1.024   2.272  0.00  0.00    +0.000 A 
ATOM      4  C   UNL     1       0.311  -1.980   1.404  0.00  0.00    +0.000 A 
ATOM      5  C   UNL     1      -1.072  -2.157   1.310  0.00  0.00    +0.000 A 
ATOM      6  C   UNL     1      -1.928  -1.389   2.098  0.00  0.00    +0.000 A 
ATOM      7  C   UNL     1      -1.401  -0.447   2.982  0.00  0.00    +0.000 A 
ATOM      8  C   UNL     1      -0.017  -0.270   3.073  0.00  0.00    +0.000 A 
ATOM      9 CL   UNL     1       0.582   0.912   4.184  0.00  0.00    +0.000 Cl
ENDBRANCH   2   3
BRANCH   1  11
ATOM     10  C   UNL     1       1.681   1.304   0.351  0.00  0.00    +0.000 C 
ATOM     11  O   UNL     1       2.424   0.088   0.225  0.00  0.00    +0.000 OA
ENDBRANCH   1  11
BRANCH   1  12
ATOM     12  C   UNL     1       4.442  -0.362   1.410  0.00  0.00    +0.000 C 
BRANCH  12  13
ATOM     13  C   UNL     1       5.054  -1.604   0.811  0.00  0.00    +0.000 A 
ATOM     14  C   UNL     1       5.607  -1.581  -0.477  0.00  0.00    +0.000 A 
ATOM     15  C   UNL     1       6.161  -2.738  -1.028  0.00  0.00    +0.000 A 
ATOM     16  C   UNL     1       6.162  -3.927  -0.302  0.00  0.00    +0.000 A 
ATOM     17  C   UNL     1       5.607  -3.963   0.975  0.00  0.00    +0.000 A 
ATOM     18  C   UNL     1       5.055  -2.808   1.529  0.00  0.00    +0.000 A 
ENDBRANCH  12  13
ENDBRANCH   1  12
TORSDOF 4
