REMARK  Name = *****
REMARK  6 active torsions:
REMARK  status: ('A' for Active; 'I' for Inactive)
REMARK    1  A    between atoms: C_1  and  C_2
REMARK    2  A    between atoms: C_4  and  C_8
REMARK    3  A    between atoms: C_8  and  C_9
REMARK    4  A    between atoms: C_9  and  C_10
REMARK    5  A    between atoms: C_13  and  O_16
REMARK    6  A    between atoms: O_16  and  C_17
REMARK                            x       y       z     vdW  Elec       q    Type
REMARK                         _______ _______ _______ _____ _____    ______ ____
ROOT
ATOM      1  C   UNL     1       2.487   2.639  -2.109  0.00  0.00    +0.000 C 
ENDROOT
BRANCH   1   2
ATOM      2  C   UNL     1       1.785   3.884  -2.593  0.00  0.00    +0.000 A 
ATOM      3  C   UNL     1       2.471   5.102  -2.674  0.00  0.00    +0.000 A 
ATOM      4  C   UNL     1       1.818   6.262  -3.104  0.00  0.00    +0.000 A 
ATOM      5  C   UNL     1       0.469   6.219  -3.453  0.00  0.00    +0.000 A 
ATOM      6  C   UNL     1      -0.219   5.007  -3.367  0.00  0.00    +0.000 A 
ATOM      7  C   UNL     1       0.430   3.847  -2.938  0.00  0.00    +0.000 A 
BRANCH   5   8
ATOM      8  O   UNL     1      -0.286   7.275  -3.886  0.00  0.00    +0.000 OA
ATOM      9  C   UNL     1       0.367   8.534  -3.981  0.00  0.00    +0.000 C 
ENDBRANCH   5   8
ENDBRANCH   1   2
BRANCH   1  10
ATOM     10  C   UNL     1       2.443   2.520  -0.581  0.00  0.00    +0.000 C 
BRANCH  10  14
ATOM     11  C   UNL     1       4.329   2.579   1.913  0.00  0.00    +0.000 C 
ATOM     12  C   UNL     1       4.033   1.325   1.162  0.00  0.00    +0.000 C 
ATOM     13  C   UNL     1       4.628   1.116  -0.206  0.00  0.00    +0.000 C 
ATOM     14  C   UNL     1       3.135   1.276  -0.068  0.00  0.00    +0.000 C 
ATOM     15  C   UNL     1       2.508  -0.058  -0.432  0.00  0.00    +0.000 C 
ATOM     16  C   UNL     1       3.578  -0.749  -1.285  0.00  0.00    +0.000 C 
ATOM     17  C   UNL     1       4.916  -0.269  -0.713  0.00  0.00    +0.000 C 
ENDBRANCH  10  14
ENDBRANCH   1  10
TORSDOF 4
