MODEL 1
REMARK VINA RESULT:      -5.1      0.000      0.000
REMARK  Name = *****
REMARK  4 active torsions:
REMARK  status: ('A' for Active; 'I' for Inactive)
REMARK    1  A    between atoms: C_1  and  C_2
REMARK    2  A    between atoms: C_5  and  C_8
REMARK    3  A    between atoms: N_9  and  C_10
REMARK    4  A    between atoms: C_14  and  C_16
REMARK                            x       y       z     vdW  Elec       q    Type
REMARK                         _______ _______ _______ _____ _____    ______ ____
ROOT
ATOM      1  C   UNL     1     104.305 125.203  80.725  0.00  0.00    +0.000 A 
ATOM      2  C   UNL     1     105.210 125.434  79.688  0.00  0.00    +0.000 A 
ATOM      3  C   UNL     1     105.983 124.390  79.178  0.00  0.00    +0.000 A 
ATOM      4  C   UNL     1     105.858 123.107  79.711  0.00  0.00    +0.000 A 
ATOM      5  C   UNL     1     104.959 122.856  80.759  0.00  0.00    +0.000 A 
ATOM      6  C   UNL     1     104.196 123.920  81.266  0.00  0.00    +0.000 A 
ENDROOT
BRANCH   5   7
ATOM      7  C   UNL     1     104.844 121.483  81.368  0.00  0.00    +0.000 C 
ATOM      8  F   UNL     1     103.864 120.725  80.799  0.00  0.00    +0.000 F 
ATOM      9  F   UNL     1     105.991 120.761  81.246  0.00  0.00    +0.000 F 
ATOM     10  F   UNL     1     104.559 121.513  82.700  0.00  0.00    +0.000 F 
ENDBRANCH   5   7
BRANCH   1  12
ATOM     11  C   UNL     1     102.456 125.911  81.870  0.00  0.00    +0.000 C 
ATOM     12  N   UNL     1     103.545 126.252  81.256  0.00  0.00    +0.000 NA
BRANCH  11  17
ATOM     13  C   UNL     1      98.982 129.841  84.291  0.00  0.00    +0.000 C 
ATOM     14  C   UNL     1      99.880 128.832  83.637  0.00  0.00    +0.000 A 
ATOM     15  C   UNL     1      99.335 127.701  83.015  0.00  0.00    +0.000 A 
ATOM     16  C   UNL     1     100.169 126.744  82.432  0.00  0.00    +0.000 A 
ATOM     17  C   UNL     1     101.555 126.909  82.478  0.00  0.00    +0.000 A 
ATOM     18  C   UNL     1     102.110 128.025  83.108  0.00  0.00    +0.000 A 
ATOM     19  C   UNL     1     101.272 128.979  83.690  0.00  0.00    +0.000 A 
ENDBRANCH  11  17
ENDBRANCH   1  12
TORSDOF 3
ENDMDL
