REMARK  Name = *****
REMARK  4 active torsions:
REMARK  status: ('A' for Active; 'I' for Inactive)
REMARK    1  A    between atoms: C_1  and  C_2
REMARK    2  A    between atoms: C_5  and  C_8
REMARK    3  A    between atoms: C_8  and  C_10
REMARK    4  A    between atoms: C_10  and  C_11
REMARK                            x       y       z     vdW  Elec       q    Type
REMARK                         _______ _______ _______ _____ _____    ______ ____
ROOT
ATOM      1  C   UNL     1      -2.735   0.045   1.657  0.00  0.00    +0.000 C 
ATOM      2  O   UNL     1      -3.062  -0.960   2.288  0.00  0.00    +0.000 OA
ENDROOT
BRANCH   1   7
ATOM      3  C   UNL     1       2.276  -0.133  -1.231  0.00  0.00    +0.000 C 
ATOM      4  C   UNL     1       0.978  -0.059  -0.482  0.00  0.00    +0.000 A 
ATOM      5  C   UNL     1      -0.165   0.473  -1.094  0.00  0.00    +0.000 A 
ATOM      6  C   UNL     1      -1.383   0.511  -0.410  0.00  0.00    +0.000 A 
ATOM      7  C   UNL     1      -1.463   0.016   0.893  0.00  0.00    +0.000 A 
ATOM      8  C   UNL     1      -0.337  -0.550   1.497  0.00  0.00    +0.000 A 
ATOM      9  C   UNL     1       0.879  -0.586   0.812  0.00  0.00    +0.000 A 
ENDBRANCH   1   7
BRANCH   1  10
ATOM     10  C   UNL     1      -3.612   1.284   1.617  0.00  0.00    +0.000 C 
BRANCH  10  11
ATOM     11  C   UNL     1      -2.883   2.604   1.792  0.00  0.00    +0.000 A 
ATOM     12  C   UNL     1      -2.169   2.888   2.976  0.00  0.00    +0.000 A 
ATOM     13  C   UNL     1      -1.482   4.096   3.141  0.00  0.00    +0.000 A 
ATOM     14  C   UNL     1      -1.499   5.057   2.137  0.00  0.00    +0.000 A 
ATOM     15  C   UNL     1      -2.216   4.813   0.971  0.00  0.00    +0.000 A 
ATOM     16  C   UNL     1      -2.906   3.605   0.800  0.00  0.00    +0.000 A 
ATOM     17 CL   UNL     1      -3.790   3.433  -0.678  0.00  0.00    +0.000 Cl
ATOM     18 CL   UNL     1      -2.115   1.784   4.307  0.00  0.00    +0.000 Cl
ENDBRANCH  10  11
ENDBRANCH   1  10
TORSDOF 3
