MODEL 1
REMARK VINA RESULT:      -3.4      0.000      0.000
REMARK  Name = *****
REMARK  5 active torsions:
REMARK  status: ('A' for Active; 'I' for Inactive)
REMARK    1  A    between atoms: C_1  and  C_2
REMARK    2  A    between atoms: C_2  and  C_8
REMARK    3  A    between atoms: C_8  and  C_9
REMARK    4  A    between atoms: C_9  and  C_10
REMARK    5  A    between atoms: C_10  and  C_16
REMARK                            x       y       z     vdW  Elec       q    Type
REMARK                         _______ _______ _______ _____ _____    ______ ____
ROOT
ATOM      1  C   UNL     1      87.349  65.343  88.093  0.00  0.00    +0.000 C 
ENDROOT
BRANCH   1   3
ATOM      2  C   UNL     1      88.475  63.654  89.552  0.00  0.00    +0.000 C 
ATOM      3  C   UNL     1      87.112  64.083  88.983  0.00  0.00    +0.000 C 
ATOM      4  S   UNL     1      85.963  64.534  90.347  0.00  0.00    +0.000 S 
ATOM      5  C   UNL     1      85.755  62.939  91.187  0.00  0.00    +0.000 C 
ATOM      6  C   UNL     1      85.189  61.856  90.285  0.00  0.00    +0.000 C 
ATOM      7  C   UNL     1      86.125  61.438  89.163  0.00  0.00    +0.000 C 
ATOM      8  S   UNL     1      86.402  62.748  87.939  0.00  0.00    +0.000 S 
ENDBRANCH   1   3
BRANCH   1   9
ATOM      9  C   UNL     1      88.690  65.423  87.320  0.00  0.00    +0.000 C 
BRANCH   9  10
ATOM     10  C   UNL     1      88.579  65.286  85.779  0.00  0.00    +0.000 C 
ATOM     11  S   UNL     1      89.042  63.625  85.138  0.00  0.00    +0.000 S 
ATOM     12  C   UNL     1      90.791  63.556  85.612  0.00  0.00    +0.000 C 
ATOM     13  C   UNL     1      91.624  64.645  84.953  0.00  0.00    +0.000 C 
ATOM     14  C   UNL     1      91.278  66.055  85.410  0.00  0.00    +0.000 C 
ATOM     15  S   UNL     1      89.603  66.576  84.943  0.00  0.00    +0.000 S 
ATOM     16  C   UNL     1      87.134  65.543  85.315  0.00  0.00    +0.000 C 
ENDBRANCH   9  10
ENDBRANCH   1   9
TORSDOF 3
ENDMDL
