MODEL 1
REMARK VINA RESULT:      -4.8      0.000      0.000
REMARK  Name = *****
REMARK  3 active torsions:
REMARK  status: ('A' for Active; 'I' for Inactive)
REMARK    1  A    between atoms: C_4  and  C_7
REMARK    2  A    between atoms: C_8  and  C_9
REMARK    3  A    between atoms: C_12  and  C_14
REMARK                            x       y       z     vdW  Elec       q    Type
REMARK                         _______ _______ _______ _____ _____    ______ ____
ROOT
ATOM      1  C   UNL     1     103.744 125.009  80.889  0.00  0.00    +0.000 A 
ATOM      2  N   UNL     1     104.544 124.989  79.833  0.00  0.00    +0.000 NA
ATOM      3  N   UNL     1     105.334 123.866  79.911  0.00  0.00    +0.000 NA
ATOM      4  C   UNL     1     104.986 123.238  81.015  0.00  0.00    +0.000 A 
ATOM      5  O   UNL     1     103.987 123.903  81.687  0.00  0.00    +0.000 OA
ENDROOT
BRANCH   4   6
ATOM      6  C   UNL     1     105.502 121.971  81.616  0.00  0.00    +0.000 C 
ATOM      7 CL   UNL     1     107.063 121.481  80.888  0.00  0.00    +0.000 Cl
ATOM      8 CL   UNL     1     105.749 122.185  83.380  0.00  0.00    +0.000 Cl
ATOM      9 CL   UNL     1     104.324 120.641  81.359  0.00  0.00    +0.000 Cl
ENDBRANCH   4   6
BRANCH   1  11
ATOM     10  C   UNL     1     102.011 125.946  82.282  0.00  0.00    +0.000 C 
ATOM     11  C   UNL     1     102.773 126.004  81.179  0.00  0.00    +0.000 C 
BRANCH  10  15
ATOM     12  C   UNL     1      99.122 128.903  83.381  0.00  0.00    +0.000 A 
ATOM     13  C   UNL     1      98.704 127.747  82.726  0.00  0.00    +0.000 A 
ATOM     14  C   UNL     1      99.637 126.776  82.355  0.00  0.00    +0.000 A 
ATOM     15  C   UNL     1     101.000 126.957  82.627  0.00  0.00    +0.000 A 
ATOM     16  C   UNL     1     101.406 128.116  83.301  0.00  0.00    +0.000 A 
ATOM     17  C   UNL     1     100.472 129.087  83.671  0.00  0.00    +0.000 A 
ENDBRANCH  10  15
ENDBRANCH   1  11
TORSDOF 3
ENDMDL
