MODEL 1
REMARK VINA RESULT:      -4.6      0.000      0.000
REMARK  Name = *****
REMARK  4 active torsions:
REMARK  status: ('A' for Active; 'I' for Inactive)
REMARK    1  A    between atoms: C_4  and  C_5
REMARK    2  A    between atoms: C_4  and  C_13
REMARK    3  A    between atoms: C_5  and  O_6
REMARK    4  A    between atoms: O_6  and  C_7
REMARK                            x       y       z     vdW  Elec       q    Type
REMARK                         _______ _______ _______ _____ _____    ______ ____
ROOT
ATOM      1  C   UNL     1      89.624  71.893  84.516  0.00  0.00    +0.000 C 
ATOM      2  C   UNL     1      90.496  70.671  84.091  0.00  0.00    +0.000 C 
ATOM      3  C   UNL     1      89.633  70.663  85.208  0.00  0.00    +0.000 C 
ATOM      4  C   UNL     1      89.181  69.956  86.229  0.00  0.00    +0.000 C 
ENDROOT
BRANCH   4   5
ATOM      5  C   UNL     1      88.195  70.533  87.170  0.00  0.00    +0.000 A 
ATOM      6  C   UNL     1      86.952  71.002  86.717  0.00  0.00    +0.000 A 
ATOM      7  C   UNL     1      86.011  71.527  87.607  0.00  0.00    +0.000 A 
ATOM      8  C   UNL     1      86.297  71.586  88.968  0.00  0.00    +0.000 A 
ATOM      9  C   UNL     1      87.522  71.120  89.438  0.00  0.00    +0.000 A 
ATOM     10  C   UNL     1      88.462  70.595  88.546  0.00  0.00    +0.000 A 
ENDBRANCH   4   5
BRANCH   4  11
ATOM     11  C   UNL     1      89.644  68.537  86.458  0.00  0.00    +0.000 C 
BRANCH  11  12
ATOM     12  O   UNL     1      88.583  67.641  86.122  0.00  0.00    +0.000 OA
BRANCH  12  13
ATOM     13  C   UNL     1      88.097  66.845  87.121  0.00  0.00    +0.000 A 
ATOM     14  C   UNL     1      87.008  67.130  87.946  0.00  0.00    +0.000 A 
ATOM     15  C   UNL     1      86.619  66.219  88.934  0.00  0.00    +0.000 A 
ATOM     16  C   UNL     1      87.316  65.024  89.102  0.00  0.00    +0.000 A 
ATOM     17  C   UNL     1      88.403  64.735  88.282  0.00  0.00    +0.000 A 
ATOM     18  C   UNL     1      88.791  65.644  87.296  0.00  0.00    +0.000 A 
ENDBRANCH  12  13
ENDBRANCH  11  12
ENDBRANCH   4  11
TORSDOF 4
ENDMDL
