MODEL 1
REMARK VINA RESULT:      -5.2      0.000      0.000
REMARK  Name = *****
REMARK  4 active torsions:
REMARK  status: ('A' for Active; 'I' for Inactive)
REMARK    1  A    between atoms: C_1  and  O_2
REMARK    2  A    between atoms: O_2  and  C_3
REMARK    3  A    between atoms: C_7  and  C_9
REMARK    4  A    between atoms: C_10  and  C_11
REMARK                            x       y       z     vdW  Elec       q    Type
REMARK                         _______ _______ _______ _____ _____    ______ ____
ROOT
ATOM      1  C   UNL     1     102.145 125.924  82.225  0.00  0.00    +0.000 C 
ATOM      2  C   UNL     1     102.954 126.088  81.165  0.00  0.00    +0.000 C 
ENDROOT
BRANCH   2   3
ATOM      3  C   UNL     1     103.944 125.093  80.728  0.00  0.00    +0.000 A 
ATOM      4  C   UNL     1     104.786 125.307  79.630  0.00  0.00    +0.000 A 
ATOM      5  C   UNL     1     105.733 124.345  79.273  0.00  0.00    +0.000 A 
ATOM      6  C   UNL     1     105.862 123.169  80.007  0.00  0.00    +0.000 A 
ATOM      7  C   UNL     1     105.041 122.954  81.112  0.00  0.00    +0.000 A 
ATOM      8  C   UNL     1     104.091 123.915  81.474  0.00  0.00    +0.000 A 
ATOM      9 CL   UNL     1     106.755 124.618  77.915  0.00  0.00    +0.000 Cl
ENDBRANCH   2   3
BRANCH   1  14
ATOM     10  C   UNL     1      98.831 127.616  82.838  0.00  0.00    +0.000 A 
ATOM     11  C   UNL     1      99.228 128.816  83.428  0.00  0.00    +0.000 A 
ATOM     12  C   UNL     1     100.584 129.078  83.630  0.00  0.00    +0.000 A 
ATOM     13  C   UNL     1     101.548 128.142  83.251  0.00  0.00    +0.000 A 
ATOM     14  C   UNL     1     101.165 126.926  82.674  0.00  0.00    +0.000 A 
ATOM     15  C   UNL     1      99.803 126.682  82.462  0.00  0.00    +0.000 A 
BRANCH  10  17
ATOM     16  C   UNL     1      96.778 126.752  83.671  0.00  0.00    +0.000 C 
ATOM     17  O   UNL     1      97.542 127.238  82.575  0.00  0.00    +0.000 OA
ENDBRANCH  10  17
ENDBRANCH   1  14
TORSDOF 3
ENDMDL
