MODEL 1
REMARK VINA RESULT:      -4.3      0.000      0.000
REMARK  Name = *****
REMARK  6 active torsions:
REMARK  status: ('A' for Active; 'I' for Inactive)
REMARK    1  A    between atoms: C_4  and  C_7
REMARK    2  A    between atoms: C_7  and  C_8
REMARK    3  A    between atoms: C_7  and  O_16
REMARK    4  A    between atoms: C_8  and  C_10
REMARK    5  A    between atoms: O_16  and  C_17
REMARK    6  A    between atoms: C_17  and  C_18
REMARK                            x       y       z     vdW  Elec       q    Type
REMARK                         _______ _______ _______ _____ _____    ______ ____
ROOT
ATOM      1  C   UNL     1      88.636  69.154  85.907  0.00  0.00    +0.000 C 
ENDROOT
BRANCH   1   5
ATOM      2  C   UNL     1      88.343  65.265  87.779  0.00  0.00    +0.000 A 
ATOM      3  C   UNL     1      87.447  66.274  88.124  0.00  0.00    +0.000 A 
ATOM      4  C   UNL     1      87.542  67.530  87.523  0.00  0.00    +0.000 A 
ATOM      5  C   UNL     1      88.544  67.794  86.574  0.00  0.00    +0.000 A 
ATOM      6  C   UNL     1      89.428  66.761  86.223  0.00  0.00    +0.000 A 
ATOM      7  C   UNL     1      89.330  65.507  86.826  0.00  0.00    +0.000 A 
ENDBRANCH   1   5
BRANCH   1   8
ATOM      8  C   UNL     1      88.370  70.313  86.895  0.00  0.00    +0.000 C 
ATOM      9  O   UNL     1      89.217  70.694  87.708  0.00  0.00    +0.000 OA
BRANCH   8  10
ATOM     10  C   UNL     1      87.054  71.030  86.864  0.00  0.00    +0.000 A 
ATOM     11  C   UNL     1      86.429  71.442  85.681  0.00  0.00    +0.000 A 
ATOM     12  C   UNL     1      85.206  72.121  85.727  0.00  0.00    +0.000 A 
ATOM     13  C   UNL     1      84.600  72.397  86.951  0.00  0.00    +0.000 A 
ATOM     14  C   UNL     1      85.213  71.996  88.134  0.00  0.00    +0.000 A 
ATOM     15  C   UNL     1      86.432  71.316  88.092  0.00  0.00    +0.000 A 
ENDBRANCH   8  10
ENDBRANCH   1   8
BRANCH   1  16
ATOM     16  O   UNL     1      89.958  69.284  85.367  0.00  0.00    +0.000 OA
BRANCH  16  17
ATOM     17  C   UNL     1      89.986  69.877  84.069  0.00  0.00    +0.000 C 
BRANCH  17  18
ATOM     18  C   UNL     1      90.719  71.206  84.158  0.00  0.00    +0.000 C 
ATOM     19 CL   UNL     1      89.572  72.562  84.126  0.00  0.00    +0.000 Cl
ENDBRANCH  17  18
ENDBRANCH  16  17
ENDBRANCH   1  16
TORSDOF 6
ENDMDL
