REMARK  Name = *****
REMARK  4 active torsions:
REMARK  status: ('A' for Active; 'I' for Inactive)
REMARK    1  A    between atoms: C_4  and  C_7
REMARK    2  A    between atoms: C_7  and  C_8
REMARK    3  A    between atoms: C_7  and  S_10
REMARK    4  A    between atoms: S_10  and  C_11
REMARK                            x       y       z     vdW  Elec       q    Type
REMARK                         _______ _______ _______ _____ _____    ______ ____
ROOT
ATOM      1  C   UNL     1       2.868  -0.730  -0.114  0.00  0.00    +0.000 C 
ENDROOT
BRANCH   1   5
ATOM      2  C   UNL     1      -1.428   0.348  -0.368  0.00  0.00    +0.000 C 
ATOM      3  C   UNL     1      -1.056  -1.026   0.173  0.00  0.00    +0.000 C 
ATOM      4  C   UNL     1       0.377  -1.412  -0.188  0.00  0.00    +0.000 C 
ATOM      5  C   UNL     1       1.406  -0.359   0.283  0.00  0.00    +0.000 C 
ATOM      6  C   UNL     1       1.002   1.024  -0.284  0.00  0.00    +0.000 C 
ATOM      7  C   UNL     1      -0.430   1.405   0.084  0.00  0.00    +0.000 C 
ENDBRANCH   1   5
BRANCH   1   8
ATOM      8  C   UNL     1       3.820   0.317   0.322  0.00  0.00    +0.000 C 
ATOM      9  N   UNL     1       4.560   1.149   0.655  0.00  0.00    +0.000 NA
ENDBRANCH   1   8
BRANCH   1  10
ATOM     10  S   UNL     1       3.357  -2.366   0.617  0.00  0.00    +0.000 S 
BRANCH  10  11
ATOM     11  C   UNL     1       4.869  -2.661  -0.279  0.00  0.00    +0.000 A 
ATOM     12  C   UNL     1       6.095  -2.272   0.268  0.00  0.00    +0.000 A 
ATOM     13  C   UNL     1       7.282  -2.508  -0.428  0.00  0.00    +0.000 A 
ATOM     14  C   UNL     1       7.248  -3.144  -1.668  0.00  0.00    +0.000 A 
ATOM     15  C   UNL     1       6.028  -3.545  -2.212  0.00  0.00    +0.000 A 
ATOM     16  C   UNL     1       4.840  -3.306  -1.518  0.00  0.00    +0.000 A 
ENDBRANCH  10  11
ENDBRANCH   1  10
TORSDOF 4
