MODEL 1
REMARK VINA RESULT:      -4.1      0.000      0.000
REMARK  Name = *****
REMARK  4 active torsions:
REMARK  status: ('A' for Active; 'I' for Inactive)
REMARK    1  A    between atoms: C_4  and  C_7
REMARK    2  A    between atoms: C_7  and  N_8
REMARK    3  A    between atoms: N_8  and  C_9
REMARK    4  A    between atoms: C_9  and  C_11
REMARK                            x       y       z     vdW  Elec       q    Type
REMARK                         _______ _______ _______ _____ _____    ______ ____
ROOT
ATOM      1  N   UNL     1      87.863  62.622  86.839  0.00  0.00    +0.000 N 
ATOM      2  H   UNL     1      88.556  61.933  86.951  0.00  0.00    +0.000 HD
ENDROOT
BRANCH   1   3
ATOM      3  C   UNL     1      87.985  63.431  85.725  0.00  0.00    +0.000 C 
ATOM      4  S   UNL     1      87.128  63.213  84.299  0.00  0.00    +0.000 S 
BRANCH   3   5
ATOM      5  C   UNL     1      88.935  64.545  85.834  0.00  0.00    +0.000 A 
ATOM      6  C   UNL     1      88.855  65.725  86.563  0.00  0.00    +0.000 A 
ATOM      7  C   UNL     1      89.996  66.566  86.408  0.00  0.00    +0.000 A 
ATOM      8  C   UNL     1      90.929  66.013  85.565  0.00  0.00    +0.000 A 
ATOM      9  S   UNL     1      90.431  64.496  84.969  0.00  0.00    +0.000 S 
ENDBRANCH   3   5
ENDBRANCH   1   3
BRANCH   1  10
ATOM     10  C   UNL     1      86.832  62.666  87.865  0.00  0.00    +0.000 C 
BRANCH  10  14
ATOM     11  C   UNL     1      88.289  64.239  91.622  0.00  0.00    +0.000 A 
ATOM     12  C   UNL     1      86.920  64.057  91.446  0.00  0.00    +0.000 A 
ATOM     13  C   UNL     1      86.427  63.547  90.242  0.00  0.00    +0.000 A 
ATOM     14  C   UNL     1      87.298  63.209  89.196  0.00  0.00    +0.000 A 
ATOM     15  C   UNL     1      88.676  63.401  89.391  0.00  0.00    +0.000 A 
ATOM     16  C   UNL     1      89.168  63.911  90.593  0.00  0.00    +0.000 A 
ENDBRANCH  10  14
ENDBRANCH   1  10
TORSDOF 4
ENDMDL
