REMARK  Name = *****
REMARK  4 active torsions:
REMARK  status: ('A' for Active; 'I' for Inactive)
REMARK    1  A    between atoms: C_7  and  C_8
REMARK    2  A    between atoms: C_8  and  O_9
REMARK    3  A    between atoms: O_9  and  C_10
REMARK    4  A    between atoms: C_10  and  C_11
REMARK                            x       y       z     vdW  Elec       q    Type
REMARK                         _______ _______ _______ _____ _____    ______ ____
ROOT
ATOM      1  C   UNL     1      -1.008   2.570  -0.102  0.00  0.00    +0.000 C 
ENDROOT
BRANCH   1   8
ATOM      2  C   UNL     1      -2.282  -0.083   0.458  0.00  0.00    +0.000 C 
ATOM      3  C   UNL     1      -1.050  -0.028  -0.075  0.00  0.00    +0.000 C 
ATOM      4  C   UNL     1      -0.292  -1.298  -0.395  0.00  0.00    +0.000 C 
ATOM      5  C   UNL     1       1.056  -1.318   0.322  0.00  0.00    +0.000 C 
ATOM      6  C   UNL     1       1.873  -0.064   0.020  0.00  0.00    +0.000 C 
ATOM      7  C   UNL     1       1.088   1.213   0.328  0.00  0.00    +0.000 C 
ATOM      8  C   UNL     1      -0.275   1.247  -0.398  0.00  0.00    +0.000 C 
ENDBRANCH   1   8
BRANCH   1   9
ATOM      9  O   UNL     1      -0.224   3.669  -0.574  0.00  0.00    +0.000 OA
BRANCH   9  10
ATOM     10  C   UNL     1      -0.868   4.919  -0.331  0.00  0.00    +0.000 C 
BRANCH  10  11
ATOM     11  C   UNL     1      -0.015   6.061  -0.827  0.00  0.00    +0.000 A 
ATOM     12  C   UNL     1       0.801   5.927  -1.960  0.00  0.00    +0.000 A 
ATOM     13  C   UNL     1       1.553   7.005  -2.429  0.00  0.00    +0.000 A 
ATOM     14  C   UNL     1       1.489   8.236  -1.779  0.00  0.00    +0.000 A 
ATOM     15  C   UNL     1       0.671   8.389  -0.661  0.00  0.00    +0.000 A 
ATOM     16  C   UNL     1      -0.080   7.310  -0.191  0.00  0.00    +0.000 A 
ENDBRANCH  10  11
ENDBRANCH   9  10
ENDBRANCH   1   9
TORSDOF 4
