MODEL 1
REMARK VINA RESULT:      -4.8      0.000      0.000
REMARK  Name = *****
REMARK  3 active torsions:
REMARK  status: ('A' for Active; 'I' for Inactive)
REMARK    1  A    between atoms: C_4  and  C_7
REMARK    2  A    between atoms: C_7  and  O_9
REMARK    3  A    between atoms: O_9  and  C_10
REMARK                            x       y       z     vdW  Elec       q    Type
REMARK                         _______ _______ _______ _____ _____    ______ ____
ROOT
ATOM      1  O   UNL     1     100.331 126.800  83.533  0.00  0.00    +0.000 OA
ENDROOT
BRANCH   1   2
ATOM      2  C   UNL     1     101.511 126.897  82.792  0.00  0.00    +0.000 A 
ATOM      3  C   UNL     1     102.295 128.048  82.862  0.00  0.00    +0.000 A 
ATOM      4  C   UNL     1     103.435 128.126  82.070  0.00  0.00    +0.000 A 
ATOM      5  C   UNL     1     103.788 127.094  81.209  0.00  0.00    +0.000 A 
ATOM      6  C   UNL     1     102.979 125.965  81.144  0.00  0.00    +0.000 A 
ATOM      7  C   UNL     1     101.832 125.855  81.924  0.00  0.00    +0.000 A 
ATOM      8  F   UNL     1     103.303 124.969  80.309  0.00  0.00    +0.000 F 
ATOM      9  F   UNL     1     104.202 129.223  82.130  0.00  0.00    +0.000 F 
ENDBRANCH   1   2
BRANCH   1  10
ATOM     10  C   UNL     1      99.285 127.544  83.015  0.00  0.00    +0.000 C 
ATOM     11  O   UNL     1      98.625 127.285  82.019  0.00  0.00    +0.000 OA
BRANCH  10  15
ATOM     12  C   UNL     1      98.557 130.940  85.532  0.00  0.00    +0.000 A 
ATOM     13  C   UNL     1      99.223 131.123  84.320  0.00  0.00    +0.000 A 
ATOM     14  C   UNL     1      99.471 130.032  83.484  0.00  0.00    +0.000 A 
ATOM     15  C   UNL     1      99.052 128.747  83.860  0.00  0.00    +0.000 A 
ATOM     16  C   UNL     1      98.382 128.573  85.080  0.00  0.00    +0.000 A 
ATOM     17  C   UNL     1      98.137 129.666  85.912  0.00  0.00    +0.000 A 
ENDBRANCH  10  15
ENDBRANCH   1  10
TORSDOF 3
ENDMDL
