MODEL 1
REMARK VINA RESULT:      -4.8      0.000      0.000
REMARK  Name = *****
REMARK  3 active torsions:
REMARK  status: ('A' for Active; 'I' for Inactive)
REMARK    1  A    between atoms: C_1  and  C_2
REMARK    2  A    between atoms: N_10  and  O_11
REMARK    3  A    between atoms: O_11  and  C_12
REMARK                            x       y       z     vdW  Elec       q    Type
REMARK                         _______ _______ _______ _____ _____    ______ ____
ROOT
ATOM      1  C   UNL     1     104.621 122.093  82.771  0.00  0.00    +0.000 C 
ATOM      2  C   UNL     1     104.452 123.384  82.020  0.00  0.00    +0.000 A 
ATOM      3  C   UNL     1     103.866 124.491  82.660  0.00  0.00    +0.000 A 
ATOM      4  C   UNL     1     103.714 125.653  81.897  0.00  0.00    +0.000 A 
ATOM      5  C   UNL     1     104.089 125.751  80.565  0.00  0.00    +0.000 A 
ATOM      6  C   UNL     1     104.657 124.640  79.929  0.00  0.00    +0.000 A 
ATOM      7  C   UNL     1     104.828 123.461  80.670  0.00  0.00    +0.000 A 
ATOM      8  N   UNL     1     103.798 127.004  80.087  0.00  0.00    +0.000 NA
ATOM      9  N   UNL     1     103.234 127.698  81.070  0.00  0.00    +0.000 NA
ATOM     10  N   UNL     1     103.224 126.905  82.156  0.00  0.00    +0.000 N 
ENDROOT
BRANCH  10  11
ATOM     11  O   UNL     1     102.598 127.337  83.327  0.00  0.00    +0.000 OA
BRANCH  11  12
ATOM     12  C   UNL     1     101.254 127.555  83.127  0.00  0.00    +0.000 A 
ATOM     13  C   UNL     1     100.756 128.782  83.571  0.00  0.00    +0.000 A 
ATOM     14  C   UNL     1      99.401 129.081  83.427  0.00  0.00    +0.000 A 
ATOM     15  C   UNL     1      98.540 128.148  82.851  0.00  0.00    +0.000 A 
ATOM     16  C   UNL     1      99.031 126.911  82.429  0.00  0.00    +0.000 A 
ATOM     17  C   UNL     1     100.386 126.609  82.575  0.00  0.00    +0.000 A 
ENDBRANCH  11  12
ENDBRANCH  10  11
TORSDOF 2
ENDMDL
