MODEL 1
REMARK VINA RESULT:      -5.0      0.000      0.000
REMARK  Name = *****
REMARK  2 active torsions:
REMARK  status: ('A' for Active; 'I' for Inactive)
REMARK    1  A    between atoms: C_4  and  C_7
REMARK    2  A    between atoms: C_8  and  C_9
REMARK                            x       y       z     vdW  Elec       q    Type
REMARK                         _______ _______ _______ _____ _____    ______ ____
ROOT
ATOM      1  C   UNL     1     102.840 126.222  81.369  0.00  0.00    +0.000 C 
ATOM      2  C   UNL     1     101.939 126.113  82.360  0.00  0.00    +0.000 C 
ENDROOT
BRANCH   2   3
ATOM      3  C   UNL     1     101.000 127.171  82.776  0.00  0.00    +0.000 A 
ATOM      4  C   UNL     1     101.382 128.349  83.430  0.00  0.00    +0.000 A 
ATOM      5  C   UNL     1     100.450 129.332  83.777  0.00  0.00    +0.000 A 
ATOM      6  C   UNL     1      99.105 129.160  83.463  0.00  0.00    +0.000 A 
ATOM      7  C   UNL     1      98.700 128.006  82.797  0.00  0.00    +0.000 A 
ATOM      8  C   UNL     1      99.642 127.033  82.458  0.00  0.00    +0.000 A 
ATOM      9  F   UNL     1      99.209 125.940  81.808  0.00  0.00    +0.000 F 
ATOM     10  F   UNL     1     102.668 128.583  83.733  0.00  0.00    +0.000 F 
ENDBRANCH   2   3
BRANCH   1  14
ATOM     11  C   UNL     1     105.609 123.108  80.391  0.00  0.00    +0.000 A 
ATOM     12  C   UNL     1     105.455 124.186  79.522  0.00  0.00    +0.000 A 
ATOM     13  C   UNL     1     104.549 125.206  79.825  0.00  0.00    +0.000 A 
ATOM     14  C   UNL     1     103.781 125.154  80.995  0.00  0.00    +0.000 A 
ATOM     15  C   UNL     1     103.958 124.074  81.870  0.00  0.00    +0.000 A 
ATOM     16  C   UNL     1     104.864 123.053  81.567  0.00  0.00    +0.000 A 
ENDBRANCH   1  14
TORSDOF 2
ENDMDL
