REMARK  Name = *****
REMARK  3 active torsions:
REMARK  status: ('A' for Active; 'I' for Inactive)
REMARK    1  A    between atoms: C_4  and  C_7
REMARK    2  A    between atoms: C_8  and  C_9
REMARK    3  A    between atoms: C_8  and  P_15
REMARK                            x       y       z     vdW  Elec       q    Type
REMARK                         _______ _______ _______ _____ _____    ______ ____
ROOT
ATOM      1  C   UNL     1      -2.709   0.380  -0.359  0.00  0.00    +0.000 C 
ATOM      2  C   UNL     1      -3.612  -0.619  -0.392  0.00  0.00    +0.000 C 
ENDROOT
BRANCH   1   6
ATOM      3  C   UNL     1       1.514   0.045   0.200  0.00  0.00    +0.000 A 
ATOM      4  C   UNL     1       0.906  -0.616  -0.865  0.00  0.00    +0.000 A 
ATOM      5  C   UNL     1      -0.474  -0.516  -1.055  0.00  0.00    +0.000 A 
ATOM      6  C   UNL     1      -1.257   0.238  -0.174  0.00  0.00    +0.000 A 
ATOM      7  C   UNL     1      -0.637   0.910   0.886  0.00  0.00    +0.000 A 
ATOM      8  C   UNL     1       0.744   0.810   1.075  0.00  0.00    +0.000 A 
ENDBRANCH   1   6
BRANCH   2   9
ATOM      9  C   UNL     1      -3.292  -2.048  -0.219  0.00  0.00    +0.000 A 
ATOM     10  C   UNL     1      -2.833  -2.528   1.015  0.00  0.00    +0.000 A 
ATOM     11  C   UNL     1      -2.525  -3.881   1.179  0.00  0.00    +0.000 A 
ATOM     12  C   UNL     1      -2.674  -4.765   0.112  0.00  0.00    +0.000 A 
ATOM     13  C   UNL     1      -3.130  -4.299  -1.120  0.00  0.00    +0.000 A 
ATOM     14  C   UNL     1      -3.437  -2.946  -1.286  0.00  0.00    +0.000 A 
ENDBRANCH   2   9
BRANCH   2  15
ATOM     15  P   UNL     1      -5.368  -0.191  -0.632  0.00  0.00    +0.000 P 
ATOM     16  H   UNL     1      -5.493   1.175  -0.776  0.00  0.00    +0.000 HD
ATOM     17  H   UNL     1      -6.096  -0.606   0.465  0.00  0.00    +0.000 HD
ENDBRANCH   2  15
TORSDOF 3
