MODEL 1
REMARK VINA RESULT:      -4.3      0.000      0.000
REMARK  Name = *****
REMARK  3 active torsions:
REMARK  status: ('A' for Active; 'I' for Inactive)
REMARK    1  A    between atoms: C_2  and  C_12
REMARK    2  A    between atoms: C_3  and  S_5
REMARK    3  A    between atoms: S_5  and  C_6
REMARK                            x       y       z     vdW  Elec       q    Type
REMARK                         _______ _______ _______ _____ _____    ______ ____
ROOT
ATOM      1  C   UNL     1     103.503 129.489  83.782  0.00  0.00    +0.000 C 
ATOM      2  C   UNL     1     102.803 128.153  83.856  0.00  0.00    +0.000 C 
ATOM      3  C   UNL     1     103.916 128.389  82.851  0.00  0.00    +0.000 C 
ATOM      4  F   UNL     1     103.520 128.560  81.526  0.00  0.00    +0.000 F 
ENDROOT
BRANCH   2   5
ATOM      5  C   UNL     1     101.361 128.039  83.417  0.00  0.00    +0.000 A 
ATOM      6  C   UNL     1     100.871 126.884  82.785  0.00  0.00    +0.000 A 
ATOM      7  C   UNL     1      99.533 126.775  82.400  0.00  0.00    +0.000 A 
ATOM      8  C   UNL     1      98.650 127.821  82.647  0.00  0.00    +0.000 A 
ATOM      9  C   UNL     1      99.104 128.972  83.283  0.00  0.00    +0.000 A 
ATOM     10  C   UNL     1     100.445 129.076  83.664  0.00  0.00    +0.000 A 
ENDBRANCH   2   5
BRANCH   3  11
ATOM     11  S   UNL     1     105.441 127.570  83.055  0.00  0.00    +0.000 S 
BRANCH  11  12
ATOM     12  C   UNL     1     105.271 126.347  81.768  0.00  0.00    +0.000 A 
ATOM     13  C   UNL     1     104.337 125.316  81.913  0.00  0.00    +0.000 A 
ATOM     14  C   UNL     1     104.186 124.356  80.910  0.00  0.00    +0.000 A 
ATOM     15  C   UNL     1     104.963 124.426  79.755  0.00  0.00    +0.000 A 
ATOM     16  C   UNL     1     105.889 125.457  79.599  0.00  0.00    +0.000 A 
ATOM     17  C   UNL     1     106.040 126.417  80.602  0.00  0.00    +0.000 A 
ENDBRANCH  11  12
ENDBRANCH   3  11
TORSDOF 3
ENDMDL
