MODEL 1
REMARK VINA RESULT:      -4.0      0.000      0.000
REMARK  Name = *****
REMARK  5 active torsions:
REMARK  status: ('A' for Active; 'I' for Inactive)
REMARK    1  A    between atoms: C_1  and  C_2
REMARK    2  A    between atoms: C_5  and  C_8
REMARK    3  A    between atoms: N_9  and  O_10
REMARK    4  A    between atoms: O_10  and  C_11
REMARK    5  A    between atoms: C_11  and  C_12
REMARK                            x       y       z     vdW  Elec       q    Type
REMARK                         _______ _______ _______ _____ _____    ______ ____
ROOT
ATOM      1  C   UNL     1      88.286  65.182  87.458  0.00  0.00    +0.000 C 
ATOM      2  N   UNL     1      88.270  64.403  86.416  0.00  0.00    +0.000 NA
ENDROOT
BRANCH   1   7
ATOM      3  C   UNL     1      86.755  64.274  92.962  0.00  0.00    +0.000 C 
ATOM      4  C   UNL     1      87.149  64.473  91.527  0.00  0.00    +0.000 A 
ATOM      5  C   UNL     1      88.339  63.922  91.037  0.00  0.00    +0.000 A 
ATOM      6  C   UNL     1      88.724  64.130  89.710  0.00  0.00    +0.000 A 
ATOM      7  C   UNL     1      87.919  64.892  88.861  0.00  0.00    +0.000 A 
ATOM      8  C   UNL     1      86.747  65.477  89.353  0.00  0.00    +0.000 A 
ATOM      9  C   UNL     1      86.365  65.265  90.681  0.00  0.00    +0.000 A 
ENDBRANCH   1   7
BRANCH   2  10
ATOM     10  O   UNL     1      87.759  63.132  86.704  0.00  0.00    +0.000 OA
BRANCH  10  11
ATOM     11  C   UNL     1      86.350  63.128  86.466  0.00  0.00    +0.000 C 
BRANCH  11  12
ATOM     12  C   UNL     1      85.626  62.611  87.684  0.00  0.00    +0.000 A 
ATOM     13  C   UNL     1      86.272  61.776  88.609  0.00  0.00    +0.000 A 
ATOM     14  C   UNL     1      85.605  61.327  89.750  0.00  0.00    +0.000 A 
ATOM     15  C   UNL     1      84.288  61.715  89.986  0.00  0.00    +0.000 A 
ATOM     16  C   UNL     1      83.638  62.556  89.083  0.00  0.00    +0.000 A 
ATOM     17  C   UNL     1      84.303  63.004  87.941  0.00  0.00    +0.000 A 
ENDBRANCH  11  12
ENDBRANCH  10  11
ENDBRANCH   2  10
TORSDOF 4
ENDMDL
