MODEL 1
REMARK VINA RESULT:      -4.7      0.000      0.000
REMARK  Name = *****
REMARK  3 active torsions:
REMARK  status: ('A' for Active; 'I' for Inactive)
REMARK    1  A    between atoms: C_3  and  C_4
REMARK    2  A    between atoms: C_9  and  N_10
REMARK    3  A    between atoms: C_11  and  C_12
REMARK                            x       y       z     vdW  Elec       q    Type
REMARK                         _______ _______ _______ _____ _____    ______ ____
ROOT
ATOM      1  C   UNL     1      88.812  69.740  87.249  0.00  0.00    +0.000 A 
ATOM      2  C   UNL     1      89.486  70.799  86.611  0.00  0.00    +0.000 A 
ATOM      3  C   UNL     1      90.064  70.648  85.348  0.00  0.00    +0.000 A 
ATOM      4  C   UNL     1      89.997  69.424  84.695  0.00  0.00    +0.000 A 
ATOM      5  C   UNL     1      89.353  68.352  85.310  0.00  0.00    +0.000 A 
ATOM      6  C   UNL     1      88.755  68.500  86.570  0.00  0.00    +0.000 A 
ENDROOT
BRANCH   1   9
ATOM      7  C   UNL     1      87.087  70.889  88.851  0.00  0.00    +0.000 C 
ATOM      8  C   UNL     1      88.433  71.172  89.443  0.00  0.00    +0.000 C 
ATOM      9  C   UNL     1      88.221  69.910  88.636  0.00  0.00    +0.000 C 
ENDBRANCH   1   9
BRANCH   6  10
ATOM     10  N   UNL     1      88.147  67.378  87.162  0.00  0.00    +0.000 NA
ATOM     11  C   UNL     1      88.705  66.236  86.906  0.00  0.00    +0.000 C 
BRANCH  11  12
ATOM     12  C   UNL     1      88.171  64.971  87.445  0.00  0.00    +0.000 A 
ATOM     13  C   UNL     1      88.409  64.602  88.775  0.00  0.00    +0.000 A 
ATOM     14  C   UNL     1      87.892  63.403  89.264  0.00  0.00    +0.000 A 
ATOM     15  C   UNL     1      87.144  62.585  88.423  0.00  0.00    +0.000 A 
ATOM     16  C   UNL     1      86.903  62.943  87.100  0.00  0.00    +0.000 A 
ATOM     17  C   UNL     1      87.417  64.144  86.605  0.00  0.00    +0.000 A 
ATOM     18  F   UNL     1      86.648  61.433  88.892  0.00  0.00    +0.000 F 
ENDBRANCH  11  12
ENDBRANCH   6  10
TORSDOF 3
ENDMDL
