MODEL 1
REMARK VINA RESULT:      -4.5      0.000      0.000
REMARK  Name = *****
REMARK  4 active torsions:
REMARK  status: ('A' for Active; 'I' for Inactive)
REMARK    1  A    between atoms: C_4  and  C_7
REMARK    2  A    between atoms: C_7  and  O_8
REMARK    3  A    between atoms: O_8  and  C_9
REMARK    4  A    between atoms: C_9  and  C_11
REMARK                            x       y       z     vdW  Elec       q    Type
REMARK                         _______ _______ _______ _____ _____    ______ ____
ROOT
ATOM      1  O   UNL     1     103.543 125.040  80.128  0.00  0.00    +0.000 OA
ENDROOT
BRANCH   1   2
ATOM      2  C   UNL     1     104.712 124.356  80.136  0.00  0.00    +0.000 C 
ATOM      3  O   UNL     1     105.705 124.613  79.474  0.00  0.00    +0.000 OA
BRANCH   2   4
ATOM      4  C   UNL     1     104.633 123.207  81.079  0.00  0.00    +0.000 A 
ATOM      5  C   UNL     1     104.666 121.874  80.647  0.00  0.00    +0.000 A 
ATOM      6  C   UNL     1     104.590 120.832  81.574  0.00  0.00    +0.000 A 
ATOM      7  C   UNL     1     104.481 121.114  82.935  0.00  0.00    +0.000 A 
ATOM      8  C   UNL     1     104.445 122.437  83.374  0.00  0.00    +0.000 A 
ATOM      9  C   UNL     1     104.519 123.481  82.449  0.00  0.00    +0.000 A 
ENDBRANCH   2   4
ENDBRANCH   1   2
BRANCH   1  10
ATOM     10  C   UNL     1     103.654 126.465  80.252  0.00  0.00    +0.000 C 
BRANCH  10  14
ATOM     11  C   UNL     1     101.224 127.789  83.702  0.00  0.00    +0.000 C 
ATOM     12  C   UNL     1     102.532 128.532  83.377  0.00  0.00    +0.000 C 
ATOM     13  C   UNL     1     103.235 128.070  82.131  0.00  0.00    +0.000 C 
ATOM     14  C   UNL     1     102.914 126.935  81.482  0.00  0.00    +0.000 C 
ATOM     15  C   UNL     1     101.850 126.087  81.991  0.00  0.00    +0.000 C 
ATOM     16  C   UNL     1     101.063 126.469  83.007  0.00  0.00    +0.000 C 
ENDBRANCH  10  14
ENDBRANCH   1  10
TORSDOF 4
ENDMDL
