MODEL 1
REMARK VINA RESULT:      -3.8      0.000      0.000
REMARK  Name = *****
REMARK  4 active torsions:
REMARK  status: ('A' for Active; 'I' for Inactive)
REMARK    1  A    between atoms: C_1  and  C_2
REMARK    2  A    between atoms: C_4  and  S_8
REMARK    3  A    between atoms: S_8  and  C_9
REMARK    4  A    between atoms: C_9  and  C_10
REMARK                            x       y       z     vdW  Elec       q    Type
REMARK                         _______ _______ _______ _____ _____    ______ ____
ROOT
ATOM      1  C   UNL     1      84.732  60.980  90.168  0.00  0.00    +0.000 C 
ATOM      2  C   UNL     1      85.799  62.014  89.949  0.00  0.00    +0.000 C 
ATOM      3  C   UNL     1      86.524  62.062  88.814  0.00  0.00    +0.000 C 
ATOM      4  C   UNL     1      87.630  63.051  88.554  0.00  0.00    +0.000 C 
ATOM      5  C   UNL     1      88.056  63.793  89.830  0.00  0.00    +0.000 C 
ATOM      6  C   UNL     1      86.860  64.205  90.687  0.00  0.00    +0.000 C 
ATOM      7  C   UNL     1      86.006  62.997  91.073  0.00  0.00    +0.000 C 
ENDROOT
BRANCH   4   8
ATOM      8  S   UNL     1      87.033  64.193  87.249  0.00  0.00    +0.000 S 
BRANCH   8   9
ATOM      9  C   UNL     1      88.130  65.610  87.576  0.00  0.00    +0.000 C 
BRANCH   9  10
ATOM     10  C   UNL     1      89.319  65.579  86.687  0.00  0.00    +0.000 A 
ATOM     11  C   UNL     1      90.211  66.540  86.252  0.00  0.00    +0.000 A 
ATOM     12  C   UNL     1      91.124  65.882  85.394  0.00  0.00    +0.000 A 
ATOM     13  C   UNL     1      90.728  64.566  85.353  0.00  0.00    +0.000 A 
ATOM     14  O   UNL     1      89.631  64.373  86.128  0.00  0.00    +0.000 OA
ENDBRANCH   9  10
ENDBRANCH   8   9
ENDBRANCH   4   8
TORSDOF 3
ENDMDL
