MODEL 1
REMARK VINA RESULT:      -4.1      0.000      0.000
REMARK  Name = *****
REMARK  5 active torsions:
REMARK  status: ('A' for Active; 'I' for Inactive)
REMARK    1  A    between atoms: C_4  and  O_7
REMARK    2  A    between atoms: O_7  and  C_8
REMARK    3  A    between atoms: C_8  and  C_10
REMARK    4  A    between atoms: C_10  and  C_11
REMARK    5  A    between atoms: C_11  and  C_12
REMARK                            x       y       z     vdW  Elec       q    Type
REMARK                         _______ _______ _______ _____ _____    ______ ____
ROOT
ATOM      1  C   UNL     1     102.656 125.297  83.011  0.00  0.00    +0.000 C 
ATOM      2  O   UNL     1     102.660 125.026  84.203  0.00  0.00    +0.000 OA
ENDROOT
BRANCH   1   3
ATOM      3  O   UNL     1     101.634 125.892  82.336  0.00  0.00    +0.000 OA
BRANCH   3   7
ATOM      4  C   UNL     1      99.229 129.263  83.256  0.00  0.00    +0.000 C 
ATOM      5  C   UNL     1      98.530 127.913  83.117  0.00  0.00    +0.000 C 
ATOM      6  C   UNL     1      99.419 126.890  82.416  0.00  0.00    +0.000 C 
ATOM      7  C   UNL     1     100.774 126.745  83.114  0.00  0.00    +0.000 C 
ATOM      8  C   UNL     1     101.469 128.105  83.237  0.00  0.00    +0.000 C 
ATOM      9  C   UNL     1     100.585 129.128  83.942  0.00  0.00    +0.000 C 
ENDBRANCH   3   7
ENDBRANCH   1   3
BRANCH   1  10
ATOM     10  C   UNL     1     103.809 125.026  82.079  0.00  0.00    +0.000 C 
BRANCH  10  11
ATOM     11  C   UNL     1     103.443 125.394  80.645  0.00  0.00    +0.000 C 
BRANCH  11  12
ATOM     12  C   UNL     1     104.308 126.526  80.092  0.00  0.00    +0.000 C 
ATOM     13  C   UNL     1     105.742 126.539  80.619  0.00  0.00    +0.000 C 
ATOM     14  C   UNL     1     106.226 127.973  80.412  0.00  0.00    +0.000 C 
ATOM     15  C   UNL     1     104.975 128.824  80.196  0.00  0.00    +0.000 C 
ATOM     16  C   UNL     1     103.799 127.907  80.502  0.00  0.00    +0.000 C 
ENDBRANCH  11  12
ENDBRANCH  10  11
ENDBRANCH   1  10
TORSDOF 5
ENDMDL
