MODEL 1
REMARK VINA RESULT:      -3.4      0.000      0.000
REMARK  Name = *****
REMARK  3 active torsions:
REMARK  status: ('A' for Active; 'I' for Inactive)
REMARK    1  A    between atoms: C_4  and  C_6
REMARK    2  A    between atoms: C_6  and  S_7
REMARK    3  A    between atoms: S_7  and  C_8
REMARK                            x       y       z     vdW  Elec       q    Type
REMARK                         _______ _______ _______ _____ _____    ______ ____
ROOT
ATOM      1  S   UNL     1      89.126  70.237  86.500  0.00  0.00    +0.000 S 
ENDROOT
BRANCH   1   2
ATOM      2  C   UNL     1      89.144  68.502  86.535  0.00  0.00    +0.000 A 
ATOM      3  C   UNL     1      90.133  67.833  85.931  0.00  0.00    +0.000 A 
ATOM      4  C   UNL     1      90.074  66.359  85.981  0.00  0.00    +0.000 A 
ATOM      5  S   UNL     1      91.189  65.336  85.272  0.00  0.00    +0.000 S 
ATOM      6  S   UNL     1      88.698  65.780  86.903  0.00  0.00    +0.000 S 
ATOM      7  S   UNL     1      87.860  67.602  87.275  0.00  0.00    +0.000 S 
ENDBRANCH   1   2
BRANCH   1   8
ATOM      8  C   UNL     1      87.695  70.535  85.410  0.00  0.00    +0.000 C 
BRANCH   8  12
ATOM      9  C   UNL     1      84.479  72.371  86.195  0.00  0.00    +0.000 C 
ATOM     10  C   UNL     1      84.997  72.082  87.603  0.00  0.00    +0.000 C 
ATOM     11  C   UNL     1      86.259  71.241  87.430  0.00  0.00    +0.000 C 
ATOM     12  C   UNL     1      86.740  71.565  86.015  0.00  0.00    +0.000 C 
ATOM     13  C   UNL     1      85.421  71.643  85.244  0.00  0.00    +0.000 C 
ENDBRANCH   8  12
ENDBRANCH   1   8
TORSDOF 3
ENDMDL
