MODEL 1
REMARK VINA RESULT:      -5.1      0.000      0.000
REMARK  Name = *****
REMARK  1 active torsions:
REMARK  status: ('A' for Active; 'I' for Inactive)
REMARK    1  A    between atoms: C_4  and  C_5
REMARK                            x       y       z     vdW  Elec       q    Type
REMARK                         _______ _______ _______ _____ _____    ______ ____
ROOT
ATOM      1  C   UNL     1     104.788 127.198  79.789  0.00  0.00    +0.000 C 
ATOM      2  C   UNL     1     103.397 127.356  80.417  0.00  0.00    +0.000 C 
ATOM      3  C   UNL     1     103.177 126.126  81.272  0.00  0.00    +0.000 C 
ATOM      4  C   UNL     1     102.322 125.990  82.300  0.00  0.00    +0.000 C 
ATOM      5  F   UNL     1     102.337 124.856  83.039  0.00  0.00    +0.000 F 
ATOM      6  C   UNL     1     104.150 125.127  80.819  0.00  0.00    +0.000 A 
ATOM      7  C   UNL     1     104.260 123.775  81.109  0.00  0.00    +0.000 A 
ATOM      8  C   UNL     1     105.290 123.037  80.517  0.00  0.00    +0.000 A 
ATOM      9  C   UNL     1     106.198 123.654  79.645  0.00  0.00    +0.000 A 
ATOM     10  C   UNL     1     106.085 125.014  79.354  0.00  0.00    +0.000 A 
ATOM     11  C   UNL     1     105.052 125.734  79.940  0.00  0.00    +0.000 A 
ENDROOT
BRANCH   4  12
ATOM     12  C   UNL     1     101.382 127.024  82.754  0.00  0.00    +0.000 A 
ATOM     13  C   UNL     1     101.815 128.191  83.398  0.00  0.00    +0.000 A 
ATOM     14  C   UNL     1     100.895 129.162  83.800  0.00  0.00    +0.000 A 
ATOM     15  C   UNL     1      99.536 128.980  83.553  0.00  0.00    +0.000 A 
ATOM     16  C   UNL     1      99.095 127.833  82.897  0.00  0.00    +0.000 A 
ATOM     17  C   UNL     1     100.014 126.862  82.493  0.00  0.00    +0.000 A 
ENDBRANCH   4  12
TORSDOF 1
ENDMDL
