MODEL 1
REMARK VINA RESULT:      -4.2      0.000      0.000
REMARK  Name = *****
REMARK  4 active torsions:
REMARK  status: ('A' for Active; 'I' for Inactive)
REMARK    1  A    between atoms: C_1  and  C_2
REMARK    2  A    between atoms: C_5  and  N_8
REMARK    3  A    between atoms: N_8  and  C_9
REMARK    4  A    between atoms: C_9  and  C_10
REMARK                            x       y       z     vdW  Elec       q    Type
REMARK                         _______ _______ _______ _____ _____    ______ ____
ROOT
ATOM      1  C   UNL     1     102.883 127.722  84.666  0.00  0.00    +0.000 C 
ATOM      2  C   UNL     1     102.256 128.022  83.304  0.00  0.00    +0.000 C 
ATOM      3  C   UNL     1     101.257 126.912  82.892  0.00  0.00    +0.000 C 
ATOM      4  C   UNL     1     101.793 125.900  81.915  0.00  0.00    +0.000 C 
ATOM      5  C   UNL     1     102.895 126.126  81.184  0.00  0.00    +0.000 C 
ATOM      6  C   UNL     1     103.633 127.362  81.322  0.00  0.00    +0.000 C 
ATOM      7  C   UNL     1     103.349 128.249  82.288  0.00  0.00    +0.000 C 
ATOM      8  F   UNL     1     101.543 129.182  83.442  0.00  0.00    +0.000 F 
ENDROOT
BRANCH   5   9
ATOM      9  N   UNL     1     103.407 125.220  80.301  0.00  0.00    +0.000 NA
BRANCH   9  10
ATOM     10  C   UNL     1     104.516 124.660  80.676  0.00  0.00    +0.000 C 
BRANCH  10  11
ATOM     11  C   UNL     1     104.532 123.393  81.434  0.00  0.00    +0.000 A 
ATOM     12  C   UNL     1     104.395 123.388  82.825  0.00  0.00    +0.000 A 
ATOM     13  C   UNL     1     104.413 122.178  83.520  0.00  0.00    +0.000 A 
ATOM     14  C   UNL     1     104.569 120.978  82.825  0.00  0.00    +0.000 A 
ATOM     15  C   UNL     1     104.705 120.984  81.436  0.00  0.00    +0.000 A 
ATOM     16  C   UNL     1     104.688 122.192  80.737  0.00  0.00    +0.000 A 
ENDBRANCH  10  11
ENDBRANCH   9  10
ENDBRANCH   5   9
TORSDOF 3
ENDMDL
