REMARK  Name = *****
REMARK  5 active torsions:
REMARK  status: ('A' for Active; 'I' for Inactive)
REMARK    1  A    between atoms: C_1  and  C_2
REMARK    2  A    between atoms: C_7  and  C_8
REMARK    3  A    between atoms: C_8  and  C_9
REMARK    4  A    between atoms: C_8  and  S_10
REMARK    5  A    between atoms: S_10  and  C_11
REMARK                            x       y       z     vdW  Elec       q    Type
REMARK                         _______ _______ _______ _____ _____    ______ ____
ROOT
ATOM      1  C   UNL     1       1.169  -2.518  -0.034  0.00  0.00    +0.000 C 
ATOM      2  C   UNL     1       0.464  -3.446  -1.023  0.00  0.00    +0.000 C 
ENDROOT
BRANCH   1   9
ATOM      3  C   UNL     1      -0.645  -0.759  -1.962  0.00  0.00    +0.000 C 
ATOM      4  C   UNL     1      -0.241  -0.362  -0.569  0.00  0.00    +0.000 A 
ATOM      5  C   UNL     1      -0.721   0.882  -0.105  0.00  0.00    +0.000 A 
ATOM      6  C   UNL     1      -0.407   1.361   1.164  0.00  0.00    +0.000 A 
ATOM      7  C   UNL     1       0.395   0.605   2.002  0.00  0.00    +0.000 A 
ATOM      8  C   UNL     1       0.872  -0.631   1.566  0.00  0.00    +0.000 A 
ATOM      9  C   UNL     1       0.567  -1.150   0.282  0.00  0.00    +0.000 A 
ENDBRANCH   1   9
BRANCH   1  10
ATOM     10  S   UNL     1       2.987  -2.450  -0.372  0.00  0.00    +0.000 S 
BRANCH  10  11
ATOM     11  C   UNL     1       3.057  -1.468  -1.855  0.00  0.00    +0.000 A 
ATOM     12  C   UNL     1       3.088  -0.073  -1.782  0.00  0.00    +0.000 A 
ATOM     13  C   UNL     1       3.169   0.693  -2.947  0.00  0.00    +0.000 A 
ATOM     14  C   UNL     1       3.238   0.066  -4.190  0.00  0.00    +0.000 A 
ATOM     15  C   UNL     1       3.231  -1.326  -4.269  0.00  0.00    +0.000 A 
ATOM     16  C   UNL     1       3.148  -2.091  -3.104  0.00  0.00    +0.000 A 
ENDBRANCH  10  11
ENDBRANCH   1  10
TORSDOF 3
