MODEL 1
REMARK VINA RESULT:      -4.4      0.000      0.000
REMARK  Name = *****
REMARK  3 active torsions:
REMARK  status: ('A' for Active; 'I' for Inactive)
REMARK    1  A    between atoms: C_4  and  O_7
REMARK    2  A    between atoms: O_7  and  C_8
REMARK    3  A    between atoms: C_8  and  C_10
REMARK                            x       y       z     vdW  Elec       q    Type
REMARK                         _______ _______ _______ _____ _____    ______ ____
ROOT
ATOM      1  C   UNL     1     102.692 125.297  82.572  0.00  0.00    +0.000 C 
ATOM      2  O   UNL     1     102.817 124.951  83.736  0.00  0.00    +0.000 OA
ENDROOT
BRANCH   1   3
ATOM      3  C   UNL     1     103.712 125.022  81.522  0.00  0.00    +0.000 A 
ATOM      4  C   UNL     1     104.137 126.090  80.718  0.00  0.00    +0.000 A 
ATOM      5  C   UNL     1     105.095 125.886  79.720  0.00  0.00    +0.000 A 
ATOM      6  C   UNL     1     105.629 124.614  79.524  0.00  0.00    +0.000 A 
ATOM      7  C   UNL     1     105.215 123.544  80.317  0.00  0.00    +0.000 A 
ATOM      8  C   UNL     1     104.257 123.746  81.316  0.00  0.00    +0.000 A 
ATOM      9 CL   UNL     1     106.808 124.361  78.297  0.00  0.00    +0.000 Cl
ENDBRANCH   1   3
BRANCH   1  10
ATOM     10  O   UNL     1     101.636 125.964  82.044  0.00  0.00    +0.000 OA
BRANCH  10  14
ATOM     11  C   UNL     1      99.309 129.233  83.417  0.00  0.00    +0.000 C 
ATOM     12  C   UNL     1      98.622 127.876  83.303  0.00  0.00    +0.000 C 
ATOM     13  C   UNL     1      99.431 126.907  82.448  0.00  0.00    +0.000 C 
ATOM     14  C   UNL     1     100.866 126.761  82.964  0.00  0.00    +0.000 C 
ATOM     15  C   UNL     1     101.547 128.128  83.064  0.00  0.00    +0.000 C 
ATOM     16  C   UNL     1     100.743 129.099  83.921  0.00  0.00    +0.000 C 
ENDBRANCH  10  14
ENDBRANCH   1  10
TORSDOF 3
ENDMDL
