MODEL 1
REMARK VINA RESULT:      -4.5      0.000      0.000
REMARK  Name = *****
REMARK  4 active torsions:
REMARK  status: ('A' for Active; 'I' for Inactive)
REMARK    1  A    between atoms: C_1  and  C_2
REMARK    2  A    between atoms: C_5  and  O_8
REMARK    3  A    between atoms: O_8  and  C_9
REMARK    4  A    between atoms: C_9  and  C_11
REMARK                            x       y       z     vdW  Elec       q    Type
REMARK                         _______ _______ _______ _____ _____    ______ ____
ROOT
ATOM      1  O   UNL     1     103.481 126.347  81.988  0.00  0.00    +0.000 OA
ENDROOT
BRANCH   1   6
ATOM      2  C   UNL     1      98.854 128.929  84.034  0.00  0.00    +0.000 C 
ATOM      3  C   UNL     1     100.069 128.262  83.459  0.00  0.00    +0.000 A 
ATOM      4  C   UNL     1      99.951 127.042  82.776  0.00  0.00    +0.000 A 
ATOM      5  C   UNL     1     101.083 126.406  82.266  0.00  0.00    +0.000 A 
ATOM      6  C   UNL     1     102.332 126.998  82.440  0.00  0.00    +0.000 A 
ATOM      7  C   UNL     1     102.475 128.190  83.144  0.00  0.00    +0.000 A 
ATOM      8  C   UNL     1     101.340 128.822  83.652  0.00  0.00    +0.000 A 
ENDBRANCH   1   6
BRANCH   1   9
ATOM      9  C   UNL     1     103.685 126.458  80.618  0.00  0.00    +0.000 C 
ATOM     10  O   UNL     1     103.406 127.422  79.913  0.00  0.00    +0.000 OA
BRANCH   9  11
ATOM     11  C   UNL     1     104.285 125.175  80.071  0.00  0.00    +0.000 C 
ATOM     12  C   UNL     1     104.246 124.069  81.129  0.00  0.00    +0.000 C 
ATOM     13  C   UNL     1     104.851 122.771  80.600  0.00  0.00    +0.000 C 
ATOM     14  C   UNL     1     106.262 122.986  80.058  0.00  0.00    +0.000 C 
ATOM     15  C   UNL     1     106.300 124.089  79.003  0.00  0.00    +0.000 C 
ATOM     16  C   UNL     1     105.703 125.391  79.531  0.00  0.00    +0.000 C 
ENDBRANCH   9  11
ENDBRANCH   1   9
TORSDOF 3
ENDMDL
