MODEL 1
REMARK VINA RESULT:      -5.1      0.000      0.000
REMARK  Name = *****
REMARK  2 active torsions:
REMARK  status: ('A' for Active; 'I' for Inactive)
REMARK    1  A    between atoms: C_4  and  C_7
REMARK    2  A    between atoms: P_10  and  C_12
REMARK                            x       y       z     vdW  Elec       q    Type
REMARK                         _______ _______ _______ _____ _____    ______ ____
ROOT
ATOM      1  C   UNL     1     103.547 126.000  80.818  0.00  0.00    +0.000 C 
ATOM      2  C   UNL     1     104.411 127.267  80.938  0.00  0.00    +0.000 C 
ATOM      3  C   UNL     1     103.622 128.268  81.781  0.00  0.00    +0.000 C 
ATOM      4  P   UNL     1     102.927 127.273  83.181  0.00  0.00    +0.000 P 
ATOM      5  C   UNL     1     103.089 125.668  82.252  0.00  0.00    +0.000 C 
ENDROOT
BRANCH   1   9
ATOM      6  C   UNL     1     106.590 122.929  79.960  0.00  0.00    +0.000 C 
ATOM      7  C   UNL     1     105.231 122.469  80.473  0.00  0.00    +0.000 C 
ATOM      8  C   UNL     1     104.444 123.619  81.099  0.00  0.00    +0.000 C 
ATOM      9  C   UNL     1     104.287 124.815  80.141  0.00  0.00    +0.000 C 
ATOM     10  C   UNL     1     105.668 125.252  79.609  0.00  0.00    +0.000 C 
ATOM     11  C   UNL     1     106.446 124.093  78.989  0.00  0.00    +0.000 C 
ENDBRANCH   1   9
BRANCH   4  12
ATOM     12  C   UNL     1     101.146 127.631  83.089  0.00  0.00    +0.000 A 
ATOM     13  C   UNL     1     100.552 128.810  83.555  0.00  0.00    +0.000 A 
ATOM     14  C   UNL     1      99.172 129.013  83.444  0.00  0.00    +0.000 A 
ATOM     15  C   UNL     1      98.365 128.039  82.863  0.00  0.00    +0.000 A 
ATOM     16  C   UNL     1      98.937 126.861  82.394  0.00  0.00    +0.000 A 
ATOM     17  C   UNL     1     100.316 126.659  82.507  0.00  0.00    +0.000 A 
ENDBRANCH   4  12
TORSDOF 2
ENDMDL
