MODEL 1
REMARK VINA RESULT:      -4.5      0.000      0.000
REMARK  Name = *****
REMARK  4 active torsions:
REMARK  status: ('A' for Active; 'I' for Inactive)
REMARK    1  A    between atoms: C_3  and  C_9
REMARK    2  A    between atoms: C_9  and  C_11
REMARK    3  A    between atoms: C_11  and  C_12
REMARK    4  A    between atoms: C_12  and  C_13
REMARK                            x       y       z     vdW  Elec       q    Type
REMARK                         _______ _______ _______ _____ _____    ______ ____
ROOT
ATOM      1  C   UNL     1      88.630  67.262  85.963  0.00  0.00    +0.000 C 
ATOM      2  O   UNL     1      88.005  67.190  84.905  0.00  0.00    +0.000 OA
ENDROOT
BRANCH   1   5
ATOM      3  C   UNL     1      88.406  64.474  88.508  0.00  0.00    +0.000 A 
ATOM      4  C   UNL     1      88.815  65.261  87.428  0.00  0.00    +0.000 A 
ATOM      5  C   UNL     1      88.151  66.463  87.129  0.00  0.00    +0.000 A 
ATOM      6  C   UNL     1      87.077  66.852  87.935  0.00  0.00    +0.000 A 
ATOM      7  C   UNL     1      86.665  66.071  89.014  0.00  0.00    +0.000 A 
ATOM      8  C   UNL     1      87.335  64.888  89.290  0.00  0.00    +0.000 A 
ATOM      9  F   UNL     1      86.944  64.134  90.324  0.00  0.00    +0.000 F 
ATOM     10  F   UNL     1      86.403  67.987  87.704  0.00  0.00    +0.000 F 
ENDBRANCH   1   5
BRANCH   1  11
ATOM     11  C   UNL     1      89.861  68.136  86.106  0.00  0.00    +0.000 C 
BRANCH  11  12
ATOM     12  C   UNL     1      89.557  69.597  85.772  0.00  0.00    +0.000 C 
BRANCH  12  13
ATOM     13  C   UNL     1      88.628  70.214  86.789  0.00  0.00    +0.000 A 
ATOM     14  C   UNL     1      88.940  70.178  88.154  0.00  0.00    +0.000 A 
ATOM     15  C   UNL     1      88.063  70.731  89.083  0.00  0.00    +0.000 A 
ATOM     16  C   UNL     1      86.870  71.320  88.688  0.00  0.00    +0.000 A 
ATOM     17  C   UNL     1      86.554  71.354  87.334  0.00  0.00    +0.000 A 
ATOM     18  C   UNL     1      87.421  70.804  86.386  0.00  0.00    +0.000 A 
ATOM     19 CL   UNL     1      85.077  72.074  86.820  0.00  0.00    +0.000 Cl
ATOM     20  F   UNL     1      88.375  70.689  90.385  0.00  0.00    +0.000 F 
ENDBRANCH  12  13
ENDBRANCH  11  12
ENDBRANCH   1  11
TORSDOF 4
ENDMDL
