MODEL 1
REMARK VINA RESULT:      -4.5      0.000      0.000
REMARK  Name = *****
REMARK  4 active torsions:
REMARK  status: ('A' for Active; 'I' for Inactive)
REMARK    1  A    between atoms: C_1  and  S_2
REMARK    2  A    between atoms: S_2  and  C_3
REMARK    3  A    between atoms: C_8  and  C_9
REMARK    4  A    between atoms: C_10  and  C_11
REMARK                            x       y       z     vdW  Elec       q    Type
REMARK                         _______ _______ _______ _____ _____    ______ ____
ROOT
ATOM      1  C   UNL     1     101.351 128.201  83.373  0.00  0.00    +0.000 A 
ATOM      2  C   UNL     1     100.294 128.923  83.948  0.00  0.00    +0.000 A 
ATOM      3  C   UNL     1      98.968 128.554  83.711  0.00  0.00    +0.000 A 
ATOM      4  C   UNL     1      98.685 127.457  82.901  0.00  0.00    +0.000 A 
ATOM      5  C   UNL     1      99.727 126.725  82.331  0.00  0.00    +0.000 A 
ATOM      6  C   UNL     1     101.061 127.087  82.565  0.00  0.00    +0.000 A 
ENDROOT
BRANCH   1   8
ATOM      7  C   UNL     1     102.618 130.312  84.573  0.00  0.00    +0.000 C 
ATOM      8  S   UNL     1     103.018 128.752  83.742  0.00  0.00    +0.000 S 
ENDBRANCH   1   8
BRANCH   6   9
ATOM      9  C   UNL     1     102.091 126.290  81.964  0.00  0.00    +0.000 C 
ATOM     10  C   UNL     1     102.959 125.632  81.457  0.00  0.00    +0.000 C 
BRANCH  10  11
ATOM     11  C   UNL     1     104.005 124.869  80.850  0.00  0.00    +0.000 A 
ATOM     12  C   UNL     1     104.297 123.584  81.313  0.00  0.00    +0.000 A 
ATOM     13  C   UNL     1     105.318 122.842  80.714  0.00  0.00    +0.000 A 
ATOM     14  C   UNL     1     106.044 123.382  79.655  0.00  0.00    +0.000 A 
ATOM     15  C   UNL     1     105.754 124.666  79.190  0.00  0.00    +0.000 A 
ATOM     16  C   UNL     1     104.734 125.409  79.788  0.00  0.00    +0.000 A 
ENDBRANCH  10  11
ENDBRANCH   6   9
TORSDOF 3
ENDMDL
