MODEL 1
REMARK VINA RESULT:      -4.6      0.000      0.000
REMARK  Name = *****
REMARK  4 active torsions:
REMARK  status: ('A' for Active; 'I' for Inactive)
REMARK    1  A    between atoms: C_1  and  C_2
REMARK    2  A    between atoms: C_5  and  C_8
REMARK    3  A    between atoms: C_8  and  S_10
REMARK    4  A    between atoms: S_10  and  C_11
REMARK                            x       y       z     vdW  Elec       q    Type
REMARK                         _______ _______ _______ _____ _____    ______ ____
ROOT
ATOM      1  C   UNL     1      87.949  70.864  85.355  0.00  0.00    +0.000 C 
ATOM      2  O   UNL     1      88.079  70.728  84.144  0.00  0.00    +0.000 OA
ENDROOT
BRANCH   1   7
ATOM      3  C   UNL     1      82.935  73.068  87.317  0.00  0.00    +0.000 C 
ATOM      4  C   UNL     1      84.219  72.465  86.829  0.00  0.00    +0.000 A 
ATOM      5  C   UNL     1      85.160  71.968  87.737  0.00  0.00    +0.000 A 
ATOM      6  C   UNL     1      86.375  71.438  87.288  0.00  0.00    +0.000 A 
ATOM      7  C   UNL     1      86.674  71.407  85.919  0.00  0.00    +0.000 A 
ATOM      8  C   UNL     1      85.730  71.915  85.012  0.00  0.00    +0.000 A 
ATOM      9  C   UNL     1      84.518  72.446  85.463  0.00  0.00    +0.000 A 
ENDBRANCH   1   7
BRANCH   1  10
ATOM     10  S   UNL     1      89.243  70.449  86.479  0.00  0.00    +0.000 S 
BRANCH  10  11
ATOM     11  C   UNL     1      89.038  68.691  86.680  0.00  0.00    +0.000 A 
ATOM     12  C   UNL     1      89.999  67.786  86.216  0.00  0.00    +0.000 A 
ATOM     13  C   UNL     1      89.833  66.412  86.417  0.00  0.00    +0.000 A 
ATOM     14  C   UNL     1      88.708  65.943  87.091  0.00  0.00    +0.000 A 
ATOM     15  C   UNL     1      87.750  66.835  87.570  0.00  0.00    +0.000 A 
ATOM     16  C   UNL     1      87.918  68.208  87.367  0.00  0.00    +0.000 A 
ATOM     17 BR   UNL     1      88.483  64.087  87.365  0.00  0.00    +0.000 Br
ENDBRANCH  10  11
ENDBRANCH   1  10
TORSDOF 3
ENDMDL
