MODEL 1
REMARK VINA RESULT:      -3.9      0.000      0.000
REMARK  Name = *****
REMARK  3 active torsions:
REMARK  status: ('A' for Active; 'I' for Inactive)
REMARK    1  A    between atoms: C_4  and  C_7
REMARK    2  A    between atoms: C_7  and  O_8
REMARK    3  A    between atoms: O_8  and  C_9
REMARK                            x       y       z     vdW  Elec       q    Type
REMARK                         _______ _______ _______ _____ _____    ______ ____
ROOT
ATOM      1  C   UNL     1     102.208 125.910  82.333  0.00  0.00    +0.000 C 
ENDROOT
BRANCH   1   5
ATOM      2  C   UNL     1      99.187 128.822  83.336  0.00  0.00    +0.000 A 
ATOM      3  C   UNL     1     100.522 129.065  83.654  0.00  0.00    +0.000 A 
ATOM      4  C   UNL     1     101.500 128.125  83.327  0.00  0.00    +0.000 A 
ATOM      5  C   UNL     1     101.152 126.936  82.670  0.00  0.00    +0.000 A 
ATOM      6  C   UNL     1      99.804 126.696  82.369  0.00  0.00    +0.000 A 
ATOM      7  C   UNL     1      98.827 127.638  82.697  0.00  0.00    +0.000 A 
ENDBRANCH   1   5
BRANCH   1   8
ATOM      8  O   UNL     1     102.509 126.039  80.946  0.00  0.00    +0.000 OA
BRANCH   8   9
ATOM      9  C   UNL     1     103.756 125.636  80.593  0.00  0.00    +0.000 A 
ATOM     10  N   UNL     1     103.994 124.345  80.365  0.00  0.00    +0.000 NA
ATOM     11  S   UNL     1     105.595 124.169  79.957  0.00  0.00    +0.000 S 
ATOM     12  C   UNL     1     105.999 125.829  80.081  0.00  0.00    +0.000 A 
ATOM     13  C   UNL     1     104.864 126.514  80.444  0.00  0.00    +0.000 A 
ATOM     14  I   UNL     1     104.813 128.533  80.725  0.00  0.00    +0.000 I 
ENDBRANCH   8   9
ENDBRANCH   1   8
TORSDOF 3
ENDMDL
