MODEL 1
REMARK VINA RESULT:      -4.9      0.000      0.000
REMARK  Name = *****
REMARK  4 active torsions:
REMARK  status: ('A' for Active; 'I' for Inactive)
REMARK    1  A    between atoms: C_1  and  O_2
REMARK    2  A    between atoms: O_2  and  C_3
REMARK    3  A    between atoms: C_7  and  C_9
REMARK    4  A    between atoms: C_10  and  C_11
REMARK                            x       y       z     vdW  Elec       q    Type
REMARK                         _______ _______ _______ _____ _____    ______ ____
ROOT
ATOM      1  C   UNL     1      98.692 127.417  82.919  0.00  0.00    +0.000 A 
ATOM      2  C   UNL     1      99.003 128.560  83.658  0.00  0.00    +0.000 A 
ATOM      3  C   UNL     1     100.337 128.948  83.819  0.00  0.00    +0.000 A 
ATOM      4  C   UNL     1     101.362 128.199  83.243  0.00  0.00    +0.000 A 
ATOM      5  C   UNL     1     101.056 127.056  82.505  0.00  0.00    +0.000 A 
ATOM      6  C   UNL     1      99.722 126.668  82.344  0.00  0.00    +0.000 A 
ENDROOT
BRANCH   1   8
ATOM      7  C   UNL     1      96.732 126.401  83.803  0.00  0.00    +0.000 C 
ATOM      8  O   UNL     1      97.434 126.929  82.686  0.00  0.00    +0.000 OA
ENDBRANCH   1   8
BRANCH   5   9
ATOM      9  C   UNL     1     102.104 126.284  81.912  0.00  0.00    +0.000 C 
ATOM     10  C   UNL     1     102.984 125.633  81.414  0.00  0.00    +0.000 C 
BRANCH  10  11
ATOM     11  C   UNL     1     104.029 124.857  80.823  0.00  0.00    +0.000 A 
ATOM     12  C   UNL     1     104.787 125.387  79.776  0.00  0.00    +0.000 A 
ATOM     13  C   UNL     1     105.807 124.629  79.199  0.00  0.00    +0.000 A 
ATOM     14  C   UNL     1     106.070 123.341  79.667  0.00  0.00    +0.000 A 
ATOM     15  C   UNL     1     105.314 122.810  80.711  0.00  0.00    +0.000 A 
ATOM     16  C   UNL     1     104.294 123.567  81.290  0.00  0.00    +0.000 A 
ENDBRANCH  10  11
ENDBRANCH   5   9
TORSDOF 3
ENDMDL
