MODEL 1
REMARK VINA RESULT:      -5.1      0.000      0.000
REMARK  Name = *****
REMARK  4 active torsions:
REMARK  status: ('A' for Active; 'I' for Inactive)
REMARK    1  A    between atoms: C_3  and  O_8
REMARK    2  A    between atoms: O_8  and  C_9
REMARK    3  A    between atoms: C_9  and  C_11
REMARK    4  A    between atoms: C_14  and  C_17
REMARK                            x       y       z     vdW  Elec       q    Type
REMARK                         _______ _______ _______ _____ _____    ______ ____
ROOT
ATOM      1  C   UNL     1     103.759 125.289  81.779  0.00  0.00    +0.000 A 
ATOM      2  C   UNL     1     104.181 124.577  80.652  0.00  0.00    +0.000 A 
ATOM      3  C   UNL     1     104.628 123.264  80.793  0.00  0.00    +0.000 A 
ATOM      4  C   UNL     1     104.667 122.633  82.035  0.00  0.00    +0.000 A 
ATOM      5  C   UNL     1     104.243 123.348  83.164  0.00  0.00    +0.000 A 
ATOM      6  C   UNL     1     103.791 124.665  83.035  0.00  0.00    +0.000 A 
ATOM      7  F   UNL     1     105.026 122.603  79.698  0.00  0.00    +0.000 F 
ENDROOT
BRANCH   4   8
ATOM      8  C   UNL     1     105.157 121.217  82.122  0.00  0.00    +0.000 C 
ATOM      9  F   UNL     1     105.175 120.742  83.396  0.00  0.00    +0.000 F 
ATOM     10  F   UNL     1     104.400 120.348  81.398  0.00  0.00    +0.000 F 
ATOM     11  F   UNL     1     106.431 121.066  81.657  0.00  0.00    +0.000 F 
ENDBRANCH   4   8
BRANCH   1  12
ATOM     12  C   UNL     1     103.266 126.693  81.706  0.00  0.00    +0.000 C 
ATOM     13  O   UNL     1     103.285 127.349  80.677  0.00  0.00    +0.000 OA
BRANCH  12  14
ATOM     14  O   UNL     1     102.810 127.092  82.947  0.00  0.00    +0.000 OA
BRANCH  14  17
ATOM     15  C   UNL     1      99.811 129.126  83.558  0.00  0.00    +0.000 A 
ATOM     16  C   UNL     1     101.148 128.731  83.497  0.00  0.00    +0.000 A 
ATOM     17  C   UNL     1     101.470 127.488  82.949  0.00  0.00    +0.000 A 
ATOM     18  C   UNL     1     100.482 126.618  82.495  0.00  0.00    +0.000 A 
ATOM     19  C   UNL     1      99.157 127.027  82.562  0.00  0.00    +0.000 A 
ATOM     20  C   UNL     1      98.813 128.271  83.086  0.00  0.00    +0.000 A 
ATOM     21  F   UNL     1      98.191 126.209  82.125  0.00  0.00    +0.000 F 
ENDBRANCH  14  17
ENDBRANCH  12  14
ENDBRANCH   1  12
TORSDOF 4
ENDMDL
