MODEL 1
REMARK VINA RESULT:      -4.7      0.000      0.000
REMARK  Name = *****
REMARK  6 active torsions:
REMARK  status: ('A' for Active; 'I' for Inactive)
REMARK    1  A    between atoms: C_1  and  C_2
REMARK    2  A    between atoms: C_3  and  C_9
REMARK    3  A    between atoms: C_4  and  C_8
REMARK    4  A    between atoms: C_9  and  O_11
REMARK    5  A    between atoms: O_11  and  C_12
REMARK    6  A    between atoms: C_12  and  C_13
REMARK                            x       y       z     vdW  Elec       q    Type
REMARK                         _______ _______ _______ _____ _____    ______ ____
ROOT
ATOM      1  C   UNL     1      89.028  70.284  86.898  0.00  0.00    +0.000 C 
ATOM      2  O   UNL     1      90.049  70.939  86.800  0.00  0.00    +0.000 OA
ENDROOT
BRANCH   1   5
ATOM      3  C   UNL     1      87.398  71.093  84.619  0.00  0.00    +0.000 C 
ATOM      4  C   UNL     1      86.901  71.240  86.030  0.00  0.00    +0.000 A 
ATOM      5  C   UNL     1      87.685  70.855  87.138  0.00  0.00    +0.000 A 
ATOM      6  C   UNL     1      87.215  71.027  88.457  0.00  0.00    +0.000 A 
ATOM      7  C   UNL     1      85.933  71.560  88.650  0.00  0.00    +0.000 A 
ATOM      8  C   UNL     1      85.150  71.941  87.561  0.00  0.00    +0.000 A 
ATOM      9  C   UNL     1      85.632  71.790  86.261  0.00  0.00    +0.000 A 
ATOM     10  C   UNL     1      88.034  70.632  89.655  0.00  0.00    +0.000 C 
ENDBRANCH   1   5
BRANCH   1  11
ATOM     11  O   UNL     1      88.897  68.941  86.757  0.00  0.00    +0.000 OA
BRANCH  11  12
ATOM     12  C   UNL     1      89.929  68.334  85.971  0.00  0.00    +0.000 C 
BRANCH  12  13
ATOM     13  C   UNL     1      90.053  66.855  86.362  0.00  0.00    +0.000 C 
ATOM     14  C   UNL     1      90.554  66.001  85.184  0.00  0.00    +0.000 C 
ATOM     15  C   UNL     1      90.620  64.519  85.548  0.00  0.00    +0.000 C 
ATOM     16  C   UNL     1      89.284  64.006  86.074  0.00  0.00    +0.000 C 
ATOM     17  C   UNL     1      88.785  64.845  87.246  0.00  0.00    +0.000 C 
ATOM     18  C   UNL     1      88.711  66.327  86.885  0.00  0.00    +0.000 C 
ENDBRANCH  12  13
ENDBRANCH  11  12
ENDBRANCH   1  11
TORSDOF 4
ENDMDL
