MODEL 1
REMARK VINA RESULT:      -4.4      0.000      0.000
REMARK  Name = *****
REMARK  5 active torsions:
REMARK  status: ('A' for Active; 'I' for Inactive)
REMARK    1  A    between atoms: C_1  and  C_2
REMARK    2  A    between atoms: C_2  and  C_4
REMARK    3  A    between atoms: C_5  and  C_11
REMARK    4  A    between atoms: C_11  and  C_12
REMARK    5  A    between atoms: C_12  and  C_13
REMARK                            x       y       z     vdW  Elec       q    Type
REMARK                         _______ _______ _______ _____ _____    ______ ____
ROOT
ATOM      1  C   UNL     1     104.356 123.187  83.225  0.00  0.00    +0.000 A 
ATOM      2  C   UNL     1     104.582 123.430  81.858  0.00  0.00    +0.000 A 
ATOM      3  C   UNL     1     104.764 122.319  81.024  0.00  0.00    +0.000 A 
ATOM      4  C   UNL     1     104.722 121.014  81.508  0.00  0.00    +0.000 A 
ATOM      5  C   UNL     1     104.495 120.787  82.861  0.00  0.00    +0.000 A 
ATOM      6  C   UNL     1     104.310 121.872  83.719  0.00  0.00    +0.000 A 
ATOM      7  F   UNL     1     104.999 122.503  79.716  0.00  0.00    +0.000 F 
ENDROOT
BRANCH   1   9
ATOM      8  C   UNL     1     105.316 125.100  84.631  0.00  0.00    +0.000 C 
ATOM      9  C   UNL     1     104.125 124.288  84.195  0.00  0.00    +0.000 C 
ATOM     10  O   UNL     1     103.004 124.470  84.662  0.00  0.00    +0.000 OA
ENDBRANCH   1   9
BRANCH   2  11
ATOM     11  C   UNL     1     104.703 124.811  81.254  0.00  0.00    +0.000 C 
BRANCH  11  12
ATOM     12  C   UNL     1     103.371 125.366  80.728  0.00  0.00    +0.000 C 
BRANCH  12  13
ATOM     13  C   UNL     1     102.721 126.364  81.657  0.00  0.00    +0.000 A 
ATOM     14  C   UNL     1     103.432 127.484  82.110  0.00  0.00    +0.000 A 
ATOM     15  C   UNL     1     102.833 128.401  82.975  0.00  0.00    +0.000 A 
ATOM     16  C   UNL     1     101.519 128.206  83.397  0.00  0.00    +0.000 A 
ATOM     17  C   UNL     1     100.803 127.095  82.955  0.00  0.00    +0.000 A 
ATOM     18  C   UNL     1     101.402 126.175  82.092  0.00  0.00    +0.000 A 
ENDBRANCH  12  13
ENDBRANCH  11  12
ENDBRANCH   2  11
TORSDOF 4
ENDMDL
