REMARK  Name = *****
REMARK  3 active torsions:
REMARK  status: ('A' for Active; 'I' for Inactive)
REMARK    1  A    between atoms: C_4  and  N_7
REMARK    2  A    between atoms: N_7  and  C_8
REMARK    3  A    between atoms: C_8  and  C_10
REMARK                            x       y       z     vdW  Elec       q    Type
REMARK                         _______ _______ _______ _____ _____    ______ ____
ROOT
ATOM      1  C   UNL     1      -3.716  -1.332  -0.025  0.00  0.00    +0.000 C 
ATOM      2  S   UNL     1      -3.458  -2.848  -0.694  0.00  0.00    +0.000 S 
ENDROOT
BRANCH   1   3
ATOM      3  C   UNL     1      -5.093  -0.956   0.416  0.00  0.00    +0.000 A 
ATOM      4  C   UNL     1      -6.134  -0.843  -0.515  0.00  0.00    +0.000 A 
ATOM      5  C   UNL     1      -7.406  -0.463  -0.084  0.00  0.00    +0.000 A 
ATOM      6  C   UNL     1      -7.624  -0.199   1.265  0.00  0.00    +0.000 A 
ATOM      7  C   UNL     1      -6.595  -0.305   2.196  0.00  0.00    +0.000 A 
ATOM      8  C   UNL     1      -5.320  -0.683   1.773  0.00  0.00    +0.000 A 
ATOM      9  F   UNL     1      -8.846   0.167   1.674  0.00  0.00    +0.000 F 
ENDBRANCH   1   3
BRANCH   1  10
ATOM     10  N   UNL     1      -2.821  -0.287   0.169  0.00  0.00    +0.000 N 
ATOM     11  H   UNL     1      -3.249   0.546   0.472  0.00  0.00    +0.000 HD
BRANCH  10  15
ATOM     12  C   UNL     1       1.355   0.270  -0.213  0.00  0.00    +0.000 A 
ATOM     13  C   UNL     1       0.839  -1.019  -0.304  0.00  0.00    +0.000 A 
ATOM     14  C   UNL     1      -0.539  -1.243  -0.184  0.00  0.00    +0.000 A 
ATOM     15  C   UNL     1      -1.418  -0.181   0.019  0.00  0.00    +0.000 A 
ATOM     16  C   UNL     1      -0.881   1.113   0.124  0.00  0.00    +0.000 A 
ATOM     17  C   UNL     1       0.493   1.339   0.005  0.00  0.00    +0.000 A 
ENDBRANCH  10  15
ENDBRANCH   1  10
TORSDOF 3
