MODEL 1
REMARK VINA RESULT:      -4.7      0.000      0.000
REMARK  Name = *****
REMARK  4 active torsions:
REMARK  status: ('A' for Active; 'I' for Inactive)
REMARK    1  A    between atoms: C_6  and  C_7
REMARK    2  A    between atoms: C_7  and  C_8
REMARK    3  A    between atoms: C_8  and  C_9
REMARK    4  A    between atoms: C_8  and  C_11
REMARK                            x       y       z     vdW  Elec       q    Type
REMARK                         _______ _______ _______ _____ _____    ______ ____
ROOT
ATOM      1  C   UNL     1      87.610  70.508  88.342  0.00  0.00    +0.000 C 
ENDROOT
BRANCH   1   2
ATOM      2  C   UNL     1      86.414  71.240  87.742  0.00  0.00    +0.000 A 
ATOM      3  C   UNL     1      85.416  71.762  88.584  0.00  0.00    +0.000 A 
ATOM      4  C   UNL     1      84.311  72.429  88.050  0.00  0.00    +0.000 A 
ATOM      5  C   UNL     1      84.191  72.581  86.671  0.00  0.00    +0.000 A 
ATOM      6  C   UNL     1      85.169  72.073  85.820  0.00  0.00    +0.000 A 
ATOM      7  C   UNL     1      86.276  71.405  86.351  0.00  0.00    +0.000 A 
ATOM      8 CL   UNL     1      82.829  73.400  86.016  0.00  0.00    +0.000 Cl
ENDBRANCH   1   2
BRANCH   1   9
ATOM      9  C   UNL     1      88.222  71.286  89.443  0.00  0.00    +0.000 C 
ATOM     10  N   UNL     1      88.696  71.915  90.295  0.00  0.00    +0.000 NA
ENDBRANCH   1   9
BRANCH   1  11
ATOM     11  C   UNL     1      88.651  70.182  87.250  0.00  0.00    +0.000 C 
BRANCH  11  17
ATOM     12  C   UNL     1      89.955  68.207  86.348  0.00  0.00    +0.000 A 
ATOM     13  C   UNL     1      90.123  66.834  86.154  0.00  0.00    +0.000 A 
ATOM     14  C   UNL     1      89.165  65.944  86.634  0.00  0.00    +0.000 A 
ATOM     15  C   UNL     1      88.040  66.416  87.307  0.00  0.00    +0.000 A 
ATOM     16  C   UNL     1      87.871  67.788  87.501  0.00  0.00    +0.000 A 
ATOM     17  C   UNL     1      88.827  68.696  87.020  0.00  0.00    +0.000 A 
ATOM     18 CL   UNL     1      89.371  64.253  86.396  0.00  0.00    +0.000 Cl
ENDBRANCH  11  17
ENDBRANCH   1  11
TORSDOF 4
ENDMDL
