MODEL 1
REMARK VINA RESULT:      -5.1      0.000      0.000
REMARK  Name = *****
REMARK  5 active torsions:
REMARK  status: ('A' for Active; 'I' for Inactive)
REMARK    1  A    between atoms: C_1  and  C_2
REMARK    2  A    between atoms: C_5  and  C_8
REMARK    3  A    between atoms: C_9  and  C_10
REMARK    4  A    between atoms: C_15  and  C_17
REMARK    5  A    between atoms: C_15  and  C_18
REMARK                            x       y       z     vdW  Elec       q    Type
REMARK                         _______ _______ _______ _____ _____    ______ ____
ROOT
ATOM      1  C   UNL     1     102.476 127.152  81.781  0.00  0.00    +0.000 C 
ATOM      2  C   UNL     1     101.361 126.469  82.086  0.00  0.00    +0.000 C 
ENDROOT
BRANCH   2   3
ATOM      3  C   UNL     1     100.244 127.020  82.834  0.00  0.00    +0.000 C 
ATOM      4  C   UNL     1      98.968 126.759  82.506  0.00  0.00    +0.000 C 
ATOM      5  C   UNL     1      97.848 127.293  83.317  0.00  0.00    +0.000 C 
ATOM      6  O   UNL     1      96.693 127.028  82.993  0.00  0.00    +0.000 OA
ATOM      7  C   UNL     1      98.166 128.084  84.569  0.00  0.00    +0.000 C 
ATOM      8  C   UNL     1      99.503 128.839  84.473  0.00  0.00    +0.000 C 
ATOM      9  C   UNL     1     100.620 127.865  84.029  0.00  0.00    +0.000 C 
ATOM     10  C   UNL     1      99.384 130.015  83.480  0.00  0.00    +0.000 C 
ATOM     11  C   UNL     1      99.858 129.416  85.855  0.00  0.00    +0.000 C 
ENDBRANCH   2   3
BRANCH   1  16
ATOM     12  C   UNL     1     106.924 124.720  78.987  0.00  0.00    +0.000 C 
ATOM     13  C   UNL     1     105.779 125.370  79.703  0.00  0.00    +0.000 A 
ATOM     14  C   UNL     1     105.841 126.711  80.094  0.00  0.00    +0.000 A 
ATOM     15  C   UNL     1     104.767 127.306  80.765  0.00  0.00    +0.000 A 
ATOM     16  C   UNL     1     103.610 126.571  81.050  0.00  0.00    +0.000 A 
ATOM     17  C   UNL     1     103.558 125.224  80.675  0.00  0.00    +0.000 A 
ATOM     18  C   UNL     1     104.630 124.630  80.003  0.00  0.00    +0.000 A 
ENDBRANCH   1  16
TORSDOF 2
ENDMDL
