MODEL 1
REMARK VINA RESULT:      -4.9      0.000      0.000
REMARK  Name = *****
REMARK  5 active torsions:
REMARK  status: ('A' for Active; 'I' for Inactive)
REMARK    1  A    between atoms: C_1  and  C_2
REMARK    2  A    between atoms: C_3  and  C_9
REMARK    3  A    between atoms: C_4  and  C_8
REMARK    4  A    between atoms: C_10  and  C_11
REMARK    5  A    between atoms: C_16  and  C_17
REMARK                            x       y       z     vdW  Elec       q    Type
REMARK                         _______ _______ _______ _____ _____    ______ ____
ROOT
ATOM      1  C   UNL     1     102.832 126.059  82.863  0.00  0.00    +0.000 C 
ATOM      2  C   UNL     1     102.178 127.027  83.146  0.00  0.00    +0.000 C 
ENDROOT
BRANCH   1   5
ATOM      3  C   UNL     1     103.561 125.556  80.077  0.00  0.00    +0.000 C 
ATOM      4  C   UNL     1     103.960 124.632  81.197  0.00  0.00    +0.000 A 
ATOM      5  C   UNL     1     103.601 124.889  82.536  0.00  0.00    +0.000 A 
ATOM      6  C   UNL     1     103.995 124.003  83.561  0.00  0.00    +0.000 A 
ATOM      7  C   UNL     1     104.747 122.866  83.230  0.00  0.00    +0.000 A 
ATOM      8  C   UNL     1     105.103 122.610  81.908  0.00  0.00    +0.000 A 
ATOM      9  C   UNL     1     104.714 123.486  80.899  0.00  0.00    +0.000 A 
ATOM     10  C   UNL     1     103.631 124.246  85.001  0.00  0.00    +0.000 C 
ENDBRANCH   1   5
BRANCH   2  11
ATOM     11  C   UNL     1     101.381 128.164  83.500  0.00  0.00    +0.000 A 
ATOM     12  C   UNL     1     102.024 129.260  84.091  0.00  0.00    +0.000 A 
ATOM     13  C   UNL     1     101.299 130.396  84.458  0.00  0.00    +0.000 A 
ATOM     14  C   UNL     1      99.924 130.447  84.240  0.00  0.00    +0.000 A 
ATOM     15  C   UNL     1      99.273 129.363  83.652  0.00  0.00    +0.000 A 
ATOM     16  C   UNL     1      99.997 128.219  83.281  0.00  0.00    +0.000 A 
BRANCH  16  17
ATOM     17  C   UNL     1      99.263 127.093  82.662  0.00  0.00    +0.000 C 
ATOM     18  O   UNL     1      98.226 127.262  82.029  0.00  0.00    +0.000 OA
ENDBRANCH  16  17
ENDBRANCH   2  11
TORSDOF 3
ENDMDL
