MODEL 1
REMARK VINA RESULT:      -5.0      0.000      0.000
REMARK  Name = *****
REMARK  4 active torsions:
REMARK  status: ('A' for Active; 'I' for Inactive)
REMARK    1  A    between atoms: C_3  and  C_8
REMARK    2  A    between atoms: C_8  and  C_10
REMARK    3  A    between atoms: C_10  and  C_11
REMARK    4  A    between atoms: C_11  and  C_12
REMARK                            x       y       z     vdW  Elec       q    Type
REMARK                         _______ _______ _______ _____ _____    ______ ____
ROOT
ATOM      1  C   UNL     1      99.246 127.533  82.816  0.00  0.00    +0.000 C 
ATOM      2  O   UNL     1      98.336 127.296  82.023  0.00  0.00    +0.000 OA
ENDROOT
BRANCH   1   5
ATOM      3  C   UNL     1      99.283 131.038  84.246  0.00  0.00    +0.000 A 
ATOM      4  C   UNL     1      99.413 129.956  83.373  0.00  0.00    +0.000 A 
ATOM      5  C   UNL     1      99.087 128.655  83.790  0.00  0.00    +0.000 A 
ATOM      6  C   UNL     1      98.626 128.451  85.095  0.00  0.00    +0.000 A 
ATOM      7  C   UNL     1      98.501 129.539  85.954  0.00  0.00    +0.000 A 
ATOM      8  C   UNL     1      98.823 130.828  85.544  0.00  0.00    +0.000 A 
ATOM      9  F   UNL     1      98.059 129.339  87.202  0.00  0.00    +0.000 F 
ENDBRANCH   1   5
BRANCH   1  10
ATOM     10  C   UNL     1     100.530 126.724  82.838  0.00  0.00    +0.000 C 
BRANCH  10  11
ATOM     11  C   UNL     1     101.761 127.614  82.672  0.00  0.00    +0.000 C 
BRANCH  11  12
ATOM     12  C   UNL     1     102.783 126.973  81.764  0.00  0.00    +0.000 A 
ATOM     13  C   UNL     1     103.751 127.756  81.121  0.00  0.00    +0.000 A 
ATOM     14  C   UNL     1     104.682 127.167  80.263  0.00  0.00    +0.000 A 
ATOM     15  C   UNL     1     104.644 125.792  80.041  0.00  0.00    +0.000 A 
ATOM     16  C   UNL     1     103.684 125.001  80.668  0.00  0.00    +0.000 A 
ATOM     17  C   UNL     1     102.754 125.592  81.527  0.00  0.00    +0.000 A 
ATOM     18 CL   UNL     1     105.789 125.065  78.981  0.00  0.00    +0.000 Cl
ENDBRANCH  11  12
ENDBRANCH  10  11
ENDBRANCH   1  10
TORSDOF 4
ENDMDL
