MODEL 1
REMARK VINA RESULT:      -4.2      0.000      0.000
REMARK  Name = *****
REMARK  3 active torsions:
REMARK  status: ('A' for Active; 'I' for Inactive)
REMARK    1  A    between atoms: C_4  and  C_6
REMARK    2  A    between atoms: C_6  and  C_7
REMARK    3  A    between atoms: C_7  and  C_8
REMARK                            x       y       z     vdW  Elec       q    Type
REMARK                         _______ _______ _______ _____ _____    ______ ____
ROOT
ATOM      1  C   UNL     1      96.990 117.507  79.489  0.00  0.00    +0.000 C 
ENDROOT
BRANCH   1   2
ATOM      2  C   UNL     1      97.509 117.934  80.840  0.00  0.00    +0.000 A 
ATOM      3  C   UNL     1      98.348 119.051  80.959  0.00  0.00    +0.000 A 
ATOM      4  C   UNL     1      98.840 119.434  82.207  0.00  0.00    +0.000 A 
ATOM      5  C   UNL     1      98.505 118.704  83.346  0.00  0.00    +0.000 A 
ATOM      6  C   UNL     1      97.677 117.587  83.236  0.00  0.00    +0.000 A 
ATOM      7  C   UNL     1      97.183 117.203  81.990  0.00  0.00    +0.000 A 
ENDBRANCH   1   2
BRANCH   1   8
ATOM      8  C   UNL     1      97.975 116.577  78.775  0.00  0.00    +0.000 C 
BRANCH   8  12
ATOM      9  C   UNL     1      95.385 113.847  78.339  0.00  0.00    +0.000 C 
ATOM     10  C   UNL     1      95.713 114.176  76.883  0.00  0.00    +0.000 C 
ATOM     11  C   UNL     1      96.693 115.346  76.919  0.00  0.00    +0.000 C 
ATOM     12  C   UNL     1      97.318 115.275  78.311  0.00  0.00    +0.000 C 
ATOM     13  C   UNL     1      96.125 114.881  79.179  0.00  0.00    +0.000 C 
ENDBRANCH   8  12
ENDBRANCH   1   8
TORSDOF 3
ENDMDL
