MODEL 1
REMARK VINA RESULT:      -4.4      0.000      0.000
REMARK  Name = *****
REMARK  4 active torsions:
REMARK  status: ('A' for Active; 'I' for Inactive)
REMARK    1  A    between atoms: C_6  and  C_7
REMARK    2  A    between atoms: C_7  and  O_8
REMARK    3  A    between atoms: O_8  and  C_9
REMARK    4  A    between atoms: C_12  and  C_15
REMARK                            x       y       z     vdW  Elec       q    Type
REMARK                         _______ _______ _______ _____ _____    ______ ____
ROOT
ATOM      1  O   UNL     1      95.860 115.912  75.998  0.00  0.00    +0.000 OA
ENDROOT
BRANCH   1   2
ATOM      2  C   UNL     1      96.173 116.444  77.216  0.00  0.00    +0.000 A 
ATOM      3  C   UNL     1      95.334 117.214  78.019  0.00  0.00    +0.000 A 
ATOM      4  C   UNL     1      95.792 117.696  79.252  0.00  0.00    +0.000 A 
ATOM      5  C   UNL     1      97.092 117.414  79.699  0.00  0.00    +0.000 A 
ATOM      6  C   UNL     1      97.930 116.640  78.889  0.00  0.00    +0.000 A 
ATOM      7  C   UNL     1      97.468 116.162  77.657  0.00  0.00    +0.000 A 
BRANCH   5   8
ATOM      8  C   UNL     1      97.537 117.951  81.026  0.00  0.00    +0.000 C 
ATOM      9  O   UNL     1      97.144 117.360  82.032  0.00  0.00    +0.000 OA
ATOM     10 CL   UNL     1      98.572 119.361  81.096  0.00  0.00    +0.000 Cl
ENDBRANCH   5   8
ENDBRANCH   1   2
BRANCH   1  11
ATOM     11  C   UNL     1      95.575 116.825  74.939  0.00  0.00    +0.000 C 
BRANCH  11  17
ATOM     12  C   UNL     1      97.758 116.022  73.933  0.00  0.00    +0.000 A 
ATOM     13  C   UNL     1      98.935 116.257  73.218  0.00  0.00    +0.000 A 
ATOM     14  C   UNL     1      99.200 117.531  72.730  0.00  0.00    +0.000 A 
ATOM     15  C   UNL     1      98.312 118.578  72.942  0.00  0.00    +0.000 A 
ATOM     16  C   UNL     1      97.136 118.346  73.656  0.00  0.00    +0.000 A 
ATOM     17  C   UNL     1      96.845 117.065  74.157  0.00  0.00    +0.000 A 
ATOM     18  F   UNL     1     100.330 117.753  72.046  0.00  0.00    +0.000 F 
ENDBRANCH  11  17
ENDBRANCH   1  11
TORSDOF 4
ENDMDL
