MODEL 1
REMARK VINA RESULT:      -4.4      0.000      0.000
REMARK  Name = *****
REMARK  5 active torsions:
REMARK  status: ('A' for Active; 'I' for Inactive)
REMARK    1  A    between atoms: C_1  and  C_2
REMARK    2  A    between atoms: C_5  and  C_7
REMARK    3  A    between atoms: C_8  and  C_9
REMARK    4  A    between atoms: C_12  and  O_15
REMARK    5  A    between atoms: O_15  and  C_16
REMARK                            x       y       z     vdW  Elec       q    Type
REMARK                         _______ _______ _______ _____ _____    ______ ____
ROOT
ATOM      1  C   UNL     1     101.572 125.991  82.313  0.00  0.00    +0.000 C 
ATOM      2  C   UNL     1     102.650 126.238  81.552  0.00  0.00    +0.000 C 
ENDROOT
BRANCH   1   7
ATOM      3  C   UNL     1      99.457 130.448  84.189  0.00  0.00    +0.000 C 
ATOM      4  C   UNL     1      99.644 129.114  83.552  0.00  0.00    +0.000 A 
ATOM      5  C   UNL     1      98.695 128.295  82.984  0.00  0.00    +0.000 A 
ATOM      6  C   UNL     1      99.260 127.089  82.475  0.00  0.00    +0.000 A 
ATOM      7  C   UNL     1     100.629 127.004  82.661  0.00  0.00    +0.000 A 
ATOM      8  S   UNL     1     101.202 128.422  83.465  0.00  0.00    +0.000 S 
ENDBRANCH   1   7
BRANCH   2   9
ATOM      9  C   UNL     1     103.636 125.211  81.184  0.00  0.00    +0.000 A 
ATOM     10  C   UNL     1     104.361 125.264  79.987  0.00  0.00    +0.000 A 
ATOM     11  C   UNL     1     105.316 124.285  79.681  0.00  0.00    +0.000 A 
ATOM     12  C   UNL     1     105.565 123.245  80.575  0.00  0.00    +0.000 A 
ATOM     13  C   UNL     1     104.856 123.198  81.777  0.00  0.00    +0.000 A 
ATOM     14  C   UNL     1     103.904 124.174  82.084  0.00  0.00    +0.000 A 
BRANCH  12  15
ATOM     15  O   UNL     1     106.466 122.232  80.400  0.00  0.00    +0.000 OA
ATOM     16  C   UNL     1     107.080 121.708  81.571  0.00  0.00    +0.000 C 
ENDBRANCH  12  15
ENDBRANCH   2   9
TORSDOF 3
ENDMDL
