MODEL 1
REMARK VINA RESULT:      -4.3      0.000      0.000
REMARK  Name = *****
REMARK  3 active torsions:
REMARK  status: ('A' for Active; 'I' for Inactive)
REMARK    1  A    between atoms: C_4  and  C_7
REMARK    2  A    between atoms: C_7  and  C_8
REMARK    3  A    between atoms: C_8  and  C_10
REMARK                            x       y       z     vdW  Elec       q    Type
REMARK                         _______ _______ _______ _____ _____    ______ ____
ROOT
ATOM      1  C   UNL     1     103.293 127.058  81.742  0.00  0.00    +0.000 C 
ATOM      2  O   UNL     1     103.397 127.735  80.715  0.00  0.00    +0.000 OA
ENDROOT
BRANCH   1   3
ATOM      3  C   UNL     1     103.731 125.666  81.835  0.00  0.00    +0.000 A 
ATOM      4  C   UNL     1     103.837 124.831  82.935  0.00  0.00    +0.000 A 
ATOM      5  C   UNL     1     104.295 123.523  82.588  0.00  0.00    +0.000 A 
ATOM      6  C   UNL     1     104.523 123.421  81.241  0.00  0.00    +0.000 A 
ATOM      7  S   UNL     1     104.206 124.848  80.396  0.00  0.00    +0.000 S 
ATOM      8 CL   UNL     1     105.074 122.032  80.398  0.00  0.00    +0.000 Cl
ENDBRANCH   1   3
BRANCH   1   9
ATOM      9  C   UNL     1     102.676 127.691  82.981  0.00  0.00    +0.000 C 
BRANCH   9  13
ATOM     10  C   UNL     1      98.363 127.915  83.036  0.00  0.00    +0.000 A 
ATOM     11  C   UNL     1      98.993 126.812  82.463  0.00  0.00    +0.000 A 
ATOM     12  C   UNL     1     100.386 126.738  82.433  0.00  0.00    +0.000 A 
ATOM     13  C   UNL     1     101.168 127.776  82.961  0.00  0.00    +0.000 A 
ATOM     14  C   UNL     1     100.522 128.873  83.550  0.00  0.00    +0.000 A 
ATOM     15  C   UNL     1      99.127 128.943  83.582  0.00  0.00    +0.000 A 
ENDBRANCH   9  13
ENDBRANCH   1   9
TORSDOF 3
ENDMDL
