MODEL 1
REMARK VINA RESULT:      -4.3      0.000      0.000
REMARK  Name = *****
REMARK  4 active torsions:
REMARK  status: ('A' for Active; 'I' for Inactive)
REMARK    1  A    between atoms: C_1  and  C_2
REMARK    2  A    between atoms: C_5  and  C_7
REMARK    3  A    between atoms: C_7  and  N_9
REMARK    4  A    between atoms: N_9  and  C_10
REMARK                            x       y       z     vdW  Elec       q    Type
REMARK                         _______ _______ _______ _____ _____    ______ ____
ROOT
ATOM      1  C   UNL     1     102.884 126.061  81.295  0.00  0.00    +0.000 C 
ATOM      2  S   UNL     1     103.643 127.237  80.370  0.00  0.00    +0.000 S 
ENDROOT
BRANCH   1   7
ATOM      3  C   UNL     1     105.750 121.783  80.889  0.00  0.00    +0.000 C 
ATOM      4  C   UNL     1     104.975 122.880  81.538  0.00  0.00    +0.000 A 
ATOM      5  C   UNL     1     104.792 123.023  82.897  0.00  0.00    +0.000 A 
ATOM      6  S   UNL     1     103.858 124.391  83.294  0.00  0.00    +0.000 S 
ATOM      7  C   UNL     1     103.663 124.853  81.639  0.00  0.00    +0.000 A 
ATOM      8  C   UNL     1     104.323 123.940  80.825  0.00  0.00    +0.000 A 
ENDBRANCH   1   7
BRANCH   1   9
ATOM      9  N   UNL     1     101.597 126.087  81.816  0.00  0.00    +0.000 N 
ATOM     10  H   UNL     1     101.114 125.239  81.684  0.00  0.00    +0.000 HD
BRANCH   9  11
ATOM     11  C   UNL     1     100.824 127.059  82.493  0.00  0.00    +0.000 A 
ATOM     12  C   UNL     1     101.315 128.128  83.238  0.00  0.00    +0.000 A 
ATOM     13  C   UNL     1     100.442 129.031  83.858  0.00  0.00    +0.000 A 
ATOM     14  C   UNL     1      99.065 128.880  83.735  0.00  0.00    +0.000 A 
ATOM     15  C   UNL     1      98.556 127.825  82.987  0.00  0.00    +0.000 A 
ATOM     16  C   UNL     1      99.431 126.925  82.369  0.00  0.00    +0.000 A 
ENDBRANCH   9  11
ENDBRANCH   1   9
TORSDOF 3
ENDMDL
