MODEL 1
REMARK VINA RESULT:      -4.5      0.000      0.000
REMARK  Name = *****
REMARK  4 active torsions:
REMARK  status: ('A' for Active; 'I' for Inactive)
REMARK    1  A    between atoms: C_2  and  C_3
REMARK    2  A    between atoms: C_3  and  C_4
REMARK    3  A    between atoms: C_3  and  S_10
REMARK    4  A    between atoms: S_10  and  C_11
REMARK                            x       y       z     vdW  Elec       q    Type
REMARK                         _______ _______ _______ _____ _____    ______ ____
ROOT
ATOM      1  C   UNL     1      87.664  70.483  88.216  0.00  0.00    +0.000 C 
ENDROOT
BRANCH   1   2
ATOM      2  C   UNL     1      86.451  71.215  87.654  0.00  0.00    +0.000 A 
ATOM      3  C   UNL     1      85.438  71.716  88.492  0.00  0.00    +0.000 A 
ATOM      4  C   UNL     1      84.332  72.383  87.961  0.00  0.00    +0.000 A 
ATOM      5  C   UNL     1      84.223  72.563  86.583  0.00  0.00    +0.000 A 
ATOM      6  C   UNL     1      85.218  72.079  85.738  0.00  0.00    +0.000 A 
ATOM      7  C   UNL     1      86.325  71.412  86.267  0.00  0.00    +0.000 A 
ENDBRANCH   1   2
BRANCH   1   9
ATOM      8  C   UNL     1      88.627  71.726  90.386  0.00  0.00    +0.000 C 
ATOM      9  C   UNL     1      88.199  71.164  89.412  0.00  0.00    +0.000 C 
ENDBRANCH   1   9
BRANCH   1  10
ATOM     10  S   UNL     1      88.932  70.265  86.899  0.00  0.00    +0.000 S 
BRANCH  10  11
ATOM     11  C   UNL     1      88.700  68.499  86.454  0.00  0.00    +0.000 C 
ATOM     12  C   UNL     1      87.837  67.848  87.546  0.00  0.00    +0.000 C 
ATOM     13  C   UNL     1      87.623  66.359  87.276  0.00  0.00    +0.000 C 
ATOM     14  C   UNL     1      88.948  65.623  87.116  0.00  0.00    +0.000 C 
ATOM     15  C   UNL     1      89.820  66.268  86.044  0.00  0.00    +0.000 C 
ATOM     16  C   UNL     1      90.035  67.759  86.306  0.00  0.00    +0.000 C 
ENDBRANCH  10  11
ENDBRANCH   1  10
TORSDOF 4
ENDMDL
