MODEL 1
REMARK VINA RESULT:      -4.9      0.000      0.000
REMARK  Name = *****
REMARK  2 active torsions:
REMARK  status: ('A' for Active; 'I' for Inactive)
REMARK    1  A    between atoms: C_4  and  C_8
REMARK    2  A    between atoms: N_9  and  C_10
REMARK                            x       y       z     vdW  Elec       q    Type
REMARK                         _______ _______ _______ _____ _____    ______ ____
ROOT
ATOM      1  C   UNL     1     101.936 126.288  82.330  0.00  0.00    +0.000 C 
ATOM      2  N   UNL     1     102.818 126.512  81.408  0.00  0.00    +0.000 NA
ENDROOT
BRANCH   1   6
ATOM      3  C   UNL     1      99.033 129.170  83.574  0.00  0.00    +0.000 A 
ATOM      4  C   UNL     1      98.653 128.022  82.880  0.00  0.00    +0.000 A 
ATOM      5  C   UNL     1      99.622 127.098  82.488  0.00  0.00    +0.000 A 
ATOM      6  C   UNL     1     100.970 127.304  82.775  0.00  0.00    +0.000 A 
ATOM      7  C   UNL     1     101.341 128.455  83.469  0.00  0.00    +0.000 A 
ATOM      8  C   UNL     1     100.379 129.385  83.868  0.00  0.00    +0.000 A 
ATOM      9  F   UNL     1     102.619 128.709  83.780  0.00  0.00    +0.000 F 
ATOM     10  F   UNL     1      99.225 126.004  81.823  0.00  0.00    +0.000 F 
ENDBRANCH   1   6
BRANCH   2  11
ATOM     11  C   UNL     1     103.671 125.447  81.089  0.00  0.00    +0.000 A 
ATOM     12  C   UNL     1     103.768 124.337  81.930  0.00  0.00    +0.000 A 
ATOM     13  C   UNL     1     104.603 123.279  81.585  0.00  0.00    +0.000 A 
ATOM     14  C   UNL     1     105.339 123.299  80.410  0.00  0.00    +0.000 A 
ATOM     15  C   UNL     1     105.223 124.399  79.571  0.00  0.00    +0.000 A 
ATOM     16  C   UNL     1     104.396 125.469  79.896  0.00  0.00    +0.000 A 
ATOM     17  F   UNL     1     105.922 124.431  78.428  0.00  0.00    +0.000 F 
ATOM     18  F   UNL     1     104.697 122.222  82.402  0.00  0.00    +0.000 F 
ENDBRANCH   2  11
TORSDOF 2
ENDMDL
