REMARK  Name = *****
REMARK  5 active torsions:
REMARK  status: ('A' for Active; 'I' for Inactive)
REMARK    1  A    between atoms: C_1  and  C_2
REMARK    2  A    between atoms: C_2  and  C_12
REMARK    3  A    between atoms: N_3  and  N_4
REMARK    4  A    between atoms: N_4  and  C_5
REMARK    5  A    between atoms: N_4  and  C_6
REMARK                            x       y       z     vdW  Elec       q    Type
REMARK                         _______ _______ _______ _____ _____    ______ ____
ROOT
ATOM      1  C   UNL     1       1.211   0.040  -0.043  0.00  0.00    +0.000 C 
ATOM      2  C   UNL     1       2.708   0.238  -0.115  0.00  0.00    +0.000 C 
ATOM      3  N   UNL     1       3.443  -0.471   0.695  0.00  0.00    +0.000 NA
ENDROOT
BRANCH   2   4
ATOM      4  C   UNL     1       3.195   1.230  -1.107  0.00  0.00    +0.000 A 
ATOM      5  C   UNL     1       2.732   2.548  -1.050  0.00  0.00    +0.000 A 
ATOM      6  C   UNL     1       3.173   3.475  -1.996  0.00  0.00    +0.000 A 
ATOM      7  C   UNL     1       4.068   3.083  -2.993  0.00  0.00    +0.000 A 
ATOM      8  C   UNL     1       4.526   1.766  -3.049  0.00  0.00    +0.000 A 
ATOM      9  C   UNL     1       4.089   0.836  -2.106  0.00  0.00    +0.000 A 
ENDBRANCH   2   4
BRANCH   3  10
ATOM     10  N   UNL     1       4.796  -0.232   0.680  0.00  0.00    +0.000 N 
ATOM     11  C   UNL     1       5.581  -1.441   0.968  0.00  0.00    +0.000 C 
BRANCH  10  12
ATOM     12  C   UNL     1       5.261   0.852   1.490  0.00  0.00    +0.000 A 
ATOM     13  C   UNL     1       4.494   1.393   2.533  0.00  0.00    +0.000 A 
ATOM     14  C   UNL     1       4.969   2.464   3.295  0.00  0.00    +0.000 A 
ATOM     15  C   UNL     1       6.218   3.017   3.019  0.00  0.00    +0.000 A 
ATOM     16  C   UNL     1       6.990   2.501   1.981  0.00  0.00    +0.000 A 
ATOM     17  C   UNL     1       6.514   1.429   1.222  0.00  0.00    +0.000 A 
ENDBRANCH  10  12
ENDBRANCH   3  10
TORSDOF 3
