REMARK  Name = *****
REMARK  3 active torsions:
REMARK  status: ('A' for Active; 'I' for Inactive)
REMARK    1  A    between atoms: C_4  and  C_7
REMARK    2  A    between atoms: C_7  and  S_8
REMARK    3  A    between atoms: S_8  and  C_10
REMARK                            x       y       z     vdW  Elec       q    Type
REMARK                         _______ _______ _______ _____ _____    ______ ____
ROOT
ATOM      1  C   UNL     1      -2.874   0.570  -0.440  0.00  0.00    +0.000 C 
ATOM      2 CL   UNL     1      -4.004  -0.813  -0.243  0.00  0.00    +0.000 Cl
ENDROOT
BRANCH   1   6
ATOM      3  C   UNL     1       1.178  -0.703   0.394  0.00  0.00    +0.000 A 
ATOM      4  C   UNL     1       0.576   0.284   1.171  0.00  0.00    +0.000 A 
ATOM      5  C   UNL     1      -0.734   0.684   0.902  0.00  0.00    +0.000 A 
ATOM      6  C   UNL     1      -1.460   0.103  -0.152  0.00  0.00    +0.000 A 
ATOM      7  C   UNL     1      -0.838  -0.895  -0.923  0.00  0.00    +0.000 A 
ATOM      8  C   UNL     1       0.472  -1.293  -0.651  0.00  0.00    +0.000 A 
ENDBRANCH   1   6
BRANCH   1   9
ATOM      9  S   UNL     1      -3.044   1.334  -2.106  0.00  0.00    +0.000 S 
ATOM     10  O   UNL     1      -4.473   1.768  -2.278  0.00  0.00    +0.000 OA
BRANCH   9  11
ATOM     11  C   UNL     1      -2.127   2.857  -1.766  0.00  0.00    +0.000 A 
ATOM     12  C   UNL     1      -0.742   2.893  -1.964  0.00  0.00    +0.000 A 
ATOM     13  C   UNL     1      -0.025   4.061  -1.699  0.00  0.00    +0.000 A 
ATOM     14  C   UNL     1      -0.689   5.201  -1.246  0.00  0.00    +0.000 A 
ATOM     15  C   UNL     1      -2.071   5.176  -1.062  0.00  0.00    +0.000 A 
ATOM     16  C   UNL     1      -2.789   4.008  -1.324  0.00  0.00    +0.000 A 
ENDBRANCH   9  11
ENDBRANCH   1   9
TORSDOF 3
