MODEL 1
REMARK VINA RESULT:      -4.4      0.000      0.000
REMARK  Name = *****
REMARK  4 active torsions:
REMARK  status: ('A' for Active; 'I' for Inactive)
REMARK    1  A    between atoms: C_4  and  C_7
REMARK    2  A    between atoms: C_7  and  O_8
REMARK    3  A    between atoms: O_8  and  C_9
REMARK    4  A    between atoms: C_12  and  C_15
REMARK                            x       y       z     vdW  Elec       q    Type
REMARK                         _______ _______ _______ _____ _____    ______ ____
ROOT
ATOM      1  O   UNL     1     102.758 126.906  81.401  0.00  0.00    +0.000 OA
ENDROOT
BRANCH   1   2
ATOM      2  C   UNL     1     103.442 125.725  81.326  0.00  0.00    +0.000 A 
ATOM      3  C   UNL     1     103.508 125.013  82.525  0.00  0.00    +0.000 A 
ATOM      4  C   UNL     1     104.178 123.790  82.594  0.00  0.00    +0.000 A 
ATOM      5  C   UNL     1     104.803 123.260  81.459  0.00  0.00    +0.000 A 
ATOM      6  C   UNL     1     104.723 123.971  80.254  0.00  0.00    +0.000 A 
ATOM      7  C   UNL     1     104.050 125.196  80.187  0.00  0.00    +0.000 A 
BRANCH   5   8
ATOM      8  C   UNL     1     105.517 121.939  81.524  0.00  0.00    +0.000 C 
ATOM      9 CL   UNL     1     104.357 120.599  81.438  0.00  0.00    +0.000 Cl
ENDBRANCH   5   8
ENDBRANCH   1   2
BRANCH   1  10
ATOM     10  C   UNL     1     102.507 127.432  82.705  0.00  0.00    +0.000 C 
BRANCH  10  14
ATOM     11  C   UNL     1      98.254 128.030  83.181  0.00  0.00    +0.000 A 
ATOM     12  C   UNL     1      99.148 128.978  83.676  0.00  0.00    +0.000 A 
ATOM     13  C   UNL     1     100.523 128.783  83.534  0.00  0.00    +0.000 A 
ATOM     14  C   UNL     1     101.021 127.633  82.906  0.00  0.00    +0.000 A 
ATOM     15  C   UNL     1     100.110 126.694  82.399  0.00  0.00    +0.000 A 
ATOM     16  C   UNL     1      98.735 126.890  82.541  0.00  0.00    +0.000 A 
ENDBRANCH  10  14
ENDBRANCH   1  10
TORSDOF 4
ENDMDL
