MODEL 1
REMARK VINA RESULT:      -4.6      0.000      0.000
REMARK  Name = *****
REMARK  3 active torsions:
REMARK  status: ('A' for Active; 'I' for Inactive)
REMARK    1  A    between atoms: C_4  and  O_7
REMARK    2  A    between atoms: O_7  and  C_8
REMARK    3  A    between atoms: C_8  and  C_10
REMARK                            x       y       z     vdW  Elec       q    Type
REMARK                         _______ _______ _______ _____ _____    ______ ____
ROOT
ATOM      1  C   UNL     1     103.457 127.291  81.822  0.00  0.00    +0.000 C 
ATOM      2  O   UNL     1     103.683 128.351  81.258  0.00  0.00    +0.000 OA
ENDROOT
BRANCH   1   3
ATOM      3  C   UNL     1     103.974 125.985  81.322  0.00  0.00    +0.000 A 
ATOM      4  C   UNL     1     104.620 125.852  80.086  0.00  0.00    +0.000 A 
ATOM      5  C   UNL     1     105.076 124.600  79.681  0.00  0.00    +0.000 A 
ATOM      6  C   UNL     1     104.898 123.483  80.489  0.00  0.00    +0.000 A 
ATOM      7  C   UNL     1     104.259 123.600  81.718  0.00  0.00    +0.000 A 
ATOM      8  C   UNL     1     103.796 124.852  82.135  0.00  0.00    +0.000 A 
ATOM      9  F   UNL     1     105.340 122.284  80.090  0.00  0.00    +0.000 F 
ATOM     10  F   UNL     1     105.691 124.482  78.497  0.00  0.00    +0.000 F 
ENDBRANCH   1   3
BRANCH   1  11
ATOM     11  O   UNL     1     102.716 127.089  82.971  0.00  0.00    +0.000 OA
BRANCH  11  15
ATOM     12  C   UNL     1      98.687 128.191  83.010  0.00  0.00    +0.000 A 
ATOM     13  C   UNL     1      99.055 126.978  82.423  0.00  0.00    +0.000 A 
ATOM     14  C   UNL     1     100.396 126.597  82.387  0.00  0.00    +0.000 A 
ATOM     15  C   UNL     1     101.361 127.447  82.925  0.00  0.00    +0.000 A 
ATOM     16  C   UNL     1     101.002 128.650  83.532  0.00  0.00    +0.000 A 
ATOM     17  C   UNL     1      99.659 129.024  83.566  0.00  0.00    +0.000 A 
ENDBRANCH  11  15
ENDBRANCH   1  11
TORSDOF 3
ENDMDL
