MODEL 1
REMARK VINA RESULT:      -4.9      0.000      0.000
REMARK  Name = *****
REMARK  4 active torsions:
REMARK  status: ('A' for Active; 'I' for Inactive)
REMARK    1  A    between atoms: C_6  and  C_7
REMARK    2  A    between atoms: C_7  and  C_8
REMARK    3  A    between atoms: C_7  and  O_17
REMARK    4  A    between atoms: C_8  and  C_9
REMARK                            x       y       z     vdW  Elec       q    Type
REMARK                         _______ _______ _______ _____ _____    ______ ____
ROOT
ATOM      1  C   UNL     1      88.657  70.112  87.105  0.00  0.00    +0.000 C 
ENDROOT
BRANCH   1   7
ATOM      2  C   UNL     1      87.896  67.728  87.477  0.00  0.00    +0.000 A 
ATOM      3  C   UNL     1      88.063  66.346  87.366  0.00  0.00    +0.000 A 
ATOM      4  C   UNL     1      89.183  65.841  86.721  0.00  0.00    +0.000 A 
ATOM      5  C   UNL     1      90.141  66.690  86.184  0.00  0.00    +0.000 A 
ATOM      6  C   UNL     1      89.978  68.073  86.295  0.00  0.00    +0.000 A 
ATOM      7  C   UNL     1      88.852  68.612  86.942  0.00  0.00    +0.000 A 
ATOM      8  F   UNL     1      89.342  64.515  86.616  0.00  0.00    +0.000 F 
ENDBRANCH   1   7
BRANCH   1   9
ATOM      9  C   UNL     1      87.634  70.456  88.229  0.00  0.00    +0.000 C 
ATOM     10 CL   UNL     1      88.417  71.396  89.551  0.00  0.00    +0.000 Cl
BRANCH   9  11
ATOM     11  C   UNL     1      86.410  71.224  87.754  0.00  0.00    +0.000 A 
ATOM     12  C   UNL     1      85.435  71.707  88.643  0.00  0.00    +0.000 A 
ATOM     13  C   UNL     1      84.319  72.402  88.170  0.00  0.00    +0.000 A 
ATOM     14  C   UNL     1      84.168  72.613  86.806  0.00  0.00    +0.000 A 
ATOM     15  C   UNL     1      85.111  72.138  85.904  0.00  0.00    +0.000 A 
ATOM     16  C   UNL     1      86.226  71.443  86.374  0.00  0.00    +0.000 A 
ATOM     17  F   UNL     1      83.099  73.279  86.354  0.00  0.00    +0.000 F 
ENDBRANCH   9  11
ENDBRANCH   1   9
BRANCH   1  18
ATOM     18  O   UNL     1      89.929  70.748  87.290  0.00  0.00    +0.000 OA
ATOM     19  H   UNL     1      90.303  70.982  86.425  0.00  0.00    +0.000 HD
ENDBRANCH   1  18
TORSDOF 4
ENDMDL
