REMARK  Name = *****
REMARK  4 active torsions:
REMARK  status: ('A' for Active; 'I' for Inactive)
REMARK    1  A    between atoms: C_1  and  C_2
REMARK    2  A    between atoms: C_2  and  C_3
REMARK    3  A    between atoms: C_2  and  N_9
REMARK    4  A    between atoms: C_10  and  C_11
REMARK                            x       y       z     vdW  Elec       q    Type
REMARK                         _______ _______ _______ _____ _____    ______ ____
ROOT
ATOM      1  C   UNL     1       0.973  -0.173  -0.301  0.00  0.00    +0.000 C 
ATOM      2  C   UNL     1       2.474  -0.027  -0.046  0.00  0.00    +0.000 C 
ENDROOT
BRANCH   2   3
ATOM      3  C   UNL     1       2.869   1.203   0.812  0.00  0.00    +0.000 C 
ATOM      4  C   UNL     1       2.179   1.247   2.188  0.00  0.00    +0.000 C 
ATOM      5  C   UNL     1       2.642   2.452   3.006  0.00  0.00    +0.000 C 
ATOM      6  C   UNL     1       2.429   3.760   2.251  0.00  0.00    +0.000 C 
ATOM      7  C   UNL     1       3.091   3.729   0.877  0.00  0.00    +0.000 C 
ATOM      8  C   UNL     1       2.632   2.523   0.058  0.00  0.00    +0.000 C 
ENDBRANCH   2   3
BRANCH   2   9
ATOM      9  N   UNL     1       2.917  -1.256   0.637  0.00  0.00    +0.000 NA
ATOM     10  C   UNL     1       4.103  -1.650   0.330  0.00  0.00    +0.000 C 
BRANCH  10  11
ATOM     11  C   UNL     1       4.680  -2.894   0.964  0.00  0.00    +0.000 C 
ATOM     12  C   UNL     1       5.915  -2.516   1.784  0.00  0.00    +0.000 C 
ATOM     13  C   UNL     1       6.606  -3.750   2.359  0.00  0.00    +0.000 C 
ATOM     14  C   UNL     1       6.946  -4.763   1.270  0.00  0.00    +0.000 C 
ATOM     15  C   UNL     1       5.717  -5.140   0.447  0.00  0.00    +0.000 C 
ATOM     16  C   UNL     1       5.026  -3.907  -0.130  0.00  0.00    +0.000 C 
ENDBRANCH  10  11
ENDBRANCH   2   9
TORSDOF 3
