REMARK  Name = *****
REMARK  4 active torsions:
REMARK  status: ('A' for Active; 'I' for Inactive)
REMARK    1  A    between atoms: C_4  and  C_6
REMARK    2  A    between atoms: C_6  and  N_7
REMARK    3  A    between atoms: N_7  and  C_8
REMARK    4  A    between atoms: N_7  and  C_9
REMARK                            x       y       z     vdW  Elec       q    Type
REMARK                         _______ _______ _______ _____ _____    ______ ____
ROOT
ATOM      1  N   UNL     1       6.653   0.636   0.329  0.00  0.00    +0.000 N 
ATOM      2  C   UNL     1       6.590  -0.674  -0.318  0.00  0.00    +0.000 C 
ENDROOT
BRANCH   1   3
ATOM      3  C   UNL     1       7.859   1.347   0.288  0.00  0.00    +0.000 A 
ATOM      4  C   UNL     1       8.079   2.425   1.164  0.00  0.00    +0.000 A 
ATOM      5  C   UNL     1       9.271   3.158   1.152  0.00  0.00    +0.000 A 
ATOM      6  C   UNL     1      10.285   2.823   0.263  0.00  0.00    +0.000 A 
ATOM      7  C   UNL     1      10.105   1.751  -0.604  0.00  0.00    +0.000 A 
ATOM      8  C   UNL     1       8.910   1.021  -0.584  0.00  0.00    +0.000 A 
ENDBRANCH   1   3
BRANCH   1   9
ATOM      9  C   UNL     1       5.407   1.427   0.245  0.00  0.00    +0.000 C 
BRANCH   9  13
ATOM     10  C   UNL     1       3.945   2.314  -3.307  0.00  0.00    +0.000 A 
ATOM     11  C   UNL     1       5.031   3.140  -3.127  0.00  0.00    +0.000 A 
ATOM     12  C   UNL     1       5.662   2.924  -1.869  0.00  0.00    +0.000 A 
ATOM     13  C   UNL     1       5.041   1.936  -1.128  0.00  0.00    +0.000 A 
ATOM     14  S   UNL     1       3.693   1.284  -1.965  0.00  0.00    +0.000 S 
ENDBRANCH   9  13
ENDBRANCH   1   9
TORSDOF 3
