MODEL 1
REMARK VINA RESULT:      -3.6      0.000      0.000
REMARK  Name = *****
REMARK  3 active torsions:
REMARK  status: ('A' for Active; 'I' for Inactive)
REMARK    1  A    between atoms: P_4  and  O_7
REMARK    2  A    between atoms: O_7  and  C_8
REMARK    3  A    between atoms: C_8  and  C_9
REMARK                            x       y       z     vdW  Elec       q    Type
REMARK                         _______ _______ _______ _____ _____    ______ ____
ROOT
ATOM      1  O   UNL     1     103.415 126.958  83.474  0.00  0.00    +0.000 OA
ENDROOT
BRANCH   1   5
ATOM      2  C   UNL     1     103.943 125.415  80.146  0.00  0.00    +0.000 C 
ATOM      3  C   UNL     1     103.600 126.891  80.327  0.00  0.00    +0.000 C 
ATOM      4  S   UNL     1     104.878 127.821  81.216  0.00  0.00    +0.000 S 
ATOM      5  P   UNL     1     104.998 127.010  83.148  0.00  0.00    +0.000 P 
ATOM      6  S   UNL     1     105.257 125.004  82.580  0.00  0.00    +0.000 S 
ATOM      7  C   UNL     1     103.911 124.598  81.435  0.00  0.00    +0.000 C 
ENDBRANCH   1   5
BRANCH   1   8
ATOM      8  C   UNL     1     102.784 128.207  83.739  0.00  0.00    +0.000 C 
BRANCH   8   9
ATOM      9  C   UNL     1     101.325 128.084  83.375  0.00  0.00    +0.000 A 
ATOM     10  C   UNL     1     100.422 129.116  83.668  0.00  0.00    +0.000 A 
ATOM     11  C   UNL     1      99.073 128.994  83.327  0.00  0.00    +0.000 A 
ATOM     12  C   UNL     1      98.615 127.840  82.692  0.00  0.00    +0.000 A 
ATOM     13  C   UNL     1      99.502 126.806  82.400  0.00  0.00    +0.000 A 
ATOM     14  C   UNL     1     100.851 126.927  82.740  0.00  0.00    +0.000 A 
ENDBRANCH   8   9
ENDBRANCH   1   8
TORSDOF 3
ENDMDL
