REMARK  Name = *****
REMARK  6 active torsions:
REMARK  status: ('A' for Active; 'I' for Inactive)
REMARK    1  A    between atoms: C_1  and  O_2
REMARK    2  A    between atoms: O_2  and  C_3
REMARK    3  A    between atoms: C_6  and  S_9
REMARK    4  A    between atoms: S_9  and  C_10
REMARK    5  A    between atoms: S_9  and  C_11
REMARK    6  A    between atoms: C_11  and  C_12
REMARK                            x       y       z     vdW  Elec       q    Type
REMARK                         _______ _______ _______ _____ _____    ______ ____
ROOT
ATOM      1  S   UNL     1       5.831   0.907   4.959  0.00  0.00    +0.000 S 
ATOM      2  C   UNL     1       5.643   2.636   5.445  0.00  0.00    +0.000 C 
ENDROOT
BRANCH   1   6
ATOM      3  C   UNL     1       2.933   0.621   1.382  0.00  0.00    +0.000 A 
ATOM      4  C   UNL     1       4.231   0.121   1.313  0.00  0.00    +0.000 A 
ATOM      5  C   UNL     1       5.083   0.225   2.420  0.00  0.00    +0.000 A 
ATOM      6  C   UNL     1       4.652   0.828   3.605  0.00  0.00    +0.000 A 
ATOM      7  C   UNL     1       3.351   1.328   3.670  0.00  0.00    +0.000 A 
ATOM      8  C   UNL     1       2.500   1.223   2.565  0.00  0.00    +0.000 A 
BRANCH   3  10
ATOM      9  C   UNL     1       2.401  -0.004  -0.848  0.00  0.00    +0.000 C 
ATOM     10  O   UNL     1       2.001   0.586   0.382  0.00  0.00    +0.000 OA
ENDBRANCH   3  10
ENDBRANCH   1   6
BRANCH   1  11
ATOM     11  C   UNL     1       4.821   0.181   6.289  0.00  0.00    +0.000 C 
BRANCH  11  12
ATOM     12  C   UNL     1       5.557   0.148   7.605  0.00  0.00    +0.000 A 
ATOM     13  C   UNL     1       5.169   0.986   8.661  0.00  0.00    +0.000 A 
ATOM     14  C   UNL     1       5.851   0.954   9.878  0.00  0.00    +0.000 A 
ATOM     15  C   UNL     1       6.927   0.086  10.054  0.00  0.00    +0.000 A 
ATOM     16  C   UNL     1       7.323  -0.751   9.012  0.00  0.00    +0.000 A 
ATOM     17  C   UNL     1       6.641  -0.721   7.795  0.00  0.00    +0.000 A 
ENDBRANCH  11  12
ENDBRANCH   1  11
TORSDOF 4
