MODEL 1
REMARK VINA RESULT:      -4.7      0.000      0.000
REMARK  Name = *****
REMARK  5 active torsions:
REMARK  status: ('A' for Active; 'I' for Inactive)
REMARK    1  A    between atoms: C_1  and  C_2
REMARK    2  A    between atoms: C_5  and  C_8
REMARK    3  A    between atoms: C_8  and  O_10
REMARK    4  A    between atoms: O_10  and  C_11
REMARK    5  A    between atoms: C_14  and  C_17
REMARK                            x       y       z     vdW  Elec       q    Type
REMARK                         _______ _______ _______ _____ _____    ______ ____
ROOT
ATOM      1  C   UNL     1      88.045  70.544  88.058  0.00  0.00    +0.000 C 
ATOM      2  O   UNL     1      88.574  70.541  89.160  0.00  0.00    +0.000 OA
ENDROOT
BRANCH   1   7
ATOM      3  C   UNL     1      82.991  73.121  86.826  0.00  0.00    +0.000 C 
ATOM      4  C   UNL     1      84.280  72.427  87.158  0.00  0.00    +0.000 A 
ATOM      5  C   UNL     1      84.642  72.206  88.492  0.00  0.00    +0.000 A 
ATOM      6  C   UNL     1      85.857  71.592  88.807  0.00  0.00    +0.000 A 
ATOM      7  C   UNL     1      86.734  71.197  87.788  0.00  0.00    +0.000 A 
ATOM      8  C   UNL     1      86.378  71.431  86.452  0.00  0.00    +0.000 A 
ATOM      9  C   UNL     1      85.163  72.046  86.140  0.00  0.00    +0.000 A 
ENDBRANCH   1   7
BRANCH   1  10
ATOM     10  O   UNL     1      88.528  69.970  86.896  0.00  0.00    +0.000 OA
BRANCH  10  11
ATOM     11  C   UNL     1      88.695  68.579  86.920  0.00  0.00    +0.000 A 
ATOM     12  C   UNL     1      87.690  67.737  87.389  0.00  0.00    +0.000 A 
ATOM     13  C   UNL     1      87.874  66.356  87.331  0.00  0.00    +0.000 A 
ATOM     14  C   UNL     1      89.055  65.816  86.802  0.00  0.00    +0.000 A 
ATOM     15  C   UNL     1      90.039  66.680  86.301  0.00  0.00    +0.000 A 
ATOM     16  C   UNL     1      89.861  68.063  86.358  0.00  0.00    +0.000 A 
ATOM     17  C   UNL     1      89.234  64.329  86.712  0.00  0.00    +0.000 C 
ENDBRANCH  10  11
ENDBRANCH   1  10
TORSDOF 3
ENDMDL
