MODEL 1
REMARK VINA RESULT:      -3.7      0.000      0.000
REMARK  Name = *****
REMARK  5 active torsions:
REMARK  status: ('A' for Active; 'I' for Inactive)
REMARK    1  A    between atoms: C_1  and  C_2
REMARK    2  A    between atoms: C_5  and  C_8
REMARK    3  A    between atoms: C_8  and  O_9
REMARK    4  A    between atoms: O_9  and  C_10
REMARK    5  A    between atoms: C_10  and  C_12
REMARK                            x       y       z     vdW  Elec       q    Type
REMARK                         _______ _______ _______ _____ _____    ______ ____
ROOT
ATOM      1  O   UNL     1      89.104  67.948  84.887  0.00  0.00    +0.000 OA
ENDROOT
BRANCH   1   2
ATOM      2  C   UNL     1      89.663  67.828  86.116  0.00  0.00    +0.000 C 
ATOM      3  O   UNL     1      90.646  67.162  86.402  0.00  0.00    +0.000 OA
BRANCH   2   4
ATOM      4  C   UNL     1      88.915  68.649  87.107  0.00  0.00    +0.000 A 
ATOM      5  C   UNL     1      87.684  68.167  87.572  0.00  0.00    +0.000 A 
ATOM      6  C   UNL     1      86.943  68.903  88.499  0.00  0.00    +0.000 A 
ATOM      7  C   UNL     1      87.426  70.126  88.962  0.00  0.00    +0.000 A 
ATOM      8  C   UNL     1      88.648  70.616  88.500  0.00  0.00    +0.000 A 
ATOM      9  C   UNL     1      89.392  69.882  87.574  0.00  0.00    +0.000 A 
ENDBRANCH   2   4
ENDBRANCH   1   2
BRANCH   1  10
ATOM     10  C   UNL     1      89.603  69.010  84.055  0.00  0.00    +0.000 C 
BRANCH  10  15
ATOM     11  C   UNL     1      85.977  71.667  86.144  0.00  0.00    +0.000 C 
ATOM     12  C   UNL     1      86.077  71.474  84.629  0.00  0.00    +0.000 C 
ATOM     13  C   UNL     1      87.325  72.165  84.050  0.00  0.00    +0.000 C 
ATOM     14  C   UNL     1      88.588  71.331  84.256  0.00  0.00    +0.000 C 
ATOM     15  C   UNL     1      88.463  69.941  83.600  0.00  0.00    +0.000 C 
ATOM     16  C   UNL     1      87.099  69.326  83.825  0.00  0.00    +0.000 C 
ATOM     17  C   UNL     1      86.044  70.006  84.298  0.00  0.00    +0.000 C 
ENDBRANCH  10  15
ENDBRANCH   1  10
TORSDOF 4
ENDMDL
