MODEL 1
REMARK VINA RESULT:      -4.6      0.000      0.000
REMARK  Name = *****
REMARK  3 active torsions:
REMARK  status: ('A' for Active; 'I' for Inactive)
REMARK    1  A    between atoms: C_1  and  C_2
REMARK    2  A    between atoms: C_5  and  C_7
REMARK    3  A    between atoms: C_8  and  C_9
REMARK                            x       y       z     vdW  Elec       q    Type
REMARK                         _______ _______ _______ _____ _____    ______ ____
ROOT
ATOM      1  C   UNL     1     101.560 126.013  82.331  0.00  0.00    +0.000 C 
ATOM      2  C   UNL     1     102.624 126.259  81.549  0.00  0.00    +0.000 C 
ENDROOT
BRANCH   2   3
ATOM      3  C   UNL     1     103.625 125.241  81.195  0.00  0.00    +0.000 A 
ATOM      4  C   UNL     1     104.309 125.259  79.973  0.00  0.00    +0.000 A 
ATOM      5  C   UNL     1     105.270 124.290  79.702  0.00  0.00    +0.000 A 
ATOM      6  C   UNL     1     105.579 123.302  80.629  0.00  0.00    +0.000 A 
ATOM      7  C   UNL     1     104.919 123.285  81.854  0.00  0.00    +0.000 A 
ATOM      8  C   UNL     1     103.950 124.253  82.137  0.00  0.00    +0.000 A 
ATOM      9  F   UNL     1     105.915 124.314  78.527  0.00  0.00    +0.000 F 
ENDBRANCH   2   3
BRANCH   1  14
ATOM     10  C   UNL     1      99.379 130.448  84.182  0.00  0.00    +0.000 C 
ATOM     11  C   UNL     1      99.586 129.117  83.545  0.00  0.00    +0.000 A 
ATOM     12  C   UNL     1      98.653 128.292  82.961  0.00  0.00    +0.000 A 
ATOM     13  C   UNL     1      99.235 127.091  82.459  0.00  0.00    +0.000 A 
ATOM     14  C   UNL     1     100.603 127.018  82.665  0.00  0.00    +0.000 A 
ATOM     15  S   UNL     1     101.151 128.439  83.480  0.00  0.00    +0.000 S 
ENDBRANCH   1  14
TORSDOF 2
ENDMDL
