REMARK  Name = *****
REMARK  2 active torsions:
REMARK  status: ('A' for Active; 'I' for Inactive)
REMARK    1  A    between atoms: C_6  and  C_7
REMARK    2  A    between atoms: C_8  and  C_9
REMARK                            x       y       z     vdW  Elec       q    Type
REMARK                         _______ _______ _______ _____ _____    ______ ____
ROOT
ATOM      1  C   UNL     1      -2.417  -0.499  -0.705  0.00  0.00    +0.000 A 
ATOM      2  C   UNL     1      -1.208  -1.202  -0.700  0.00  0.00    +0.000 A 
ATOM      3  C   UNL     1      -0.096  -0.680  -0.036  0.00  0.00    +0.000 A 
ATOM      4  C   UNL     1      -0.198   0.546   0.628  0.00  0.00    +0.000 A 
ATOM      5  C   UNL     1      -1.411   1.247   0.620  0.00  0.00    +0.000 A 
ATOM      6  C   UNL     1      -2.527   0.738  -0.058  0.00  0.00    +0.000 A 
ATOM      7 CL   UNL     1       1.130   1.251   1.481  0.00  0.00    +0.000 Cl
ATOM      8 CL   UNL     1       1.366  -1.599  -0.070  0.00  0.00    +0.000 Cl
ENDROOT
BRANCH   6   9
ATOM      9  C   UNL     1      -3.824   1.428  -0.064  0.00  0.00    +0.000 C 
ATOM     10  C   UNL     1      -3.961   2.762  -0.141  0.00  0.00    +0.000 C 
BRANCH  10  11
ATOM     11  C   UNL     1      -5.261   3.450  -0.165  0.00  0.00    +0.000 A 
ATOM     12  C   UNL     1      -6.346   3.029   0.605  0.00  0.00    +0.000 A 
ATOM     13  C   UNL     1      -7.525   3.757   0.545  0.00  0.00    +0.000 A 
ATOM     14  N   UNL     1      -7.689   4.861  -0.212  0.00  0.00    +0.000 NA
ATOM     15  C   UNL     1      -6.623   5.260  -0.937  0.00  0.00    +0.000 A 
ATOM     16  C   UNL     1      -5.403   4.602  -0.942  0.00  0.00    +0.000 A 
ENDBRANCH  10  11
ENDBRANCH   6   9
TORSDOF 2
