MODEL 1
REMARK VINA RESULT:      -5.0      0.000      0.000
REMARK  Name = *****
REMARK  3 active torsions:
REMARK  status: ('A' for Active; 'I' for Inactive)
REMARK    1  A    between atoms: C_3  and  C_4
REMARK    2  A    between atoms: C_9  and  C_10
REMARK    3  A    between atoms: C_11  and  C_12
REMARK                            x       y       z     vdW  Elec       q    Type
REMARK                         _______ _______ _______ _____ _____    ______ ____
ROOT
ATOM      1  C   UNL     1     101.465 128.244  83.300  0.00  0.00    +0.000 A 
ATOM      2  C   UNL     1     100.405 129.100  83.655  0.00  0.00    +0.000 A 
ATOM      3  C   UNL     1      99.078 128.779  83.354  0.00  0.00    +0.000 A 
ATOM      4  C   UNL     1      98.782 127.596  82.689  0.00  0.00    +0.000 A 
ATOM      5  C   UNL     1      99.814 126.732  82.326  0.00  0.00    +0.000 A 
ATOM      6  C   UNL     1     101.148 127.046  82.624  0.00  0.00    +0.000 A 
ENDROOT
BRANCH   1   9
ATOM      7  C   UNL     1     104.723 129.116  81.885  0.00  0.00    +0.000 C 
ATOM      8  C   UNL     1     103.790 128.859  82.749  0.00  0.00    +0.000 C 
ATOM      9  C   UNL     1     102.861 128.606  83.627  0.00  0.00    +0.000 C 
ENDBRANCH   1   9
BRANCH   6  10
ATOM     10  C   UNL     1     102.152 126.102  82.218  0.00  0.00    +0.000 C 
ATOM     11  C   UNL     1     102.992 125.315  81.873  0.00  0.00    +0.000 C 
BRANCH  11  12
ATOM     12  C   UNL     1     103.991 124.375  81.466  0.00  0.00    +0.000 A 
ATOM     13  C   UNL     1     104.602 124.500  80.217  0.00  0.00    +0.000 A 
ATOM     14  C   UNL     1     105.576 123.582  79.820  0.00  0.00    +0.000 A 
ATOM     15  C   UNL     1     105.939 122.539  80.672  0.00  0.00    +0.000 A 
ATOM     16  C   UNL     1     105.330 122.412  81.920  0.00  0.00    +0.000 A 
ATOM     17  C   UNL     1     104.355 123.330  82.318  0.00  0.00    +0.000 A 
ENDBRANCH  11  12
ENDBRANCH   6  10
TORSDOF 3
ENDMDL
