REMARK  Name = *****
REMARK  1 active torsions:
REMARK  status: ('A' for Active; 'I' for Inactive)
REMARK    1  A    between atoms: C_4  and  C_7
REMARK                            x       y       z     vdW  Elec       q    Type
REMARK                         _______ _______ _______ _____ _____    ______ ____
ROOT
ATOM      1  C   UNL     1      -3.055   0.131  -0.531  0.00  0.00    +0.000 A 
ATOM      2  N   UNL     1      -3.847   0.915  -1.244  0.00  0.00    +0.000 NA
ATOM      3  C   UNL     1      -5.108   0.472  -0.942  0.00  0.00    +0.000 A 
ATOM      4  C   UNL     1      -5.034  -0.580  -0.043  0.00  0.00    +0.000 A 
ATOM      5  O   UNL     1      -3.716  -0.805   0.226  0.00  0.00    +0.000 OA
ATOM      6  C   UNL     1      -6.126  -1.264   0.473  0.00  0.00    +0.000 A 
ATOM      7  C   UNL     1      -7.373  -0.822   0.021  0.00  0.00    +0.000 A 
ATOM      8  C   UNL     1      -7.500   0.238  -0.887  0.00  0.00    +0.000 A 
ATOM      9  C   UNL     1      -6.366   0.901  -1.382  0.00  0.00    +0.000 A 
ATOM     10 CL   UNL     1      -8.796  -1.604   0.600  0.00  0.00    +0.000 Cl
ENDROOT
BRANCH   1  14
ATOM     11  C   UNL     1       1.215   0.177  -0.334  0.00  0.00    +0.000 A 
ATOM     12  C   UNL     1       0.536   1.088  -1.139  0.00  0.00    +0.000 A 
ATOM     13  C   UNL     1      -0.860   1.065  -1.196  0.00  0.00    +0.000 A 
ATOM     14  C   UNL     1      -1.596   0.131  -0.449  0.00  0.00    +0.000 A 
ATOM     15  C   UNL     1      -0.896  -0.779   0.358  0.00  0.00    +0.000 A 
ATOM     16  C   UNL     1       0.501  -0.756   0.415  0.00  0.00    +0.000 A 
ENDBRANCH   1  14
TORSDOF 1
