MODEL 1
REMARK VINA RESULT:      -3.2      0.000      0.000
REMARK  Name = *****
REMARK  5 active torsions:
REMARK  status: ('A' for Active; 'I' for Inactive)
REMARK    1  A    between atoms: C_1  and  C_2
REMARK    2  A    between atoms: C_2  and  C_3
REMARK    3  A    between atoms: C_2  and  C_10
REMARK    4  A    between atoms: C_3  and  C_4
REMARK    5  A    between atoms: C_4  and  C_9
REMARK                            x       y       z     vdW  Elec       q    Type
REMARK                         _______ _______ _______ _____ _____    ______ ____
ROOT
ATOM      1  C   UNL     1     102.331 125.715  83.561  0.00  0.00    +0.000 C 
ATOM      2  C   UNL     1     101.789 126.775  82.594  0.00  0.00    +0.000 C 
ENDROOT
BRANCH   2   3
ATOM      3  C   UNL     1     102.750 127.076  81.405  0.00  0.00    +0.000 C 
ATOM      4  S   UNL     1     104.092 128.256  81.804  0.00  0.00    +0.000 S 
ATOM      5  C   UNL     1     105.417 127.391  80.927  0.00  0.00    +0.000 C 
ATOM      6  C   UNL     1     105.200 125.905  81.121  0.00  0.00    +0.000 C 
ATOM      7  S   UNL     1     103.476 125.547  80.702  0.00  0.00    +0.000 S 
ENDBRANCH   2   3
BRANCH   2   8
ATOM      8  C   UNL     1     101.398 128.107  83.306  0.00  0.00    +0.000 C 
BRANCH   8   9
ATOM      9  C   UNL     1      99.904 128.374  83.629  0.00  0.00    +0.000 C 
ATOM     10  S   UNL     1      98.786 127.342  82.587  0.00  0.00    +0.000 S 
ATOM     11  C   UNL     1      97.958 126.430  83.916  0.00  0.00    +0.000 C 
ATOM     12  C   UNL     1      98.941 126.252  85.052  0.00  0.00    +0.000 C 
ATOM     13  S   UNL     1      99.629 127.885  85.393  0.00  0.00    +0.000 S 
ATOM     14  C   UNL     1      99.498 129.843  83.499  0.00  0.00    +0.000 C 
ENDBRANCH   8   9
ENDBRANCH   2   8
TORSDOF 3
ENDMDL
