REMARK  Name = *****
REMARK  3 active torsions:
REMARK  status: ('A' for Active; 'I' for Inactive)
REMARK    1  A    between atoms: C_2  and  C_3
REMARK    2  A    between atoms: C_2  and  O_9
REMARK    3  A    between atoms: O_9  and  C_10
REMARK                            x       y       z     vdW  Elec       q    Type
REMARK                         _______ _______ _______ _____ _____    ______ ____
ROOT
ATOM      1  C   UNL     1       3.026  -1.456  -0.601  0.00  0.00    +0.000 C 
ATOM      2  C   UNL     1       2.415  -0.590   0.224  0.00  0.00    +0.000 C 
ENDROOT
BRANCH   2   3
ATOM      3  C   UNL     1       0.938  -0.561   0.310  0.00  0.00    +0.000 A 
ATOM      4  C   UNL     1       0.313  -0.520   1.565  0.00  0.00    +0.000 A 
ATOM      5  C   UNL     1      -1.080  -0.484   1.670  0.00  0.00    +0.000 A 
ATOM      6  C   UNL     1      -1.866  -0.481   0.519  0.00  0.00    +0.000 A 
ATOM      7  C   UNL     1      -1.260  -0.509  -0.735  0.00  0.00    +0.000 A 
ATOM      8  C   UNL     1       0.133  -0.546  -0.839  0.00  0.00    +0.000 A 
ENDBRANCH   2   3
BRANCH   2   9
ATOM      9  O   UNL     1       3.021   0.309   1.069  0.00  0.00    +0.000 OA
BRANCH   9  10
ATOM     10  C   UNL     1       4.446   0.395   1.142  0.00  0.00    +0.000 C 
ATOM     11  C   UNL     1       4.788   0.978   2.519  0.00  0.00    +0.000 C 
ATOM     12  C   UNL     1       6.285   1.223   2.676  0.00  0.00    +0.000 C 
ATOM     13  C   UNL     1       6.827   2.110   1.559  0.00  0.00    +0.000 C 
ATOM     14  C   UNL     1       6.480   1.555   0.180  0.00  0.00    +0.000 C 
ATOM     15  C   UNL     1       4.982   1.309   0.034  0.00  0.00    +0.000 C 
ENDBRANCH   9  10
ENDBRANCH   2   9
TORSDOF 3
