MODEL 1
REMARK VINA RESULT:      -4.7      0.000      0.000
REMARK  Name = *****
REMARK  2 active torsions:
REMARK  status: ('A' for Active; 'I' for Inactive)
REMARK    1  A    between atoms: C_4  and  C_7
REMARK    2  A    between atoms: C_8  and  C_9
REMARK                            x       y       z     vdW  Elec       q    Type
REMARK                         _______ _______ _______ _____ _____    ______ ____
ROOT
ATOM      1  C   UNL     1     101.951 125.930  82.310  0.00  0.00    +0.000 C 
ATOM      2  C   UNL     1     103.271 126.117  82.472  0.00  0.00    +0.000 C 
ENDROOT
BRANCH   2   3
ATOM      3  C   UNL     1     104.327 125.074  82.164  0.00  0.00    +0.000 C 
ATOM      4  C   UNL     1     104.303 123.983  83.220  0.00  0.00    +0.000 C 
ATOM      5  C   UNL     1     104.539 122.693  82.928  0.00  0.00    +0.000 C 
ATOM      6  C   UNL     1     104.855 122.277  81.583  0.00  0.00    +0.000 C 
ATOM      7  C   UNL     1     104.666 123.101  80.541  0.00  0.00    +0.000 C 
ATOM      8  C   UNL     1     104.120 124.493  80.727  0.00  0.00    +0.000 C 
ATOM      9  F   UNL     1     104.672 125.332  79.802  0.00  0.00    +0.000 F 
ATOM     10  F   UNL     1     105.573 125.643  82.220  0.00  0.00    +0.000 F 
ENDBRANCH   2   3
BRANCH   1  14
ATOM     11  C   UNL     1      99.031 128.886  83.317  0.00  0.00    +0.000 A 
ATOM     12  C   UNL     1      98.628 127.716  82.678  0.00  0.00    +0.000 A 
ATOM     13  C   UNL     1      99.572 126.743  82.337  0.00  0.00    +0.000 A 
ATOM     14  C   UNL     1     100.930 126.939  82.623  0.00  0.00    +0.000 A 
ATOM     15  C   UNL     1     101.319 128.111  83.281  0.00  0.00    +0.000 A 
ATOM     16  C   UNL     1     100.376 129.084  83.621  0.00  0.00    +0.000 A 
ENDBRANCH   1  14
TORSDOF 2
ENDMDL
