MODEL 1
REMARK VINA RESULT:      -4.9      0.000      0.000
REMARK  Name = *****
REMARK  4 active torsions:
REMARK  status: ('A' for Active; 'I' for Inactive)
REMARK    1  A    between atoms: C_1  and  C_2
REMARK    2  A    between atoms: C_4  and  C_16
REMARK    3  A    between atoms: C_5  and  C_8
REMARK    4  A    between atoms: C_9  and  C_10
REMARK                            x       y       z     vdW  Elec       q    Type
REMARK                         _______ _______ _______ _____ _____    ______ ____
ROOT
ATOM      1  C   UNL     1      99.379 131.217  84.543  0.00  0.00    +0.000 C 
ATOM      2  C   UNL     1      99.983 129.952  84.010  0.00  0.00    +0.000 A 
ATOM      3  C   UNL     1      99.170 128.956  83.455  0.00  0.00    +0.000 A 
ATOM      4  C   UNL     1      99.714 127.748  82.983  0.00  0.00    +0.000 A 
ATOM      5  C   UNL     1     101.102 127.534  83.079  0.00  0.00    +0.000 A 
ATOM      6  C   UNL     1     101.912 128.532  83.643  0.00  0.00    +0.000 A 
ATOM      7  C   UNL     1     101.357 129.725  84.112  0.00  0.00    +0.000 A 
ATOM      8  C   UNL     1      98.793 126.716  82.387  0.00  0.00    +0.000 C 
ENDROOT
BRANCH   5   9
ATOM      9  C   UNL     1     101.723 126.303  82.568  0.00  0.00    +0.000 C 
ATOM     10  C   UNL     1     103.034 126.043  82.701  0.00  0.00    +0.000 C 
BRANCH  10  11
ATOM     11  C   UNL     1     103.681 124.815  82.219  0.00  0.00    +0.000 A 
ATOM     12  C   UNL     1     104.028 124.628  80.874  0.00  0.00    +0.000 A 
ATOM     13  C   UNL     1     104.670 123.458  80.461  0.00  0.00    +0.000 A 
ATOM     14  C   UNL     1     104.983 122.468  81.390  0.00  0.00    +0.000 A 
ATOM     15  C   UNL     1     104.659 122.649  82.733  0.00  0.00    +0.000 A 
ATOM     16  C   UNL     1     104.016 123.819  83.145  0.00  0.00    +0.000 A 
ENDBRANCH  10  11
ENDBRANCH   5   9
TORSDOF 2
ENDMDL
