MODEL 1
REMARK VINA RESULT:      -4.4      0.000      0.000
REMARK  Name = *****
REMARK  3 active torsions:
REMARK  status: ('A' for Active; 'I' for Inactive)
REMARK    1  A    between atoms: C_4  and  S_7
REMARK    2  A    between atoms: S_7  and  C_8
REMARK    3  A    between atoms: C_9  and  C_10
REMARK                            x       y       z     vdW  Elec       q    Type
REMARK                         _______ _______ _______ _____ _____    ______ ____
ROOT
ATOM      1  C   UNL     1     103.212 125.577  81.352  0.00  0.00    +0.000 C 
ATOM      2  C   UNL     1     102.359 126.234  81.887  0.00  0.00    +0.000 C 
ENDROOT
BRANCH   2   3
ATOM      3  C   UNL     1     101.308 127.025  82.447  0.00  0.00    +0.000 A 
ATOM      4  C   UNL     1     101.621 128.185  83.162  0.00  0.00    +0.000 A 
ATOM      5  C   UNL     1     100.605 128.953  83.734  0.00  0.00    +0.000 A 
ATOM      6  C   UNL     1      99.274 128.564  83.593  0.00  0.00    +0.000 A 
ATOM      7  C   UNL     1      98.957 127.410  82.875  0.00  0.00    +0.000 A 
ATOM      8  C   UNL     1      99.973 126.640  82.302  0.00  0.00    +0.000 A 
ENDBRANCH   2   3
BRANCH   1   9
ATOM      9  S   UNL     1     104.334 124.661  80.483  0.00  0.00    +0.000 S 
BRANCH   9  13
ATOM     10  C   UNL     1     104.429 120.795  83.035  0.00  0.00    +0.000 C 
ATOM     11  C   UNL     1     104.887 122.085  83.703  0.00  0.00    +0.000 C 
ATOM     12  C   UNL     1     104.324 123.314  82.980  0.00  0.00    +0.000 C 
ATOM     13  C   UNL     1     104.430 123.225  81.473  0.00  0.00    +0.000 C 
ATOM     14  C   UNL     1     104.700 122.057  80.860  0.00  0.00    +0.000 C 
ATOM     15  C   UNL     1     104.871 120.749  81.574  0.00  0.00    +0.000 C 
ENDBRANCH   9  13
ENDBRANCH   1   9
TORSDOF 3
ENDMDL
