MODEL 1
REMARK VINA RESULT:      -4.5      0.000      0.000
REMARK  Name = *****
REMARK  2 active torsions:
REMARK  status: ('A' for Active; 'I' for Inactive)
REMARK    1  A    between atoms: C_5  and  C_7
REMARK    2  A    between atoms: C_8  and  C_9
REMARK                            x       y       z     vdW  Elec       q    Type
REMARK                         _______ _______ _______ _____ _____    ______ ____
ROOT
ATOM      1  C   UNL     1     101.963 126.188  82.300  0.00  0.00    +0.000 C 
ATOM      2  C   UNL     1     102.832 125.404  82.024  0.00  0.00    +0.000 C 
ENDROOT
BRANCH   2   3
ATOM      3  C   UNL     1     103.863 124.461  81.723  0.00  0.00    +0.000 A 
ATOM      4  C   UNL     1     104.365 123.628  82.726  0.00  0.00    +0.000 A 
ATOM      5  C   UNL     1     105.386 122.719  82.436  0.00  0.00    +0.000 A 
ATOM      6  C   UNL     1     105.902 122.648  81.143  0.00  0.00    +0.000 A 
ATOM      7  C   UNL     1     105.404 123.475  80.137  0.00  0.00    +0.000 A 
ATOM      8  C   UNL     1     104.382 124.383  80.427  0.00  0.00    +0.000 A 
ATOM      9 CL   UNL     1     107.166 121.536  80.787  0.00  0.00    +0.000 Cl
ENDBRANCH   2   3
BRANCH   1  14
ATOM     10  C   UNL     1     100.178 129.140  83.653  0.00  0.00    +0.000 A 
ATOM     11  C   UNL     1      98.880 128.781  83.305  0.00  0.00    +0.000 A 
ATOM     12  C   UNL     1      98.687 127.583  82.634  0.00  0.00    +0.000 A 
ATOM     13  N   UNL     1      99.687 126.739  82.298  0.00  0.00    +0.000 NA
ATOM     14  C   UNL     1     100.936 127.114  82.651  0.00  0.00    +0.000 A 
ATOM     15  C   UNL     1     101.231 128.293  83.321  0.00  0.00    +0.000 A 
ENDBRANCH   1  14
TORSDOF 2
ENDMDL
