MODEL 1
REMARK VINA RESULT:      -5.0      0.000      0.000
REMARK  Name = *****
REMARK  3 active torsions:
REMARK  status: ('A' for Active; 'I' for Inactive)
REMARK    1  A    between atoms: C_1  and  C_2
REMARK    2  A    between atoms: C_5  and  N_8
REMARK    3  A    between atoms: C_9  and  C_10
REMARK                            x       y       z     vdW  Elec       q    Type
REMARK                         _______ _______ _______ _____ _____    ______ ____
ROOT
ATOM      1  C   UNL     1     103.940 124.797  81.761  0.00  0.00    +0.000 A 
ATOM      2  C   UNL     1     104.489 124.817  80.476  0.00  0.00    +0.000 A 
ATOM      3  C   UNL     1     105.294 123.766  80.045  0.00  0.00    +0.000 A 
ATOM      4  C   UNL     1     105.557 122.694  80.885  0.00  0.00    +0.000 A 
ATOM      5  C   UNL     1     105.014 122.668  82.162  0.00  0.00    +0.000 A 
ATOM      6  C   UNL     1     104.209 123.715  82.598  0.00  0.00    +0.000 A 
ATOM      7  F   UNL     1     103.695 123.670  83.836  0.00  0.00    +0.000 F 
ATOM      8  F   UNL     1     105.265 121.635  82.977  0.00  0.00    +0.000 F 
ATOM      9  F   UNL     1     106.333 121.684  80.466  0.00  0.00    +0.000 F 
ATOM     10  F   UNL     1     105.817 123.788  78.811  0.00  0.00    +0.000 F 
ATOM     11  F   UNL     1     104.259 125.829  79.629  0.00  0.00    +0.000 F 
ENDROOT
BRANCH   1  13
ATOM     12  N   UNL     1     101.811 125.920  82.043  0.00  0.00    +0.000 NA
ATOM     13  C   UNL     1     103.082 125.873  82.280  0.00  0.00    +0.000 C 
BRANCH  12  18
ATOM     14  C   UNL     1      99.013 130.314  84.393  0.00  0.00    +0.000 C 
ATOM     15  C   UNL     1      99.748 129.177  83.748  0.00  0.00    +0.000 A 
ATOM     16  C   UNL     1      99.044 128.146  83.114  0.00  0.00    +0.000 A 
ATOM     17  C   UNL     1      99.728 127.068  82.547  0.00  0.00    +0.000 A 
ATOM     18  C   UNL     1     101.122 127.005  82.603  0.00  0.00    +0.000 A 
ATOM     19  C   UNL     1     101.823 128.015  83.262  0.00  0.00    +0.000 A 
ATOM     20  C   UNL     1     101.143 129.094  83.833  0.00  0.00    +0.000 A 
ENDBRANCH  12  18
ENDBRANCH   1  13
TORSDOF 2
ENDMDL
