MODEL 1
REMARK VINA RESULT:      -5.5      0.000      0.000
REMARK  Name = *****
REMARK  6 active torsions:
REMARK  status: ('A' for Active; 'I' for Inactive)
REMARK    1  A    between atoms: C_1  and  C_2
REMARK    2  A    between atoms: C_4  and  C_10
REMARK    3  A    between atoms: C_6  and  C_9
REMARK    4  A    between atoms: C_7  and  C_8
REMARK    5  A    between atoms: C_10  and  C_11
REMARK    6  A    between atoms: C_11  and  C_13
REMARK                            x       y       z     vdW  Elec       q    Type
REMARK                         _______ _______ _______ _____ _____    ______ ____
ROOT
ATOM      1  C   UNL     1      87.814  70.753  85.663  0.00  0.00    +0.000 C 
ATOM      2  F   UNL     1      87.415  69.822  84.733  0.00  0.00    +0.000 F 
ATOM      3  F   UNL     1      88.423  71.729  84.910  0.00  0.00    +0.000 F 
ENDROOT
BRANCH   1   7
ATOM      4  C   UNL     1      83.316  73.016  85.529  0.00  0.00    +0.000 C 
ATOM      5  C   UNL     1      84.427  72.421  86.355  0.00  0.00    +0.000 A 
ATOM      6  C   UNL     1      85.543  71.888  85.689  0.00  0.00    +0.000 A 
ATOM      7  C   UNL     1      86.608  71.319  86.398  0.00  0.00    +0.000 A 
ATOM      8  C   UNL     1      86.545  71.286  87.796  0.00  0.00    +0.000 A 
ATOM      9  C   UNL     1      85.442  71.812  88.489  0.00  0.00    +0.000 A 
ATOM     10  C   UNL     1      84.385  72.415  87.768  0.00  0.00    +0.000 A 
ATOM     11  C   UNL     1      83.191  72.985  88.496  0.00  0.00    +0.000 C 
ATOM     12  C   UNL     1      85.440  71.738  89.993  0.00  0.00    +0.000 C 
ENDBRANCH   1   7
BRANCH   1  13
ATOM     13  C   UNL     1      88.842  70.123  86.623  0.00  0.00    +0.000 C 
ATOM     14  O   UNL     1      89.651  70.773  87.290  0.00  0.00    +0.000 OA
BRANCH  13  15
ATOM     15  C   UNL     1      88.870  68.629  86.753  0.00  0.00    +0.000 A 
ATOM     16  C   UNL     1      87.849  67.896  87.373  0.00  0.00    +0.000 A 
ATOM     17  C   UNL     1      87.934  66.504  87.462  0.00  0.00    +0.000 A 
ATOM     18  C   UNL     1      89.033  65.831  86.933  0.00  0.00    +0.000 A 
ATOM     19  C   UNL     1      90.053  66.548  86.312  0.00  0.00    +0.000 A 
ATOM     20  C   UNL     1      89.972  67.939  86.221  0.00  0.00    +0.000 A 
ENDBRANCH  13  15
ENDBRANCH   1  13
TORSDOF 3
ENDMDL
