MODEL 1
REMARK VINA RESULT:      -4.6      0.000      0.000
REMARK  Name = *****
REMARK  4 active torsions:
REMARK  status: ('A' for Active; 'I' for Inactive)
REMARK    1  A    between atoms: C_1  and  C_2
REMARK    2  A    between atoms: C_7  and  C_8
REMARK    3  A    between atoms: C_8  and  O_10
REMARK    4  A    between atoms: O_10  and  C_11
REMARK                            x       y       z     vdW  Elec       q    Type
REMARK                         _______ _______ _______ _____ _____    ______ ____
ROOT
ATOM      1  C   UNL     1     101.989 125.934  82.674  0.00  0.00    +0.000 C 
ATOM      2  O   UNL     1     102.426 125.225  83.568  0.00  0.00    +0.000 OA
ENDROOT
BRANCH   1   9
ATOM      3  C   UNL     1     102.632 128.537  84.123  0.00  0.00    +0.000 C 
ATOM      4  C   UNL     1     101.278 128.221  83.552  0.00  0.00    +0.000 A 
ATOM      5  C   UNL     1     100.253 129.175  83.677  0.00  0.00    +0.000 A 
ATOM      6  C   UNL     1      98.967 128.913  83.197  0.00  0.00    +0.000 A 
ATOM      7  C   UNL     1      98.683 127.696  82.587  0.00  0.00    +0.000 A 
ATOM      8  C   UNL     1      99.689 126.743  82.442  0.00  0.00    +0.000 A 
ATOM      9  C   UNL     1     100.988 127.005  82.903  0.00  0.00    +0.000 A 
ENDBRANCH   1   9
BRANCH   1  10
ATOM     10  O   UNL     1     102.192 125.797  81.315  0.00  0.00    +0.000 OA
BRANCH  10  11
ATOM     11  C   UNL     1     103.449 126.265  80.922  0.00  0.00    +0.000 A 
ATOM     12  C   UNL     1     104.529 125.389  80.776  0.00  0.00    +0.000 A 
ATOM     13  C   UNL     1     105.781 125.890  80.416  0.00  0.00    +0.000 A 
ATOM     14  C   UNL     1     105.941 127.261  80.218  0.00  0.00    +0.000 A 
ATOM     15  C   UNL     1     104.867 128.138  80.382  0.00  0.00    +0.000 A 
ATOM     16  C   UNL     1     103.615 127.641  80.744  0.00  0.00    +0.000 A 
ATOM     17 CL   UNL     1     107.484 127.882  79.776  0.00  0.00    +0.000 Cl
ATOM     18 CL   UNL     1     104.361 123.695  81.044  0.00  0.00    +0.000 Cl
ENDBRANCH  10  11
ENDBRANCH   1  10
TORSDOF 3
ENDMDL
