MODEL 1
REMARK VINA RESULT:      -4.2      0.000      0.000
REMARK  Name = *****
REMARK  3 active torsions:
REMARK  status: ('A' for Active; 'I' for Inactive)
REMARK    1  A    between atoms: C_4  and  C_6
REMARK    2  A    between atoms: C_7  and  C_8
REMARK    3  A    between atoms: C_11  and  C_14
REMARK                            x       y       z     vdW  Elec       q    Type
REMARK                         _______ _______ _______ _____ _____    ______ ____
ROOT
ATOM      1  C   UNL     1     103.633 125.010  81.378  0.00  0.00    +0.000 A 
ATOM      2  C   UNL     1     104.030 124.128  82.391  0.00  0.00    +0.000 A 
ATOM      3  C   UNL     1     105.057 123.205  82.171  0.00  0.00    +0.000 A 
ATOM      4  C   UNL     1     105.692 123.145  80.927  0.00  0.00    +0.000 A 
ATOM      5  C   UNL     1     105.291 124.010  79.905  0.00  0.00    +0.000 A 
ATOM      6  C   UNL     1     104.263 124.932  80.129  0.00  0.00    +0.000 A 
ENDROOT
BRANCH   1   8
ATOM      7  C   UNL     1     101.755 126.001  82.654  0.00  0.00    +0.000 C 
ATOM      8  C   UNL     1     102.536 125.972  81.562  0.00  0.00    +0.000 C 
BRANCH   7  12
ATOM      9  C   UNL     1      98.640 128.080  82.811  0.00  0.00    +0.000 A 
ATOM     10  C   UNL     1      99.442 129.001  83.441  0.00  0.00    +0.000 A 
ATOM     11  S   UNL     1     101.049 128.448  83.597  0.00  0.00    +0.000 S 
ATOM     12  C   UNL     1     100.698 126.946  82.817  0.00  0.00    +0.000 A 
ATOM     13  C   UNL     1      99.360 126.902  82.455  0.00  0.00    +0.000 A 
ENDBRANCH   7  12
ENDBRANCH   1   8
BRANCH   4  14
ATOM     14  C   UNL     1     106.744 122.199  80.699  0.00  0.00    +0.000 C 
ATOM     15  N   UNL     1     107.596 121.432  80.515  0.00  0.00    +0.000 NA
ENDBRANCH   4  14
TORSDOF 3
ENDMDL
