MODEL 1
REMARK VINA RESULT:      -4.1      0.000      0.000
REMARK  Name = *****
REMARK  3 active torsions:
REMARK  status: ('A' for Active; 'I' for Inactive)
REMARK    1  A    between atoms: C_4  and  S_8
REMARK    2  A    between atoms: S_8  and  S_9
REMARK    3  A    between atoms: S_9  and  C_10
REMARK                            x       y       z     vdW  Elec       q    Type
REMARK                         _______ _______ _______ _____ _____    ______ ____
ROOT
ATOM      1  S   UNL     1     102.903 127.951  84.325  0.00  0.00    +0.000 S 
ENDROOT
BRANCH   1   5
ATOM      2  C   UNL     1      98.635 128.037  82.640  0.00  0.00    +0.000 A 
ATOM      3  C   UNL     1      99.159 129.154  83.293  0.00  0.00    +0.000 A 
ATOM      4  C   UNL     1     100.458 129.124  83.805  0.00  0.00    +0.000 A 
ATOM      5  C   UNL     1     101.249 127.976  83.663  0.00  0.00    +0.000 A 
ATOM      6  C   UNL     1     100.708 126.863  83.013  0.00  0.00    +0.000 A 
ATOM      7  C   UNL     1      99.413 126.888  82.502  0.00  0.00    +0.000 A 
ATOM      8  F   UNL     1     101.428 125.739  82.869  0.00  0.00    +0.000 F 
ENDBRANCH   1   5
BRANCH   1   9
ATOM      9  S   UNL     1     104.024 128.387  82.655  0.00  0.00    +0.000 S 
BRANCH   9  10
ATOM     10  C   UNL     1     104.216 126.780  81.907  0.00  0.00    +0.000 A 
ATOM     11  C   UNL     1     104.797 125.727  82.626  0.00  0.00    +0.000 A 
ATOM     12  C   UNL     1     104.943 124.467  82.038  0.00  0.00    +0.000 A 
ATOM     13  C   UNL     1     104.508 124.247  80.731  0.00  0.00    +0.000 A 
ATOM     14  C   UNL     1     103.921 125.286  80.012  0.00  0.00    +0.000 A 
ATOM     15  C   UNL     1     103.776 126.541  80.602  0.00  0.00    +0.000 A 
ATOM     16  F   UNL     1     103.210 127.521  79.880  0.00  0.00    +0.000 F 
ENDBRANCH   9  10
ENDBRANCH   1   9
TORSDOF 3
ENDMDL
