REMARK  Name = *****
REMARK  4 active torsions:
REMARK  status: ('A' for Active; 'I' for Inactive)
REMARK    1  A    between atoms: C_1  and  C_2
REMARK    2  A    between atoms: C_4  and  C_8
REMARK    3  A    between atoms: N_9  and  C_10
REMARK    4  A    between atoms: C_15  and  C_16
REMARK                            x       y       z     vdW  Elec       q    Type
REMARK                         _______ _______ _______ _____ _____    ______ ____
ROOT
ATOM      1  C   UNL     1      -1.625   2.660  -0.270  0.00  0.00    +0.000 C 
ATOM      2  N   UNL     1      -1.227   3.686   0.415  0.00  0.00    +0.000 NA
ENDROOT
BRANCH   1   6
ATOM      3  C   UNL     1       2.202  -0.168   1.318  0.00  0.00    +0.000 C 
ATOM      4  C   UNL     1       0.935  -0.008   0.532  0.00  0.00    +0.000 A 
ATOM      5  C   UNL     1       0.261   1.220   0.515  0.00  0.00    +0.000 A 
ATOM      6  C   UNL     1      -0.902   1.374  -0.247  0.00  0.00    +0.000 A 
ATOM      7  C   UNL     1      -1.396   0.310  -1.004  0.00  0.00    +0.000 A 
ATOM      8  C   UNL     1      -0.721  -0.910  -1.001  0.00  0.00    +0.000 A 
ATOM      9  C   UNL     1       0.441  -1.067  -0.242  0.00  0.00    +0.000 A 
ENDBRANCH   1   6
BRANCH   2  10
ATOM     10  C   UNL     1      -2.013   4.844   0.292  0.00  0.00    +0.000 A 
ATOM     11  C   UNL     1      -3.136   5.001   1.112  0.00  0.00    +0.000 A 
ATOM     12  C   UNL     1      -3.935   6.140   1.018  0.00  0.00    +0.000 A 
ATOM     13  C   UNL     1      -3.609   7.139   0.105  0.00  0.00    +0.000 A 
ATOM     14  C   UNL     1      -2.481   7.004  -0.706  0.00  0.00    +0.000 A 
ATOM     15  C   UNL     1      -1.668   5.863  -0.613  0.00  0.00    +0.000 A 
ATOM     16  C   UNL     1      -0.451   5.735  -1.485  0.00  0.00    +0.000 C 
ENDBRANCH   2  10
TORSDOF 2
