MODEL 1
REMARK VINA RESULT:      -4.5      0.000      0.000
REMARK  Name = *****
REMARK  2 active torsions:
REMARK  status: ('A' for Active; 'I' for Inactive)
REMARK    1  A    between atoms: C_3  and  C_7
REMARK    2  A    between atoms: C_8  and  C_10
REMARK                            x       y       z     vdW  Elec       q    Type
REMARK                         _______ _______ _______ _____ _____    ______ ____
ROOT
ATOM      1  C   UNL     1      87.776  69.715  87.158  0.00  0.00    +0.000 C 
ATOM      2  C   UNL     1      87.132  70.879  87.883  0.00  0.00    +0.000 C 
ATOM      3  S   UNL     1      86.918  69.306  88.596  0.00  0.00    +0.000 S 
ENDROOT
BRANCH   1   6
ATOM      4  C   UNL     1      89.746  70.894  85.039  0.00  0.00    +0.000 C 
ATOM      5  C   UNL     1      89.993  70.749  86.544  0.00  0.00    +0.000 C 
ATOM      6  C   UNL     1      89.282  69.533  87.160  0.00  0.00    +0.000 C 
ATOM      7  C   UNL     1      89.690  68.244  86.416  0.00  0.00    +0.000 C 
ATOM      8  C   UNL     1      89.749  68.397  84.921  0.00  0.00    +0.000 C 
ATOM      9  C   UNL     1      89.759  69.587  84.305  0.00  0.00    +0.000 C 
ENDBRANCH   1   6
BRANCH   2  10
ATOM     10  C   UNL     1      85.900  71.540  87.301  0.00  0.00    +0.000 A 
ATOM     11  C   UNL     1      84.873  72.058  88.112  0.00  0.00    +0.000 A 
ATOM     12  C   UNL     1      83.742  72.670  87.566  0.00  0.00    +0.000 A 
ATOM     13  C   UNL     1      83.615  72.794  86.187  0.00  0.00    +0.000 A 
ATOM     14  C   UNL     1      84.623  72.313  85.357  0.00  0.00    +0.000 A 
ATOM     15  C   UNL     1      85.751  71.699  85.910  0.00  0.00    +0.000 A 
ENDBRANCH   2  10
TORSDOF 2
ENDMDL
