MODEL 1
REMARK VINA RESULT:      -4.4      0.000      0.000
REMARK  Name = *****
REMARK  4 active torsions:
REMARK  status: ('A' for Active; 'I' for Inactive)
REMARK    1  A    between atoms: C_4  and  O_7
REMARK    2  A    between atoms: O_7  and  C_8
REMARK    3  A    between atoms: C_8  and  O_10
REMARK    4  A    between atoms: O_10  and  C_11
REMARK                            x       y       z     vdW  Elec       q    Type
REMARK                         _______ _______ _______ _____ _____    ______ ____
ROOT
ATOM      1  C   UNL     1     102.956 126.298  81.614  0.00  0.00    +0.000 C 
ATOM      2  O   UNL     1     103.022 127.015  80.624  0.00  0.00    +0.000 OA
ENDROOT
BRANCH   1   3
ATOM      3  O   UNL     1     101.797 125.849  82.233  0.00  0.00    +0.000 OA
BRANCH   3   7
ATOM      4  C   UNL     1      99.136 128.860  83.356  0.00  0.00    +0.000 A 
ATOM      5  C   UNL     1     100.487 128.983  83.688  0.00  0.00    +0.000 A 
ATOM      6  C   UNL     1     101.387 127.980  83.332  0.00  0.00    +0.000 A 
ATOM      7  C   UNL     1     100.919 126.851  82.660  0.00  0.00    +0.000 A 
ATOM      8  C   UNL     1      99.577 126.729  82.304  0.00  0.00    +0.000 A 
ATOM      9  C   UNL     1      98.682 127.737  82.661  0.00  0.00    +0.000 A 
ENDBRANCH   3   7
ENDBRANCH   1   3
BRANCH   1  10
ATOM     10  O   UNL     1     104.030 125.782  82.328  0.00  0.00    +0.000 OA
BRANCH  10  11
ATOM     11  C   UNL     1     104.246 124.425  82.088  0.00  0.00    +0.000 A 
ATOM     12  C   UNL     1     104.526 123.995  80.790  0.00  0.00    +0.000 A 
ATOM     13  C   UNL     1     104.788 122.644  80.566  0.00  0.00    +0.000 A 
ATOM     14  C   UNL     1     104.782 121.756  81.639  0.00  0.00    +0.000 A 
ATOM     15  C   UNL     1     104.522 122.192  82.936  0.00  0.00    +0.000 A 
ATOM     16  C   UNL     1     104.257 123.541  83.168  0.00  0.00    +0.000 A 
ATOM     17  F   UNL     1     105.039 120.460  81.421  0.00  0.00    +0.000 F 
ENDBRANCH  10  11
ENDBRANCH   1  10
TORSDOF 4
ENDMDL
