MODEL 1
REMARK VINA RESULT:      -4.5      0.000      0.000
REMARK  Name = *****
REMARK  2 active torsions:
REMARK  status: ('A' for Active; 'I' for Inactive)
REMARK    1  A    between atoms: C_4  and  C_7
REMARK    2  A    between atoms: C_8  and  C_9
REMARK                            x       y       z     vdW  Elec       q    Type
REMARK                         _______ _______ _______ _____ _____    ______ ____
ROOT
ATOM      1  C   UNL     1      97.997 118.473  80.595  0.00  0.00    +0.000 C 
ATOM      2  C   UNL     1      97.528 117.556  79.976  0.00  0.00    +0.000 C 
ENDROOT
BRANCH   1   6
ATOM      3  C   UNL     1      96.801 120.202  83.670  0.00  0.00    +0.000 C 
ATOM      4  C   UNL     1      97.715 118.981  83.676  0.00  0.00    +0.000 C 
ATOM      5  C   UNL     1      98.938 119.185  82.780  0.00  0.00    +0.000 C 
ATOM      6  C   UNL     1      98.571 119.605  81.350  0.00  0.00    +0.000 C 
ATOM      7  C   UNL     1      97.612 120.806  81.353  0.00  0.00    +0.000 C 
ATOM      8  C   UNL     1      96.395 120.596  82.254  0.00  0.00    +0.000 C 
ENDBRANCH   1   6
BRANCH   2   9
ATOM      9  C   UNL     1      96.975 116.478  79.225  0.00  0.00    +0.000 C 
ATOM     10  C   UNL     1      97.405 116.265  77.969  0.00  0.00    +0.000 C 
ATOM     11  C   UNL     1      96.887 115.168  77.086  0.00  0.00    +0.000 C 
ATOM     12  C   UNL     1      95.620 114.503  77.626  0.00  0.00    +0.000 C 
ATOM     13  C   UNL     1      95.717 114.274  79.130  0.00  0.00    +0.000 C 
ATOM     14  C   UNL     1      95.939 115.594  79.875  0.00  0.00    +0.000 C 
ENDBRANCH   2   9
TORSDOF 2
ENDMDL
