REMARK  Name = *****
REMARK  2 active torsions:
REMARK  status: ('A' for Active; 'I' for Inactive)
REMARK    1  A    between atoms: C_1  and  C_11
REMARK    2  A    between atoms: C_2  and  C_5
REMARK                            x       y       z     vdW  Elec       q    Type
REMARK                         _______ _______ _______ _____ _____    ______ ____
ROOT
ATOM      1  C   UNL     1       1.992   0.014  -0.030  0.00  0.00    +0.000 C 
ATOM      2  C   UNL     1       2.780   0.816  -1.173  0.00  0.00    +0.000 C 
ATOM      3  C   UNL     1       2.718  -0.592  -1.080  0.00  0.00    +0.000 C 
ATOM      4  C   UNL     1       3.094  -1.732  -1.621  0.00  0.00    +0.000 C 
ENDROOT
BRANCH   2   5
ATOM      5  C   UNL     1       4.057   1.524  -0.801  0.00  0.00    +0.000 A 
ATOM      6  C   UNL     1       5.257   1.302  -1.500  0.00  0.00    +0.000 A 
ATOM      7  C   UNL     1       6.434   1.978  -1.165  0.00  0.00    +0.000 A 
ATOM      8  C   UNL     1       6.434   2.901  -0.124  0.00  0.00    +0.000 A 
ATOM      9  C   UNL     1       5.259   3.150   0.577  0.00  0.00    +0.000 A 
ATOM     10  C   UNL     1       4.085   2.471   0.238  0.00  0.00    +0.000 A 
ENDBRANCH   2   5
BRANCH   1  11
ATOM     11  C   UNL     1       0.486   0.001  -0.073  0.00  0.00    +0.000 A 
ATOM     12  C   UNL     1      -0.245  -1.200  -0.049  0.00  0.00    +0.000 A 
ATOM     13  C   UNL     1      -1.642  -1.206  -0.066  0.00  0.00    +0.000 A 
ATOM     14  C   UNL     1      -2.343  -0.004  -0.098  0.00  0.00    +0.000 A 
ATOM     15  C   UNL     1      -1.647   1.200  -0.109  0.00  0.00    +0.000 A 
ATOM     16  C   UNL     1      -0.249   1.199  -0.093  0.00  0.00    +0.000 A 
ENDBRANCH   1  11
TORSDOF 2
