MODEL 1
REMARK VINA RESULT:      -4.4      0.000      0.000
REMARK  Name = *****
REMARK  5 active torsions:
REMARK  status: ('A' for Active; 'I' for Inactive)
REMARK    1  A    between atoms: C_1  and  C_2
REMARK    2  A    between atoms: C_2  and  C_3
REMARK    3  A    between atoms: C_2  and  O_8
REMARK    4  A    between atoms: O_8  and  C_9
REMARK    5  A    between atoms: C_9  and  C_11
REMARK                            x       y       z     vdW  Elec       q    Type
REMARK                         _______ _______ _______ _____ _____    ______ ____
ROOT
ATOM      1  C   UNL     1     102.355 126.234  83.199  0.00  0.00    +0.000 C 
ATOM      2  O   UNL     1     102.331 125.196  83.843  0.00  0.00    +0.000 OA
ENDROOT
BRANCH   1   3
ATOM      3  C   UNL     1     101.255 127.220  83.223  0.00  0.00    +0.000 A 
ATOM      4  C   UNL     1     101.438 128.397  83.965  0.00  0.00    +0.000 A 
ATOM      5  C   UNL     1     100.427 129.359  84.020  0.00  0.00    +0.000 A 
ATOM      6  C   UNL     1      99.226 129.150  83.342  0.00  0.00    +0.000 A 
ATOM      7  C   UNL     1      99.034 127.976  82.614  0.00  0.00    +0.000 A 
ATOM      8  C   UNL     1     100.045 127.015  82.559  0.00  0.00    +0.000 A 
ATOM      9  F   UNL     1      99.800 125.889  81.875  0.00  0.00    +0.000 F 
ENDBRANCH   1   3
BRANCH   1  10
ATOM     10  O   UNL     1     103.382 126.681  82.440  0.00  0.00    +0.000 OA
BRANCH  10  12
ATOM     11  C   UNL     1     103.567 127.446  80.158  0.00  0.00    +0.000 C 
ATOM     12  C   UNL     1     103.420 126.231  81.072  0.00  0.00    +0.000 C 
BRANCH  12  13
ATOM     13  C   UNL     1     104.589 125.247  80.898  0.00  0.00    +0.000 C 
ATOM     14  C   UNL     1     105.157 125.231  79.477  0.00  0.00    +0.000 C 
ATOM     15  C   UNL     1     106.023 123.977  79.450  0.00  0.00    +0.000 C 
ATOM     16  C   UNL     1     105.380 123.006  80.439  0.00  0.00    +0.000 C 
ATOM     17  C   UNL     1     104.243 123.772  81.114  0.00  0.00    +0.000 C 
ENDBRANCH  12  13
ENDBRANCH  10  12
ENDBRANCH   1  10
TORSDOF 4
ENDMDL
