MODEL 1
REMARK VINA RESULT:      -4.7      0.000      0.000
REMARK  Name = *****
REMARK  4 active torsions:
REMARK  status: ('A' for Active; 'I' for Inactive)
REMARK    1  A    between atoms: C_1  and  C_2
REMARK    2  A    between atoms: C_5  and  N_8
REMARK    3  A    between atoms: N_8  and  C_9
REMARK    4  A    between atoms: C_9  and  C_11
REMARK                            x       y       z     vdW  Elec       q    Type
REMARK                         _______ _______ _______ _____ _____    ______ ____
ROOT
ATOM      1  N   UNL     1      87.847  62.962  87.822  0.00  0.00    +0.000 N 
ATOM      2  H   UNL     1      87.811  61.983  87.725  0.00  0.00    +0.000 HD
ENDROOT
BRANCH   1   7
ATOM      3  C   UNL     1      88.013  64.714  93.282  0.00  0.00    +0.000 C 
ATOM      4  C   UNL     1      87.943  64.227  91.866  0.00  0.00    +0.000 A 
ATOM      5  C   UNL     1      86.709  64.001  91.252  0.00  0.00    +0.000 A 
ATOM      6  C   UNL     1      86.634  63.578  89.918  0.00  0.00    +0.000 A 
ATOM      7  C   UNL     1      87.791  63.383  89.167  0.00  0.00    +0.000 A 
ATOM      8  C   UNL     1      89.027  63.619  89.786  0.00  0.00    +0.000 A 
ATOM      9  C   UNL     1      89.106  64.044  91.116  0.00  0.00    +0.000 A 
ENDBRANCH   1   7
BRANCH   1  10
ATOM     10  C   UNL     1      87.940  63.614  86.612  0.00  0.00    +0.000 C 
ATOM     11  S   UNL     1      86.669  63.400  85.527  0.00  0.00    +0.000 S 
BRANCH  10  12
ATOM     12  C   UNL     1      89.118  64.410  86.235  0.00  0.00    +0.000 A 
ATOM     13  C   UNL     1      90.139  63.767  85.519  0.00  0.00    +0.000 A 
ATOM     14  C   UNL     1      91.260  64.488  85.111  0.00  0.00    +0.000 A 
ATOM     15  C   UNL     1      91.362  65.848  85.409  0.00  0.00    +0.000 A 
ATOM     16  C   UNL     1      90.341  66.490  86.117  0.00  0.00    +0.000 A 
ATOM     17  C   UNL     1      89.214  65.775  86.531  0.00  0.00    +0.000 A 
ATOM     18 CL   UNL     1      88.003  66.618  87.427  0.00  0.00    +0.000 Cl
ENDBRANCH  10  12
ENDBRANCH   1  10
TORSDOF 3
ENDMDL
