MODEL 1
REMARK VINA RESULT:      -4.8      0.000      0.000
REMARK  Name = *****
REMARK  4 active torsions:
REMARK  status: ('A' for Active; 'I' for Inactive)
REMARK    1  A    between atoms: C_1  and  C_2
REMARK    2  A    between atoms: C_5  and  C_8
REMARK    3  A    between atoms: C_8  and  C_10
REMARK    4  A    between atoms: C_10  and  C_11
REMARK                            x       y       z     vdW  Elec       q    Type
REMARK                         _______ _______ _______ _____ _____    ______ ____
ROOT
ATOM      1  C   UNL     1      88.209  70.526  88.208  0.00  0.00    +0.000 C 
ATOM      2  O   UNL     1      88.445  70.465  89.416  0.00  0.00    +0.000 OA
ENDROOT
BRANCH   1   7
ATOM      3  C   UNL     1      83.300  72.936  86.229  0.00  0.00    +0.000 C 
ATOM      4  C   UNL     1      84.571  72.336  86.753  0.00  0.00    +0.000 A 
ATOM      5  C   UNL     1      85.558  71.879  85.873  0.00  0.00    +0.000 A 
ATOM      6  C   UNL     1      86.730  71.298  86.365  0.00  0.00    +0.000 A 
ATOM      7  C   UNL     1      86.930  71.151  87.744  0.00  0.00    +0.000 A 
ATOM      8  C   UNL     1      85.935  71.590  88.624  0.00  0.00    +0.000 A 
ATOM      9  C   UNL     1      84.763  72.174  88.130  0.00  0.00    +0.000 A 
ENDBRANCH   1   7
BRANCH   1  10
ATOM     10  C   UNL     1      89.196  69.974  87.198  0.00  0.00    +0.000 C 
BRANCH  10  11
ATOM     11  C   UNL     1      89.057  68.494  86.921  0.00  0.00    +0.000 A 
ATOM     12  C   UNL     1      90.101  67.803  86.287  0.00  0.00    +0.000 A 
ATOM     13  C   UNL     1      90.003  66.432  86.044  0.00  0.00    +0.000 A 
ATOM     14  C   UNL     1      88.863  65.739  86.444  0.00  0.00    +0.000 A 
ATOM     15  C   UNL     1      87.826  66.403  87.093  0.00  0.00    +0.000 A 
ATOM     16  C   UNL     1      87.928  67.775  87.340  0.00  0.00    +0.000 A 
ATOM     17 BR   UNL     1      88.728  63.884  86.113  0.00  0.00    +0.000 Br
ENDBRANCH  10  11
ENDBRANCH   1  10
TORSDOF 3
ENDMDL
