MODEL 1
REMARK VINA RESULT:      -4.4      0.000      0.000
REMARK  Name = *****
REMARK  5 active torsions:
REMARK  status: ('A' for Active; 'I' for Inactive)
REMARK    1  A    between atoms: C_4  and  C_6
REMARK    2  A    between atoms: C_6  and  C_7
REMARK    3  A    between atoms: C_7  and  C_8
REMARK    4  A    between atoms: C_8  and  O_10
REMARK    5  A    between atoms: O_10  and  C_11
REMARK                            x       y       z     vdW  Elec       q    Type
REMARK                         _______ _______ _______ _____ _____    ______ ____
ROOT
ATOM      1  C   UNL     1     103.415 126.518  80.679  0.00  0.00    +0.000 C 
ATOM      2  O   UNL     1     103.526 127.582  80.088  0.00  0.00    +0.000 OA
ENDROOT
BRANCH   1   3
ATOM      3  C   UNL     1     103.339 126.352  82.181  0.00  0.00    +0.000 C 
BRANCH   3   4
ATOM      4  C   UNL     1     101.924 126.001  82.643  0.00  0.00    +0.000 C 
BRANCH   4   8
ATOM      5  C   UNL     1      98.690 127.972  82.772  0.00  0.00    +0.000 C 
ATOM      6  C   UNL     1      99.642 128.909  83.513  0.00  0.00    +0.000 C 
ATOM      7  C   UNL     1     100.948 128.141  83.675  0.00  0.00    +0.000 C 
ATOM      8  C   UNL     1     100.951 127.170  82.496  0.00  0.00    +0.000 C 
ATOM      9  C   UNL     1      99.493 126.715  82.452  0.00  0.00    +0.000 C 
ENDBRANCH   4   8
ENDBRANCH   3   4
ENDBRANCH   1   3
BRANCH   1  10
ATOM     10  O   UNL     1     103.323 125.253  80.100  0.00  0.00    +0.000 OA
BRANCH  10  11
ATOM     11  C   UNL     1     104.539 124.570  80.085  0.00  0.00    +0.000 A 
ATOM     12  C   UNL     1     104.627 123.328  80.706  0.00  0.00    +0.000 A 
ATOM     13  C   UNL     1     105.832 122.640  80.641  0.00  0.00    +0.000 A 
ATOM     14  C   UNL     1     106.927 123.165  79.961  0.00  0.00    +0.000 A 
ATOM     15  C   UNL     1     106.820 124.405  79.326  0.00  0.00    +0.000 A 
ATOM     16  C   UNL     1     105.617 125.110  79.381  0.00  0.00    +0.000 A 
ATOM     17  F   UNL     1     105.940 121.445  81.237  0.00  0.00    +0.000 F 
ENDBRANCH  10  11
ENDBRANCH   1  10
TORSDOF 5
ENDMDL
