MODEL 1
REMARK VINA RESULT:      -4.0      0.000      0.000
REMARK  Name = *****
REMARK  4 active torsions:
REMARK  status: ('A' for Active; 'I' for Inactive)
REMARK    1  A    between atoms: C_3  and  C_7
REMARK    2  A    between atoms: C_7  and  O_8
REMARK    3  A    between atoms: O_8  and  C_9
REMARK    4  A    between atoms: C_9  and  C_11
REMARK                            x       y       z     vdW  Elec       q    Type
REMARK                         _______ _______ _______ _____ _____    ______ ____
ROOT
ATOM      1  O   UNL     1     104.343 125.104  82.684  0.00  0.00    +0.000 OA
ENDROOT
BRANCH   1   2
ATOM      2  C   UNL     1     103.049 125.285  83.069  0.00  0.00    +0.000 C 
ATOM      3  O   UNL     1     102.586 124.936  84.147  0.00  0.00    +0.000 OA
BRANCH   2   4
ATOM      4  C   UNL     1     102.285 126.070  82.008  0.00  0.00    +0.000 C 
ATOM      5  C   UNL     1     103.087 127.287  81.525  0.00  0.00    +0.000 C 
ATOM      6  C   UNL     1     103.207 128.382  82.593  0.00  0.00    +0.000 C 
ATOM      7  C   UNL     1     101.938 128.596  83.362  0.00  0.00    +0.000 C 
ATOM      8  C   UNL     1     100.890 127.764  83.303  0.00  0.00    +0.000 C 
ATOM      9  C   UNL     1     100.889 126.502  82.487  0.00  0.00    +0.000 C 
ENDBRANCH   2   4
ENDBRANCH   1   2
BRANCH   1  10
ATOM     10  C   UNL     1     104.803 123.749  82.536  0.00  0.00    +0.000 C 
BRANCH  10  13
ATOM     11  C   UNL     1     106.492 121.717  80.849  0.00  0.00    +0.000 C 
ATOM     12  C   UNL     1     104.964 121.826  80.856  0.00  0.00    +0.000 C 
ATOM     13  C   UNL     1     104.473 123.262  81.114  0.00  0.00    +0.000 C 
ATOM     14  C   UNL     1     105.057 124.213  80.052  0.00  0.00    +0.000 C 
ATOM     15  C   UNL     1     106.511 123.973  79.762  0.00  0.00    +0.000 C 
ATOM     16  C   UNL     1     107.157 122.858  80.133  0.00  0.00    +0.000 C 
ENDBRANCH  10  13
ENDBRANCH   1  10
TORSDOF 4
ENDMDL
