MODEL 1
REMARK VINA RESULT:      -5.0      0.000      0.000
REMARK  Name = *****
REMARK  1 active torsions:
REMARK  status: ('A' for Active; 'I' for Inactive)
REMARK    1  A    between atoms: C_6  and  C_7
REMARK                            x       y       z     vdW  Elec       q    Type
REMARK                         _______ _______ _______ _____ _____    ______ ____
ROOT
ATOM      1  C   UNL     1     102.443 126.122  82.358  0.00  0.00    +0.000 A 
ATOM      2  N   UNL     1     102.683 127.253  82.998  0.00  0.00    +0.000 NA
ATOM      3  C   UNL     1     101.444 127.824  83.133  0.00  0.00    +0.000 A 
ATOM      4  C   UNL     1     100.485 127.000  82.567  0.00  0.00    +0.000 A 
ATOM      5  O   UNL     1     101.119 125.902  82.066  0.00  0.00    +0.000 OA
ATOM      6  C   UNL     1      99.123 127.276  82.531  0.00  0.00    +0.000 A 
ATOM      7  C   UNL     1      98.737 128.487  83.118  0.00  0.00    +0.000 A 
ATOM      8  C   UNL     1      99.682 129.346  83.696  0.00  0.00    +0.000 A 
ATOM      9  C   UNL     1     101.047 129.033  83.717  0.00  0.00    +0.000 A 
ATOM     10 CL   UNL     1      99.151 130.827  84.399  0.00  0.00    +0.000 Cl
ENDROOT
BRANCH   1  16
ATOM     11  C   UNL     1     103.898 124.131  82.812  0.00  0.00    +0.000 A 
ATOM     12  C   UNL     1     104.795 123.155  82.367  0.00  0.00    +0.000 A 
ATOM     13  C   UNL     1     105.189 123.140  81.035  0.00  0.00    +0.000 A 
ATOM     14  C   UNL     1     104.703 124.083  80.138  0.00  0.00    +0.000 A 
ATOM     15  C   UNL     1     103.805 125.058  80.582  0.00  0.00    +0.000 A 
ATOM     16  C   UNL     1     103.390 125.095  81.926  0.00  0.00    +0.000 A 
ATOM     17  F   UNL     1     106.046 122.204  80.609  0.00  0.00    +0.000 F 
ENDBRANCH   1  16
TORSDOF 1
ENDMDL
