MODEL 1
REMARK VINA RESULT:      -4.6      0.000      0.000
REMARK  Name = *****
REMARK  2 active torsions:
REMARK  status: ('A' for Active; 'I' for Inactive)
REMARK    1  A    between atoms: C_5  and  C_8
REMARK    2  A    between atoms: C_9  and  C_10
REMARK                            x       y       z     vdW  Elec       q    Type
REMARK                         _______ _______ _______ _____ _____    ______ ____
ROOT
ATOM      1  C   UNL     1     102.788 126.287  81.171  0.00  0.00    +0.000 C 
ATOM      2  C   UNL     1     101.753 126.061  81.996  0.00  0.00    +0.000 C 
ENDROOT
BRANCH   1   7
ATOM      3  C   UNL     1     105.315 124.898  82.219  0.00  0.00    +0.000 C 
ATOM      4  C   UNL     1     105.968 125.418  80.958  0.00  0.00    +0.000 C 
ATOM      5  C   UNL     1     105.784 124.387  79.895  0.00  0.00    +0.000 C 
ATOM      6  C   UNL     1     104.908 125.597  79.917  0.00  0.00    +0.000 C 
ATOM      7  C   UNL     1     103.569 125.188  80.510  0.00  0.00    +0.000 C 
ATOM      8  C   UNL     1     104.174 124.113  81.490  0.00  0.00    +0.000 C 
ATOM      9  C   UNL     1     105.014 123.236  80.502  0.00  0.00    +0.000 C 
ENDBRANCH   1   7
BRANCH   2  10
ATOM     10  C   UNL     1     100.975 127.124  82.648  0.00  0.00    +0.000 A 
ATOM     11  C   UNL     1     101.584 128.184  83.330  0.00  0.00    +0.000 A 
ATOM     12  C   UNL     1     100.811 129.193  83.910  0.00  0.00    +0.000 A 
ATOM     13  C   UNL     1      99.423 129.158  83.806  0.00  0.00    +0.000 A 
ATOM     14  C   UNL     1      98.805 128.117  83.116  0.00  0.00    +0.000 A 
ATOM     15  C   UNL     1      99.578 127.108  82.534  0.00  0.00    +0.000 A 
ENDBRANCH   2  10
TORSDOF 2
ENDMDL
