MODEL 1
REMARK VINA RESULT:      -4.8      0.000      0.000
REMARK  Name = *****
REMARK  3 active torsions:
REMARK  status: ('A' for Active; 'I' for Inactive)
REMARK    1  A    between atoms: C_1  and  C_2
REMARK    2  A    between atoms: C_5  and  C_8
REMARK    3  A    between atoms: N_10  and  C_11
REMARK                            x       y       z     vdW  Elec       q    Type
REMARK                         _______ _______ _______ _____ _____    ______ ____
ROOT
ATOM      1  C   UNL     1     100.357 127.372  82.904  0.00  0.00    +0.000 C 
ATOM      2  O   UNL     1      99.654 126.630  82.225  0.00  0.00    +0.000 OA
ATOM      3  N   UNL     1     101.737 127.419  82.847  0.00  0.00    +0.000 N 
ATOM      4  H   UNL     1     102.173 128.078  83.434  0.00  0.00    +0.000 HD
ENDROOT
BRANCH   1   9
ATOM      5  C   UNL     1      97.804 131.350  86.329  0.00  0.00    +0.000 C 
ATOM      6  C   UNL     1      98.451 130.293  85.483  0.00  0.00    +0.000 A 
ATOM      7  C   UNL     1      98.280 128.934  85.764  0.00  0.00    +0.000 A 
ATOM      8  C   UNL     1      98.876 127.944  84.962  0.00  0.00    +0.000 A 
ATOM      9  C   UNL     1      99.668 128.305  83.861  0.00  0.00    +0.000 A 
ATOM     10  C   UNL     1      99.832 129.679  83.591  0.00  0.00    +0.000 A 
ATOM     11  C   UNL     1      99.234 130.659  84.388  0.00  0.00    +0.000 A 
ATOM     12 CL   UNL     1      98.529 126.311  85.422  0.00  0.00    +0.000 Cl
ENDBRANCH   1   9
BRANCH   3  13
ATOM     13  C   UNL     1     102.595 126.635  82.045  0.00  0.00    +0.000 A 
ATOM     14  C   UNL     1     102.935 125.312  82.322  0.00  0.00    +0.000 A 
ATOM     15  C   UNL     1     103.804 124.627  81.474  0.00  0.00    +0.000 A 
ATOM     16  C   UNL     1     104.346 125.236  80.350  0.00  0.00    +0.000 A 
ATOM     17  C   UNL     1     104.010 126.555  80.060  0.00  0.00    +0.000 A 
ATOM     18  C   UNL     1     103.134 127.248  80.902  0.00  0.00    +0.000 A 
ATOM     19  F   UNL     1     104.123 123.354  81.746  0.00  0.00    +0.000 F 
ENDBRANCH   3  13
TORSDOF 2
ENDMDL
