MODEL 1
REMARK VINA RESULT:      -4.9      0.000      0.000
REMARK  Name = *****
REMARK  3 active torsions:
REMARK  status: ('A' for Active; 'I' for Inactive)
REMARK    1  A    between atoms: C_4  and  C_7
REMARK    2  A    between atoms: C_7  and  C_9
REMARK    3  A    between atoms: C_9  and  C_10
REMARK                            x       y       z     vdW  Elec       q    Type
REMARK                         _______ _______ _______ _____ _____    ______ ____
ROOT
ATOM      1  C   UNL     1     102.851 127.411  82.942  0.00  0.00    +0.000 C 
ENDROOT
BRANCH   1   2
ATOM      2  C   UNL     1     101.361 127.654  82.994  0.00  0.00    +0.000 A 
ATOM      3  C   UNL     1     100.855 128.862  83.496  0.00  0.00    +0.000 A 
ATOM      4  C   UNL     1      99.479 129.088  83.524  0.00  0.00    +0.000 A 
ATOM      5  C   UNL     1      98.585 128.140  83.050  0.00  0.00    +0.000 A 
ATOM      6  C   UNL     1      99.085 126.953  82.538  0.00  0.00    +0.000 A 
ATOM      7  C   UNL     1     100.455 126.704  82.500  0.00  0.00    +0.000 A 
ATOM      8  F   UNL     1      98.235 126.031  82.066  0.00  0.00    +0.000 F 
ATOM      9  F   UNL     1      99.016 130.245  84.015  0.00  0.00    +0.000 F 
ENDBRANCH   1   2
BRANCH   1  10
ATOM     10  C   UNL     1     103.322 126.772  81.649  0.00  0.00    +0.000 C 
ATOM     11  O   UNL     1     103.285 127.400  80.590  0.00  0.00    +0.000 OA
BRANCH  10  15
ATOM     12  C   UNL     1     104.742 122.712  81.770  0.00  0.00    +0.000 A 
ATOM     13  C   UNL     1     104.705 123.384  80.549  0.00  0.00    +0.000 A 
ATOM     14  C   UNL     1     104.246 124.704  80.485  0.00  0.00    +0.000 A 
ATOM     15  C   UNL     1     103.822 125.360  81.647  0.00  0.00    +0.000 A 
ATOM     16  C   UNL     1     103.864 124.674  82.870  0.00  0.00    +0.000 A 
ATOM     17  C   UNL     1     104.322 123.357  82.931  0.00  0.00    +0.000 A 
ENDBRANCH  10  15
ENDBRANCH   1  10
TORSDOF 3
ENDMDL
