MODEL 1
REMARK VINA RESULT:      -4.6      0.000      0.000
REMARK  Name = *****
REMARK  3 active torsions:
REMARK  status: ('A' for Active; 'I' for Inactive)
REMARK    1  A    between atoms: C_5  and  O_7
REMARK    2  A    between atoms: O_7  and  C_8
REMARK    3  A    between atoms: C_8  and  C_10
REMARK                            x       y       z     vdW  Elec       q    Type
REMARK                         _______ _______ _______ _____ _____    ______ ____
ROOT
ATOM      1  C   UNL     1     103.144 126.765  81.791  0.00  0.00    +0.000 C 
ATOM      2  O   UNL     1     103.150 127.564  80.866  0.00  0.00    +0.000 OA
ENDROOT
BRANCH   1   3
ATOM      3  C   UNL     1     103.708 125.390  81.680  0.00  0.00    +0.000 A 
ATOM      4  C   UNL     1     103.776 124.611  82.846  0.00  0.00    +0.000 A 
ATOM      5  C   UNL     1     104.297 123.314  82.801  0.00  0.00    +0.000 A 
ATOM      6  C   UNL     1     104.754 122.794  81.591  0.00  0.00    +0.000 A 
ATOM      7  C   UNL     1     104.695 123.558  80.427  0.00  0.00    +0.000 A 
ATOM      8  C   UNL     1     104.174 124.856  80.470  0.00  0.00    +0.000 A 
ATOM      9 CL   UNL     1     105.394 121.198  81.535  0.00  0.00    +0.000 Cl
ENDBRANCH   1   3
BRANCH   1  10
ATOM     10  O   UNL     1     102.657 126.969  83.068  0.00  0.00    +0.000 OA
BRANCH  10  15
ATOM     11  C   UNL     1      99.040 127.067  82.442  0.00  0.00    +0.000 A 
ATOM     12  C   UNL     1      98.709 128.325  82.956  0.00  0.00    +0.000 A 
ATOM     13  C   UNL     1      99.699 129.139  83.514  0.00  0.00    +0.000 A 
ATOM     14  C   UNL     1     101.020 128.693  83.565  0.00  0.00    +0.000 A 
ATOM     15  C   UNL     1     101.338 127.427  83.067  0.00  0.00    +0.000 A 
ATOM     16  C   UNL     1     100.358 126.616  82.490  0.00  0.00    +0.000 A 
ATOM     17 CL   UNL     1     102.229 129.731  84.226  0.00  0.00    +0.000 Cl
ENDBRANCH  10  15
ENDBRANCH   1  10
TORSDOF 3
ENDMDL
