MODEL 1
REMARK VINA RESULT:      -4.8      0.000      0.000
REMARK  Name = *****
REMARK  3 active torsions:
REMARK  status: ('A' for Active; 'I' for Inactive)
REMARK    1  A    between atoms: C_3  and  C_8
REMARK    2  A    between atoms: C_8  and  C_9
REMARK    3  A    between atoms: C_9  and  C_11
REMARK                            x       y       z     vdW  Elec       q    Type
REMARK                         _______ _______ _______ _____ _____    ______ ____
ROOT
ATOM      1  C   UNL     1     103.491 126.652  81.541  0.00  0.00    +0.000 C 
ATOM      2  O   UNL     1     103.470 127.274  80.478  0.00  0.00    +0.000 OA
ENDROOT
BRANCH   1   3
ATOM      3  C   UNL     1     103.937 125.224  81.537  0.00  0.00    +0.000 A 
ATOM      4  C   UNL     1     104.414 124.576  80.391  0.00  0.00    +0.000 A 
ATOM      5  C   UNL     1     104.829 123.240  80.457  0.00  0.00    +0.000 A 
ATOM      6  C   UNL     1     104.765 122.548  81.666  0.00  0.00    +0.000 A 
ATOM      7  C   UNL     1     104.284 123.176  82.810  0.00  0.00    +0.000 A 
ATOM      8  C   UNL     1     103.870 124.510  82.745  0.00  0.00    +0.000 A 
ATOM      9 CL   UNL     1     105.280 120.909  81.740  0.00  0.00    +0.000 Cl
ENDBRANCH   1   3
BRANCH   1  10
ATOM     10  C   UNL     1     103.066 127.315  82.840  0.00  0.00    +0.000 C 
BRANCH  10  13
ATOM     11  C   UNL     1      99.285 126.944  82.487  0.00  0.00    +0.000 A 
ATOM     12  C   UNL     1     100.656 126.686  82.411  0.00  0.00    +0.000 A 
ATOM     13  C   UNL     1     101.588 127.609  82.908  0.00  0.00    +0.000 A 
ATOM     14  C   UNL     1     101.118 128.790  83.499  0.00  0.00    +0.000 A 
ATOM     15  C   UNL     1      99.747 129.044  83.570  0.00  0.00    +0.000 A 
ATOM     16  C   UNL     1      98.828 128.127  83.066  0.00  0.00    +0.000 A 
ATOM     17 CL   UNL     1      99.188 130.505  84.289  0.00  0.00    +0.000 Cl
ENDBRANCH  10  13
ENDBRANCH   1  10
TORSDOF 3
ENDMDL
