REMARK  Name = *****
REMARK  3 active torsions:
REMARK  status: ('A' for Active; 'I' for Inactive)
REMARK    1  A    between atoms: C_1  and  C_2
REMARK    2  A    between atoms: C_11  and  C_12
REMARK    3  A    between atoms: C_12  and  C_13
REMARK                            x       y       z     vdW  Elec       q    Type
REMARK                         _______ _______ _______ _____ _____    ______ ____
ROOT
ATOM      1  C   UNL     1       1.121  -0.089  -0.765  0.00  0.00    +0.000 C 
ATOM      2  C   UNL     1       2.599  -0.094  -0.501  0.00  0.00    +0.000 A 
ATOM      3  C   UNL     1       3.278   1.113  -0.264  0.00  0.00    +0.000 A 
ATOM      4  C   UNL     1       4.637   1.070   0.013  0.00  0.00    +0.000 A 
ATOM      5  C   UNL     1       5.301  -0.137   0.052  0.00  0.00    +0.000 A 
ATOM      6  C   UNL     1       4.666  -1.347  -0.162  0.00  0.00    +0.000 A 
ATOM      7  C   UNL     1       3.297  -1.319  -0.435  0.00  0.00    +0.000 A 
ATOM      8  C   UNL     1       6.704   0.103   0.352  0.00  0.00    +0.000 C 
ATOM      9  O   UNL     1       7.574  -0.734   0.476  0.00  0.00    +0.000 OA
ATOM     10  O   UNL     1       6.849   1.456   0.468  0.00  0.00    +0.000 OA
ATOM     11  C   UNL     1       5.596   2.170   0.288  0.00  0.00    +0.000 C 
ENDROOT
BRANCH  11  12
ATOM     12  C   UNL     1       5.263   2.960   1.559  0.00  0.00    +0.000 C 
BRANCH  12  13
ATOM     13  C   UNL     1       6.079   4.228   1.671  0.00  0.00    +0.000 A 
ATOM     14  C   UNL     1       5.543   5.458   1.265  0.00  0.00    +0.000 A 
ATOM     15  C   UNL     1       6.304   6.625   1.355  0.00  0.00    +0.000 A 
ATOM     16  C   UNL     1       7.607   6.573   1.846  0.00  0.00    +0.000 A 
ATOM     17  C   UNL     1       8.151   5.355   2.247  0.00  0.00    +0.000 A 
ATOM     18  C   UNL     1       7.392   4.187   2.159  0.00  0.00    +0.000 A 
ENDBRANCH  12  13
ENDBRANCH  11  12
TORSDOF 2
