REMARK  Name = *****
REMARK  2 active torsions:
REMARK  status: ('A' for Active; 'I' for Inactive)
REMARK    1  A    between atoms: C_8  and  C_9
REMARK    2  A    between atoms: C_10  and  C_11
REMARK                            x       y       z     vdW  Elec       q    Type
REMARK                         _______ _______ _______ _____ _____    ______ ____
ROOT
ATOM      1  C   UNL     1      -0.257  -3.367  -0.267  0.00  0.00    +0.000 C 
ATOM      2  C   UNL     1      -0.794  -4.486   0.247  0.00  0.00    +0.000 C 
ENDROOT
BRANCH   1  10
ATOM      3  C   UNL     1       3.945  -2.610  -0.842  0.00  0.00    +0.000 C 
ATOM      4  C   UNL     1       3.152  -1.310  -0.603  0.00  0.00    +0.000 C 
ATOM      5  C   UNL     1       3.929  -0.851   0.624  0.00  0.00    +0.000 C 
ATOM      6  C   UNL     1       4.228  -1.956   1.335  0.00  0.00    +0.000 C 
ATOM      7  C   UNL     1       3.648  -3.142   0.574  0.00  0.00    +0.000 C 
ATOM      8  C   UNL     1       2.115  -3.067   0.654  0.00  0.00    +0.000 C 
ATOM      9  C   UNL     1       1.778  -1.825  -0.145  0.00  0.00    +0.000 C 
ATOM     10  C   UNL     1       1.174  -3.160  -0.530  0.00  0.00    +0.000 C 
ENDBRANCH   1  10
BRANCH   2  11
ATOM     11  C   UNL     1      -2.227  -4.675   0.504  0.00  0.00    +0.000 A 
ATOM     12  C   UNL     1      -2.622  -5.383   1.648  0.00  0.00    +0.000 A 
ATOM     13  C   UNL     1      -3.976  -5.608   1.914  0.00  0.00    +0.000 A 
ATOM     14  C   UNL     1      -4.941  -5.137   1.029  0.00  0.00    +0.000 A 
ATOM     15  C   UNL     1      -4.566  -4.446  -0.121  0.00  0.00    +0.000 A 
ATOM     16  C   UNL     1      -3.212  -4.221  -0.384  0.00  0.00    +0.000 A 
ATOM     17 BR   UNL     1      -6.772  -5.443   1.386  0.00  0.00    +0.000 Br
ENDBRANCH   2  11
TORSDOF 2
