MODEL 1
REMARK VINA RESULT:      -4.3      0.000      0.000
REMARK  Name = *****
REMARK  6 active torsions:
REMARK  status: ('A' for Active; 'I' for Inactive)
REMARK    1  A    between atoms: C_1  and  C_2
REMARK    2  A    between atoms: C_5  and  S_8
REMARK    3  A    between atoms: S_8  and  C_9
REMARK    4  A    between atoms: C_9  and  C_10
REMARK    5  A    between atoms: C_12  and  O_17
REMARK    6  A    between atoms: O_17  and  C_18
REMARK                            x       y       z     vdW  Elec       q    Type
REMARK                         _______ _______ _______ _____ _____    ______ ____
ROOT
ATOM      1  C   UNL     1      88.812  70.773  88.342  0.00  0.00    +0.000 C 
ENDROOT
BRANCH   1   2
ATOM      2  C   UNL     1      89.445  69.841  87.291  0.00  0.00    +0.000 C 
ATOM      3  C   UNL     1      88.616  68.558  87.068  0.00  0.00    +0.000 C 
ATOM      4  C   UNL     1      89.185  67.672  85.951  0.00  0.00    +0.000 C 
ATOM      5  C   UNL     1      89.319  68.466  84.650  0.00  0.00    +0.000 C 
ATOM      6  C   UNL     1      90.172  69.717  84.858  0.00  0.00    +0.000 C 
ATOM      7  C   UNL     1      89.601  70.606  85.963  0.00  0.00    +0.000 C 
ATOM      8 CL   UNL     1      90.255  70.645  83.329  0.00  0.00    +0.000 Cl
BRANCH   4   9
ATOM      9  O   UNL     1      90.464  67.198  86.385  0.00  0.00    +0.000 OA
ATOM     10  C   UNL     1      90.945  66.095  85.627  0.00  0.00    +0.000 C 
ENDBRANCH   4   9
ENDBRANCH   1   2
BRANCH   1  11
ATOM     11  S   UNL     1      87.301  70.059  89.085  0.00  0.00    +0.000 S 
BRANCH  11  16
ATOM     12  C   UNL     1      83.040  73.381  86.255  0.00  0.00    +0.000 C 
ATOM     13  C   UNL     1      84.101  72.593  86.964  0.00  0.00    +0.000 A 
ATOM     14  C   UNL     1      84.060  72.441  88.355  0.00  0.00    +0.000 A 
ATOM     15  C   UNL     1      85.029  71.677  89.014  0.00  0.00    +0.000 A 
ATOM     16  C   UNL     1      86.050  71.054  88.293  0.00  0.00    +0.000 A 
ATOM     17  C   UNL     1      86.073  71.180  86.901  0.00  0.00    +0.000 A 
ATOM     18  C   UNL     1      85.106  71.942  86.241  0.00  0.00    +0.000 A 
ENDBRANCH  11  16
ENDBRANCH   1  11
TORSDOF 4
ENDMDL
