MODEL 1
REMARK VINA RESULT:      -4.3      0.000      0.000
REMARK  Name = *****
REMARK  3 active torsions:
REMARK  status: ('A' for Active; 'I' for Inactive)
REMARK    1  A    between atoms: C_4  and  O_8
REMARK    2  A    between atoms: O_8  and  C_9
REMARK    3  A    between atoms: C_9  and  C_11
REMARK                            x       y       z     vdW  Elec       q    Type
REMARK                         _______ _______ _______ _____ _____    ______ ____
ROOT
ATOM      1  O   UNL     1     101.465 126.514  83.173  0.00  0.00    +0.000 OA
ENDROOT
BRANCH   1   5
ATOM      2  C   UNL     1     104.237 127.172  82.266  0.00  0.00    +0.000 C 
ATOM      3  C   UNL     1     104.568 125.710  81.957  0.00  0.00    +0.000 C 
ATOM      4  C   UNL     1     103.281 125.006  82.436  0.00  0.00    +0.000 C 
ATOM      5  C   UNL     1     102.165 126.014  82.023  0.00  0.00    +0.000 C 
ATOM      6  C   UNL     1     102.978 127.172  81.390  0.00  0.00    +0.000 C 
ATOM      7  C   UNL     1     103.588 126.662  80.104  0.00  0.00    +0.000 C 
ATOM      8  C   UNL     1     104.537 125.776  80.445  0.00  0.00    +0.000 C 
ENDBRANCH   1   5
BRANCH   1   9
ATOM      9  C   UNL     1     100.341 127.223  82.903  0.00  0.00    +0.000 C 
ATOM     10  O   UNL     1      99.370 126.816  82.285  0.00  0.00    +0.000 OA
BRANCH   9  11
ATOM     11  C   UNL     1     100.435 128.593  83.476  0.00  0.00    +0.000 A 
ATOM     12  C   UNL     1      99.337 129.450  83.326  0.00  0.00    +0.000 A 
ATOM     13  C   UNL     1      99.376 130.745  83.849  0.00  0.00    +0.000 A 
ATOM     14  C   UNL     1     100.511 131.189  84.524  0.00  0.00    +0.000 A 
ATOM     15  C   UNL     1     101.609 130.343  84.679  0.00  0.00    +0.000 A 
ATOM     16  C   UNL     1     101.575 129.047  84.157  0.00  0.00    +0.000 A 
ENDBRANCH   9  11
ENDBRANCH   1   9
TORSDOF 3
ENDMDL
