MODEL 1
REMARK VINA RESULT:      -4.1      0.000      0.000
REMARK  Name = *****
REMARK  3 active torsions:
REMARK  status: ('A' for Active; 'I' for Inactive)
REMARK    1  A    between atoms: C_4  and  C_7
REMARK    2  A    between atoms: C_7  and  S_8
REMARK    3  A    between atoms: S_8  and  C_9
REMARK                            x       y       z     vdW  Elec       q    Type
REMARK                         _______ _______ _______ _____ _____    ______ ____
ROOT
ATOM      1  C   UNL     1     102.007 125.970  82.167  0.00  0.00    +0.000 C 
ENDROOT
BRANCH   1   5
ATOM      2  C   UNL     1      99.061 128.871  83.402  0.00  0.00    +0.000 A 
ATOM      3  C   UNL     1     100.411 129.094  83.665  0.00  0.00    +0.000 A 
ATOM      4  C   UNL     1     101.365 128.158  83.264  0.00  0.00    +0.000 A 
ATOM      5  C   UNL     1     100.978 126.990  82.590  0.00  0.00    +0.000 A 
ATOM      6  C   UNL     1      99.615 126.773  82.339  0.00  0.00    +0.000 A 
ATOM      7  C   UNL     1      98.662 127.711  82.741  0.00  0.00    +0.000 A 
ENDBRANCH   1   5
BRANCH   1   8
ATOM      8  S   UNL     1     103.341 126.735  81.201  0.00  0.00    +0.000 S 
BRANCH   8   9
ATOM      9  C   UNL     1     104.236 125.315  80.713  0.00  0.00    +0.000 A 
ATOM     10  N   UNL     1     103.936 124.113  81.150  0.00  0.00    +0.000 NA
ATOM     11  C   UNL     1     104.806 123.190  80.603  0.00  0.00    +0.000 A 
ATOM     12  C   UNL     1     105.761 123.710  79.754  0.00  0.00    +0.000 A 
ATOM     13  S   UNL     1     105.564 125.408  79.632  0.00  0.00    +0.000 S 
ATOM     14 CL   UNL     1     104.663 121.531  80.991  0.00  0.00    +0.000 Cl
ENDBRANCH   8   9
ENDBRANCH   1   8
TORSDOF 3
ENDMDL
