MODEL 1
REMARK VINA RESULT:      -4.6      0.000      0.000
REMARK  Name = *****
REMARK  3 active torsions:
REMARK  status: ('A' for Active; 'I' for Inactive)
REMARK    1  A    between atoms: C_1  and  C_2
REMARK    2  A    between atoms: C_2  and  C_11
REMARK    3  A    between atoms: C_3  and  C_4
REMARK                            x       y       z     vdW  Elec       q    Type
REMARK                         _______ _______ _______ _____ _____    ______ ____
ROOT
ATOM      1  C   UNL     1     103.362 127.421  80.464  0.00  0.00    +0.000 C 
ATOM      2  C   UNL     1     103.338 126.278  81.443  0.00  0.00    +0.000 C 
ATOM      3  C   UNL     1     102.428 126.121  82.427  0.00  0.00    +0.000 C 
ATOM      4  F   UNL     1     102.548 125.076  83.283  0.00  0.00    +0.000 F 
ENDROOT
BRANCH   3   5
ATOM      5  C   UNL     1     101.286 127.006  82.695  0.00  0.00    +0.000 A 
ATOM      6  C   UNL     1      99.978 126.656  82.332  0.00  0.00    +0.000 A 
ATOM      7  C   UNL     1      98.911 127.508  82.622  0.00  0.00    +0.000 A 
ATOM      8  C   UNL     1      99.139 128.711  83.289  0.00  0.00    +0.000 A 
ATOM      9  C   UNL     1     100.433 129.059  83.673  0.00  0.00    +0.000 A 
ATOM     10  C   UNL     1     101.501 128.207  83.382  0.00  0.00    +0.000 A 
ENDBRANCH   3   5
BRANCH   2  11
ATOM     11  C   UNL     1     104.430 125.290  81.279  0.00  0.00    +0.000 A 
ATOM     12  C   UNL     1     105.673 125.499  81.895  0.00  0.00    +0.000 A 
ATOM     13  C   UNL     1     106.701 124.561  81.765  0.00  0.00    +0.000 A 
ATOM     14  C   UNL     1     106.497 123.402  81.020  0.00  0.00    +0.000 A 
ATOM     15  C   UNL     1     105.267 123.177  80.407  0.00  0.00    +0.000 A 
ATOM     16  C   UNL     1     104.239 124.116  80.537  0.00  0.00    +0.000 A 
ENDBRANCH   2  11
TORSDOF 2
ENDMDL
