MODEL 1
REMARK VINA RESULT:      -4.1      0.000      0.000
REMARK  Name = *****
REMARK  2 active torsions:
REMARK  status: ('A' for Active; 'I' for Inactive)
REMARK    1  A    between atoms: C_4  and  N_7
REMARK    2  A    between atoms: C_8  and  C_9
REMARK                            x       y       z     vdW  Elec       q    Type
REMARK                         _______ _______ _______ _____ _____    ______ ____
ROOT
ATOM      1  N   UNL     1      89.950  68.814  84.788  0.00  0.00    +0.000 NA
ATOM      2  C   UNL     1      89.723  70.015  85.229  0.00  0.00    +0.000 C 
ATOM      3 CL   UNL     1      90.600  71.255  84.384  0.00  0.00    +0.000 Cl
ENDROOT
BRANCH   2   4
ATOM      4  C   UNL     1      88.820  70.407  86.341  0.00  0.00    +0.000 A 
ATOM      5  C   UNL     1      89.286  70.320  87.655  0.00  0.00    +0.000 A 
ATOM      6  C   UNL     1      88.436  70.671  88.697  0.00  0.00    +0.000 A 
ATOM      7  C   UNL     1      87.134  71.099  88.452  0.00  0.00    +0.000 A 
ATOM      8  C   UNL     1      86.667  71.173  87.140  0.00  0.00    +0.000 A 
ATOM      9  C   UNL     1      87.508  70.822  86.082  0.00  0.00    +0.000 A 
ATOM     10  F   UNL     1      88.878  70.598  89.958  0.00  0.00    +0.000 F 
ENDBRANCH   2   4
BRANCH   1  14
ATOM     11  C   UNL     1      88.003  65.431  86.344  0.00  0.00    +0.000 A 
ATOM     12  C   UNL     1      87.391  66.177  85.337  0.00  0.00    +0.000 A 
ATOM     13  C   UNL     1      88.031  67.302  84.815  0.00  0.00    +0.000 A 
ATOM     14  C   UNL     1      89.278  67.702  85.309  0.00  0.00    +0.000 A 
ATOM     15  C   UNL     1      89.896  66.930  86.296  0.00  0.00    +0.000 A 
ATOM     16  C   UNL     1      89.259  65.803  86.820  0.00  0.00    +0.000 A 
ENDBRANCH   1  14
TORSDOF 2
ENDMDL
