MODEL 1
REMARK VINA RESULT:      -3.3      0.000      0.000
REMARK  Name = *****
REMARK  6 active torsions:
REMARK  status: ('A' for Active; 'I' for Inactive)
REMARK    1  A    between atoms: C_1  and  C_2
REMARK    2  A    between atoms: C_2  and  N_3
REMARK    3  A    between atoms: N_3  and  C_4
REMARK    4  A    between atoms: C_6  and  S_8
REMARK    5  A    between atoms: S_8  and  C_9
REMARK    6  A    between atoms: C_9  and  C_10
REMARK                            x       y       z     vdW  Elec       q    Type
REMARK                         _______ _______ _______ _____ _____    ______ ____
ROOT
ATOM      1  S   UNL     1      89.615  68.769  84.498  0.00  0.00    +0.000 S 
ENDROOT
BRANCH   1   3
ATOM      2  N   UNL     1      88.282  67.059  86.155  0.00  0.00    +0.000 N 
ATOM      3  C   UNL     1      89.526  67.680  85.883  0.00  0.00    +0.000 C 
ATOM      4  O   UNL     1      90.534  67.482  86.557  0.00  0.00    +0.000 OA
BRANCH   2   6
ATOM      5  C   UNL     1      88.402  64.686  86.877  0.00  0.00    +0.000 C 
ATOM      6  C   UNL     1      88.288  66.142  87.304  0.00  0.00    +0.000 C 
ENDBRANCH   2   6
BRANCH   2   7
ATOM      7  C   UNL     1      87.098  67.306  85.462  0.00  0.00    +0.000 C 
ATOM      8  C   UNL     1      85.953  67.773  85.976  0.00  0.00    +0.000 C 
ENDBRANCH   2   7
ENDBRANCH   1   3
BRANCH   1   9
ATOM      9  C   UNL     1      89.691  70.353  85.381  0.00  0.00    +0.000 C 
BRANCH   9  10
ATOM     10  C   UNL     1      88.316  70.817  85.799  0.00  0.00    +0.000 A 
ATOM     11  C   UNL     1      87.437  71.308  84.815  0.00  0.00    +0.000 A 
ATOM     12  C   UNL     1      86.150  71.736  85.148  0.00  0.00    +0.000 A 
ATOM     13  C   UNL     1      85.718  71.677  86.470  0.00  0.00    +0.000 A 
ATOM     14  C   UNL     1      86.572  71.185  87.457  0.00  0.00    +0.000 A 
ATOM     15  C   UNL     1      87.861  70.755  87.126  0.00  0.00    +0.000 A 
ATOM     16 CL   UNL     1      88.850  70.149  88.408  0.00  0.00    +0.000 Cl
ENDBRANCH   9  10
ENDBRANCH   1   9
TORSDOF 5
ENDMDL
