MODEL 1
REMARK VINA RESULT:      -4.3      0.000      0.000
REMARK  Name = *****
REMARK  2 active torsions:
REMARK  status: ('A' for Active; 'I' for Inactive)
REMARK    1  A    between atoms: C_4  and  C_7
REMARK    2  A    between atoms: C_8  and  C_9
REMARK                            x       y       z     vdW  Elec       q    Type
REMARK                         _______ _______ _______ _____ _____    ______ ____
ROOT
ATOM      1  C   UNL     1     102.146 125.893  82.257  0.00  0.00    +0.000 C 
ATOM      2  C   UNL     1     102.943 126.029  81.183  0.00  0.00    +0.000 C 
ENDROOT
BRANCH   1   6
ATOM      3  C   UNL     1      99.149 128.758  83.305  0.00  0.00    +0.000 A 
ATOM      4  C   UNL     1     100.481 129.011  83.623  0.00  0.00    +0.000 A 
ATOM      5  C   UNL     1     101.470 128.080  83.293  0.00  0.00    +0.000 A 
ATOM      6  C   UNL     1     101.132 126.882  82.650  0.00  0.00    +0.000 A 
ATOM      7  C   UNL     1      99.791 126.646  82.320  0.00  0.00    +0.000 A 
ATOM      8  C   UNL     1      98.804 127.577  82.651  0.00  0.00    +0.000 A 
ENDBRANCH   1   6
BRANCH   2   9
ATOM      9  C   UNL     1     103.954 125.111  80.745  0.00  0.00    +0.000 A 
ATOM     10  C   UNL     1     104.186 123.859  81.279  0.00  0.00    +0.000 A 
ATOM     11  S   UNL     1     105.476 123.042  80.501  0.00  0.00    +0.000 S 
ATOM     12  C   UNL     1     105.738 124.356  79.440  0.00  0.00    +0.000 A 
ATOM     13  C   UNL     1     104.860 125.392  79.675  0.00  0.00    +0.000 A 
ENDBRANCH   2   9
TORSDOF 2
ENDMDL
