MODEL 1
REMARK VINA RESULT:      -5.2      0.000      0.000
REMARK  Name = *****
REMARK  2 active torsions:
REMARK  status: ('A' for Active; 'I' for Inactive)
REMARK    1  A    between atoms: C_3  and  C_9
REMARK    2  A    between atoms: N_10  and  C_11
REMARK                            x       y       z     vdW  Elec       q    Type
REMARK                         _______ _______ _______ _____ _____    ______ ____
ROOT
ATOM      1  C   UNL     1     102.830 125.907  82.535  0.00  0.00    +0.000 C 
ATOM      2  N   UNL     1     101.547 125.913  82.347  0.00  0.00    +0.000 NA
ENDROOT
BRANCH   1   5
ATOM      3  C   UNL     1     104.898 122.752  82.682  0.00  0.00    +0.000 A 
ATOM      4  C   UNL     1     104.111 123.831  83.091  0.00  0.00    +0.000 A 
ATOM      5  C   UNL     1     103.659 124.754  82.142  0.00  0.00    +0.000 A 
ATOM      6  C   UNL     1     103.996 124.592  80.798  0.00  0.00    +0.000 A 
ATOM      7  C   UNL     1     104.778 123.519  80.387  0.00  0.00    +0.000 A 
ATOM      8  C   UNL     1     105.222 122.607  81.336  0.00  0.00    +0.000 A 
ATOM      9  F   UNL     1     105.976 121.570  80.949  0.00  0.00    +0.000 F 
ATOM     10  F   UNL     1     103.568 125.468  79.877  0.00  0.00    +0.000 F 
ENDBRANCH   1   5
BRANCH   2  11
ATOM     11  C   UNL     1     100.844 127.054  82.775  0.00  0.00    +0.000 A 
ATOM     12  C   UNL     1      99.466 127.230  82.568  0.00  0.00    +0.000 A 
ATOM     13  C   UNL     1      98.812 128.387  82.977  0.00  0.00    +0.000 A 
ATOM     14  C   UNL     1      99.547 129.389  83.594  0.00  0.00    +0.000 A 
ATOM     15  C   UNL     1     100.916 129.252  83.803  0.00  0.00    +0.000 A 
ATOM     16  C   UNL     1     101.564 128.086  83.387  0.00  0.00    +0.000 A 
ATOM     17  F   UNL     1      98.929 130.508  83.993  0.00  0.00    +0.000 F 
ATOM     18  F   UNL     1      98.748 126.266  81.970  0.00  0.00    +0.000 F 
ENDBRANCH   2  11
TORSDOF 2
ENDMDL
