MODEL 1
REMARK VINA RESULT:      -4.5      0.000      0.000
REMARK  Name = *****
REMARK  3 active torsions:
REMARK  status: ('A' for Active; 'I' for Inactive)
REMARK    1  A    between atoms: C_1  and  C_2
REMARK    2  A    between atoms: C_5  and  C_8
REMARK    3  A    between atoms: C_9  and  C_10
REMARK                            x       y       z     vdW  Elec       q    Type
REMARK                         _______ _______ _______ _____ _____    ______ ____
ROOT
ATOM      1  C   UNL     1      89.059  65.882  86.900  0.00  0.00    +0.000 C 
ATOM      2  C   UNL     1      89.614  66.818  86.391  0.00  0.00    +0.000 C 
ENDROOT
BRANCH   1   7
ATOM      3  C   UNL     1      86.186  61.465  89.168  0.00  0.00    +0.000 C 
ATOM      4  C   UNL     1      86.969  62.600  88.579  0.00  0.00    +0.000 A 
ATOM      5  C   UNL     1      87.775  63.413  89.384  0.00  0.00    +0.000 A 
ATOM      6  C   UNL     1      88.477  64.488  88.827  0.00  0.00    +0.000 A 
ATOM      7  C   UNL     1      88.374  64.758  87.463  0.00  0.00    +0.000 A 
ATOM      8  C   UNL     1      87.578  63.949  86.652  0.00  0.00    +0.000 A 
ATOM      9  C   UNL     1      86.876  62.876  87.208  0.00  0.00    +0.000 A 
ENDBRANCH   1   7
BRANCH   2  10
ATOM     10  C   UNL     1      90.257  67.955  85.725  0.00  0.00    +0.000 C 
ATOM     11  C   UNL     1      89.705  69.294  86.155  0.00  0.00    +0.000 C 
ATOM     12  C   UNL     1      89.367  69.670  87.396  0.00  0.00    +0.000 C 
ATOM     13  C   UNL     1      89.586  70.087  84.949  0.00  0.00    +0.000 C 
ATOM     14  C   UNL     1      89.116  71.334  84.821  0.00  0.00    +0.000 C 
ATOM     15  C   UNL     1      90.054  69.224  83.818  0.00  0.00    +0.000 C 
ATOM     16  O   UNL     1      90.019  67.880  84.310  0.00  0.00    +0.000 OA
ENDBRANCH   2  10
TORSDOF 2
ENDMDL
