MODEL 1
REMARK VINA RESULT:      -4.6      0.000      0.000
REMARK  Name = *****
REMARK  3 active torsions:
REMARK  status: ('A' for Active; 'I' for Inactive)
REMARK    1  A    between atoms: C_4  and  C_7
REMARK    2  A    between atoms: C_7  and  N_9
REMARK    3  A    between atoms: N_9  and  C_10
REMARK                            x       y       z     vdW  Elec       q    Type
REMARK                         _______ _______ _______ _____ _____    ______ ____
ROOT
ATOM      1  N   UNL     1      88.417  69.993  87.114  0.00  0.00    +0.000 N 
ATOM      2  H   UNL     1      88.735  70.560  86.374  0.00  0.00    +0.000 HD
ENDROOT
BRANCH   1   3
ATOM      3  C   UNL     1      88.733  68.623  86.955  0.00  0.00    +0.000 A 
ATOM      4  C   UNL     1      89.896  68.122  86.373  0.00  0.00    +0.000 A 
ATOM      5  C   UNL     1      90.100  66.744  86.296  0.00  0.00    +0.000 A 
ATOM      6  C   UNL     1      89.169  65.844  86.795  0.00  0.00    +0.000 A 
ATOM      7  C   UNL     1      88.011  66.328  87.392  0.00  0.00    +0.000 A 
ATOM      8  C   UNL     1      87.800  67.708  87.475  0.00  0.00    +0.000 A 
ATOM      9  F   UNL     1      91.226  66.277  85.739  0.00  0.00    +0.000 F 
ENDBRANCH   1   3
BRANCH   1  10
ATOM     10  C   UNL     1      87.747  70.698  88.108  0.00  0.00    +0.000 C 
ATOM     11  S   UNL     1      88.193  70.960  89.702  0.00  0.00    +0.000 S 
BRANCH  10  15
ATOM     12  C   UNL     1      84.185  72.508  86.572  0.00  0.00    +0.000 A 
ATOM     13  C   UNL     1      84.348  72.368  87.952  0.00  0.00    +0.000 A 
ATOM     14  C   UNL     1      85.501  71.770  88.463  0.00  0.00    +0.000 A 
ATOM     15  C   UNL     1      86.489  71.311  87.585  0.00  0.00    +0.000 A 
ATOM     16  C   UNL     1      86.328  71.454  86.202  0.00  0.00    +0.000 A 
ATOM     17  C   UNL     1      85.173  72.053  85.698  0.00  0.00    +0.000 A 
ENDBRANCH  10  15
ENDBRANCH   1  10
TORSDOF 3
ENDMDL
