MODEL 1
REMARK VINA RESULT:      -4.0      0.000      0.000
REMARK  Name = *****
REMARK  4 active torsions:
REMARK  status: ('A' for Active; 'I' for Inactive)
REMARK    1  A    between atoms: C_4  and  S_7
REMARK    2  A    between atoms: S_7  and  N_8
REMARK    3  A    between atoms: N_8  and  S_9
REMARK    4  A    between atoms: S_9  and  C_10
REMARK                            x       y       z     vdW  Elec       q    Type
REMARK                         _______ _______ _______ _____ _____    ______ ____
ROOT
ATOM      1  N   UNL     1      87.790  62.527  86.827  0.00  0.00    +0.000 NA
ATOM      2  H   UNL     1      87.944  61.551  86.576  0.00  0.00    +0.000 HD
ENDROOT
BRANCH   1   3
ATOM      3  S   UNL     1      86.481  62.632  87.833  0.00  0.00    +0.000 S 
BRANCH   3   7
ATOM      4  C   UNL     1      88.413  64.238  91.673  0.00  0.00    +0.000 A 
ATOM      5  C   UNL     1      89.216  63.925  90.577  0.00  0.00    +0.000 A 
ATOM      6  C   UNL     1      88.637  63.435  89.404  0.00  0.00    +0.000 A 
ATOM      7  C   UNL     1      87.252  63.250  89.322  0.00  0.00    +0.000 A 
ATOM      8  C   UNL     1      86.453  63.575  90.423  0.00  0.00    +0.000 A 
ATOM      9  C   UNL     1      87.033  64.065  91.596  0.00  0.00    +0.000 A 
ENDBRANCH   3   7
ENDBRANCH   1   3
BRANCH   1  10
ATOM     10  S   UNL     1      87.530  63.412  85.454  0.00  0.00    +0.000 S 
BRANCH  10  11
ATOM     11  C   UNL     1      88.583  64.819  85.768  0.00  0.00    +0.000 A 
ATOM     12  C   UNL     1      88.085  65.904  86.497  0.00  0.00    +0.000 A 
ATOM     13  C   UNL     1      88.897  67.010  86.758  0.00  0.00    +0.000 A 
ATOM     14  C   UNL     1      90.212  67.035  86.295  0.00  0.00    +0.000 A 
ATOM     15  C   UNL     1      90.718  65.955  85.575  0.00  0.00    +0.000 A 
ATOM     16  C   UNL     1      89.907  64.849  85.314  0.00  0.00    +0.000 A 
ENDBRANCH  10  11
ENDBRANCH   1  10
TORSDOF 4
ENDMDL
