MODEL 1
REMARK VINA RESULT:      -4.7      0.000      0.000
REMARK  Name = *****
REMARK  4 active torsions:
REMARK  status: ('A' for Active; 'I' for Inactive)
REMARK    1  A    between atoms: C_4  and  C_17
REMARK    2  A    between atoms: C_5  and  C_7
REMARK    3  A    between atoms: C_7  and  O_9
REMARK    4  A    between atoms: O_9  and  C_10
REMARK                            x       y       z     vdW  Elec       q    Type
REMARK                         _______ _______ _______ _____ _____    ______ ____
ROOT
ATOM      1  C   UNL     1      85.116  72.131  85.841  0.00  0.00    +0.000 A 
ATOM      2  C   UNL     1      84.793  72.179  87.194  0.00  0.00    +0.000 A 
ATOM      3  C   UNL     1      85.679  71.666  88.145  0.00  0.00    +0.000 A 
ATOM      4  C   UNL     1      86.903  71.091  87.756  0.00  0.00    +0.000 A 
ATOM      5  C   UNL     1      87.219  71.056  86.387  0.00  0.00    +0.000 A 
ATOM      6  C   UNL     1      86.328  71.576  85.435  0.00  0.00    +0.000 A 
ENDROOT
BRANCH   4   7
ATOM      7  C   UNL     1      87.834  70.525  88.800  0.00  0.00    +0.000 C 
ATOM      8  F   UNL     1      87.243  70.442  90.029  0.00  0.00    +0.000 F 
ATOM      9  F   UNL     1      88.241  69.256  88.522  0.00  0.00    +0.000 F 
ATOM     10  F   UNL     1      88.950  71.275  88.989  0.00  0.00    +0.000 F 
ENDBRANCH   4   7
BRANCH   5  11
ATOM     11  C   UNL     1      88.516  70.515  85.927  0.00  0.00    +0.000 C 
ATOM     12  O   UNL     1      89.590  70.926  86.330  0.00  0.00    +0.000 OA
BRANCH  11  13
ATOM     13  O   UNL     1      88.259  69.481  85.053  0.00  0.00    +0.000 OA
BRANCH  13  14
ATOM     14  C   UNL     1      88.530  68.244  85.632  0.00  0.00    +0.000 A 
ATOM     15  C   UNL     1      89.850  67.813  85.755  0.00  0.00    +0.000 A 
ATOM     16  C   UNL     1      90.109  66.589  86.374  0.00  0.00    +0.000 A 
ATOM     17  C   UNL     1      89.057  65.816  86.876  0.00  0.00    +0.000 A 
ATOM     18  C   UNL     1      87.739  66.267  86.764  0.00  0.00    +0.000 A 
ATOM     19  C   UNL     1      87.482  67.484  86.146  0.00  0.00    +0.000 A 
ATOM     20  F   UNL     1      86.219  67.925  86.051  0.00  0.00    +0.000 F 
ENDBRANCH  13  14
ENDBRANCH  11  13
ENDBRANCH   5  11
TORSDOF 4
ENDMDL
