MODEL 1
REMARK VINA RESULT:      -4.6      0.000      0.000
REMARK  Name = *****
REMARK  6 active torsions:
REMARK  status: ('A' for Active; 'I' for Inactive)
REMARK    1  A    between atoms: C_1  and  C_2
REMARK    2  A    between atoms: C_5  and  O_8
REMARK    3  A    between atoms: O_8  and  C_9
REMARK    4  A    between atoms: C_9  and  O_11
REMARK    5  A    between atoms: O_11  and  C_12
REMARK    6  A    between atoms: C_15  and  C_18
REMARK                            x       y       z     vdW  Elec       q    Type
REMARK                         _______ _______ _______ _____ _____    ______ ____
ROOT
ATOM      1  C   UNL     1     103.098 126.046  81.327  0.00  0.00    +0.000 C 
ATOM      2  O   UNL     1     103.170 126.677  80.281  0.00  0.00    +0.000 OA
ENDROOT
BRANCH   1   3
ATOM      3  O   UNL     1     104.163 125.529  82.053  0.00  0.00    +0.000 OA
BRANCH   3   8
ATOM      4  C   UNL     1     105.073 119.919  81.859  0.00  0.00    +0.000 C 
ATOM      5  C   UNL     1     104.796 121.393  81.894  0.00  0.00    +0.000 A 
ATOM      6  C   UNL     1     104.860 122.154  80.717  0.00  0.00    +0.000 A 
ATOM      7  C   UNL     1     104.635 123.530  80.750  0.00  0.00    +0.000 A 
ATOM      8  C   UNL     1     104.336 124.143  81.966  0.00  0.00    +0.000 A 
ATOM      9  C   UNL     1     104.302 123.412  83.150  0.00  0.00    +0.000 A 
ATOM     10  C   UNL     1     104.532 122.036  83.112  0.00  0.00    +0.000 A 
ENDBRANCH   3   8
ENDBRANCH   1   3
BRANCH   1  11
ATOM     11  O   UNL     1     101.938 125.712  82.012  0.00  0.00    +0.000 OA
BRANCH  11  12
ATOM     12  C   UNL     1     101.253 126.821  82.512  0.00  0.00    +0.000 A 
ATOM     13  C   UNL     1      99.865 126.857  82.417  0.00  0.00    +0.000 A 
ATOM     14  C   UNL     1      99.174 127.940  82.961  0.00  0.00    +0.000 A 
ATOM     15  C   UNL     1      99.867 128.967  83.618  0.00  0.00    +0.000 A 
ATOM     16  C   UNL     1     101.266 128.906  83.707  0.00  0.00    +0.000 A 
ATOM     17  C   UNL     1     101.962 127.826  83.165  0.00  0.00    +0.000 A 
ATOM     18  C   UNL     1      99.125 130.149  84.170  0.00  0.00    +0.000 C 
ENDBRANCH  11  12
ENDBRANCH   1  11
TORSDOF 4
ENDMDL
