MODEL 1
REMARK VINA RESULT:      -4.2      0.000      0.000
REMARK  Name = *****
REMARK  5 active torsions:
REMARK  status: ('A' for Active; 'I' for Inactive)
REMARK    1  A    between atoms: C_1  and  C_2
REMARK    2  A    between atoms: C_7  and  N_8
REMARK    3  A    between atoms: N_8  and  C_9
REMARK    4  A    between atoms: N_8  and  C_10
REMARK    5  A    between atoms: C_10  and  C_11
REMARK                            x       y       z     vdW  Elec       q    Type
REMARK                         _______ _______ _______ _____ _____    ______ ____
ROOT
ATOM      1  N   UNL     1     103.671 127.299  83.033  0.00  0.00    +0.000 N 
ATOM      2  C   UNL     1     104.878 127.958  83.542  0.00  0.00    +0.000 C 
ENDROOT
BRANCH   1   9
ATOM      3  C   UNL     1     103.556 127.434  80.157  0.00  0.00    +0.000 C 
ATOM      4  C   UNL     1     103.885 126.159  80.884  0.00  0.00    +0.000 A 
ATOM      5  C   UNL     1     104.119 124.988  80.144  0.00  0.00    +0.000 A 
ATOM      6  C   UNL     1     104.422 123.788  80.786  0.00  0.00    +0.000 A 
ATOM      7  C   UNL     1     104.488 123.744  82.174  0.00  0.00    +0.000 A 
ATOM      8  C   UNL     1     104.249 124.899  82.921  0.00  0.00    +0.000 A 
ATOM      9  C   UNL     1     103.947 126.121  82.294  0.00  0.00    +0.000 A 
ENDBRANCH   1   9
BRANCH   1  10
ATOM     10  C   UNL     1     102.631 127.034  84.047  0.00  0.00    +0.000 C 
BRANCH  10  11
ATOM     11  C   UNL     1     101.261 127.483  83.580  0.00  0.00    +0.000 A 
ATOM     12  C   UNL     1     100.786 128.766  83.889  0.00  0.00    +0.000 A 
ATOM     13  C   UNL     1      99.515 129.170  83.478  0.00  0.00    +0.000 A 
ATOM     14  C   UNL     1      98.703 128.297  82.757  0.00  0.00    +0.000 A 
ATOM     15  C   UNL     1      99.159 127.017  82.448  0.00  0.00    +0.000 A 
ATOM     16  C   UNL     1     100.429 126.611  82.861  0.00  0.00    +0.000 A 
ENDBRANCH  10  11
ENDBRANCH   1  10
TORSDOF 3
ENDMDL
