MODEL 1
REMARK VINA RESULT:      -5.0      0.000      0.000
REMARK  Name = *****
REMARK  1 active torsions:
REMARK  status: ('A' for Active; 'I' for Inactive)
REMARK    1  A    between atoms: C_8  and  C_10
REMARK                            x       y       z     vdW  Elec       q    Type
REMARK                         _______ _______ _______ _____ _____    ______ ____
ROOT
ATOM      1  C   UNL     1      99.785 129.365  83.874  0.00  0.00    +0.000 A 
ATOM      2  C   UNL     1      98.821 128.516  83.315  0.00  0.00    +0.000 A 
ATOM      3  C   UNL     1      99.182 127.313  82.694  0.00  0.00    +0.000 A 
ATOM      4  C   UNL     1     100.543 127.031  82.674  0.00  0.00    +0.000 A 
ATOM      5  C   UNL     1     101.524 127.843  83.214  0.00  0.00    +0.000 A 
ATOM      6  C   UNL     1     101.150 129.042  83.833  0.00  0.00    +0.000 A 
ATOM      7  N   UNL     1     102.755 127.269  83.024  0.00  0.00    +0.000 NA
ATOM      8  C   UNL     1     102.490 126.146  82.379  0.00  0.00    +0.000 A 
ATOM      9  O   UNL     1     101.154 125.937  82.139  0.00  0.00    +0.000 OA
ENDROOT
BRANCH   8  10
ATOM     10  C   UNL     1     103.404 125.111  81.920  0.00  0.00    +0.000 A 
ATOM     11  C   UNL     1     103.858 124.121  82.802  0.00  0.00    +0.000 A 
ATOM     12  C   UNL     1     104.735 123.119  82.392  0.00  0.00    +0.000 A 
ATOM     13  C   UNL     1     105.175 123.101  81.077  0.00  0.00    +0.000 A 
ATOM     14  C   UNL     1     104.753 124.064  80.175  0.00  0.00    +0.000 A 
ATOM     15  C   UNL     1     103.874 125.058  80.601  0.00  0.00    +0.000 A 
ATOM     16  F   UNL     1     103.505 125.983  79.702  0.00  0.00    +0.000 F 
ATOM     17  F   UNL     1     106.019 122.143  80.676  0.00  0.00    +0.000 F 
ATOM     18  F   UNL     1     103.443 124.096  84.077  0.00  0.00    +0.000 F 
ENDBRANCH   8  10
TORSDOF 1
ENDMDL
