MODEL 1
REMARK VINA RESULT:      -4.4      0.000      0.000
REMARK  Name = *****
REMARK  3 active torsions:
REMARK  status: ('A' for Active; 'I' for Inactive)
REMARK    1  A    between atoms: C_4  and  C_7
REMARK    2  A    between atoms: C_7  and  S_8
REMARK    3  A    between atoms: S_8  and  C_9
REMARK                            x       y       z     vdW  Elec       q    Type
REMARK                         _______ _______ _______ _____ _____    ______ ____
ROOT
ATOM      1  S   UNL     1     103.629 127.987  81.924  0.00  0.00    +0.000 S 
ENDROOT
BRANCH   1   2
ATOM      2  C   UNL     1     103.981 126.263  81.639  0.00  0.00    +0.000 A 
ATOM      3  C   UNL     1     103.958 125.377  82.721  0.00  0.00    +0.000 A 
ATOM      4  C   UNL     1     104.219 124.018  82.529  0.00  0.00    +0.000 A 
ATOM      5  C   UNL     1     104.494 123.542  81.250  0.00  0.00    +0.000 A 
ATOM      6  C   UNL     1     104.505 124.412  80.161  0.00  0.00    +0.000 A 
ATOM      7  C   UNL     1     104.243 125.771  80.355  0.00  0.00    +0.000 A 
ATOM      8 BR   UNL     1     104.846 121.704  80.987  0.00  0.00    +0.000 Br
ENDBRANCH   1   2
BRANCH   1   9
ATOM      9  C   UNL     1     102.681 127.860  83.477  0.00  0.00    +0.000 C 
BRANCH   9  13
ATOM     10  C   UNL     1      98.426 127.922  82.761  0.00  0.00    +0.000 A 
ATOM     11  C   UNL     1      99.048 129.014  83.365  0.00  0.00    +0.000 A 
ATOM     12  C   UNL     1     100.424 128.995  83.596  0.00  0.00    +0.000 A 
ATOM     13  C   UNL     1     101.195 127.884  83.219  0.00  0.00    +0.000 A 
ATOM     14  C   UNL     1     100.555 126.788  82.621  0.00  0.00    +0.000 A 
ATOM     15  C   UNL     1      99.179 126.809  82.391  0.00  0.00    +0.000 A 
ENDBRANCH   9  13
ENDBRANCH   1   9
TORSDOF 3
ENDMDL
