MODEL 1
REMARK VINA RESULT:      -4.4      0.000      0.000
REMARK  Name = *****
REMARK  4 active torsions:
REMARK  status: ('A' for Active; 'I' for Inactive)
REMARK    1  A    between atoms: C_1  and  C_2
REMARK    2  A    between atoms: C_5  and  C_8
REMARK    3  A    between atoms: C_8  and  S_9
REMARK    4  A    between atoms: S_9  and  C_10
REMARK                            x       y       z     vdW  Elec       q    Type
REMARK                         _______ _______ _______ _____ _____    ______ ____
ROOT
ATOM      1  C   UNL     1     103.190 127.163  81.261  0.00  0.00    +0.000 C 
ENDROOT
BRANCH   1   6
ATOM      2  C   UNL     1     105.345 121.751  81.086  0.00  0.00    +0.000 C 
ATOM      3  C   UNL     1     104.768 123.135  81.121  0.00  0.00    +0.000 A 
ATOM      4  C   UNL     1     104.901 123.988  80.021  0.00  0.00    +0.000 A 
ATOM      5  C   UNL     1     104.389 125.287  80.065  0.00  0.00    +0.000 A 
ATOM      6  C   UNL     1     103.749 125.763  81.217  0.00  0.00    +0.000 A 
ATOM      7  C   UNL     1     103.622 124.908  82.320  0.00  0.00    +0.000 A 
ATOM      8  C   UNL     1     104.134 123.609  82.274  0.00  0.00    +0.000 A 
ENDBRANCH   1   6
BRANCH   1   9
ATOM      9  S   UNL     1     102.905 127.712  82.977  0.00  0.00    +0.000 S 
BRANCH   9  10
ATOM     10  C   UNL     1     101.123 127.752  82.992  0.00  0.00    +0.000 A 
ATOM     11  C   UNL     1     100.361 126.718  82.437  0.00  0.00    +0.000 A 
ATOM     12  C   UNL     1      98.966 126.781  82.458  0.00  0.00    +0.000 A 
ATOM     13  C   UNL     1      98.325 127.883  83.023  0.00  0.00    +0.000 A 
ATOM     14  C   UNL     1      99.078 128.923  83.562  0.00  0.00    +0.000 A 
ATOM     15  C   UNL     1     100.473 128.860  83.543  0.00  0.00    +0.000 A 
ENDBRANCH   9  10
ENDBRANCH   1   9
TORSDOF 3
ENDMDL
