MODEL 1
REMARK VINA RESULT:      -4.4      0.000      0.000
REMARK  Name = *****
REMARK  6 active torsions:
REMARK  status: ('A' for Active; 'I' for Inactive)
REMARK    1  A    between atoms: C_1  and  C_2
REMARK    2  A    between atoms: C_5  and  C_8
REMARK    3  A    between atoms: C_9  and  C_10
REMARK    4  A    between atoms: C_13  and  C_15
REMARK    5  A    between atoms: C_15  and  O_17
REMARK    6  A    between atoms: O_17  and  C_18
REMARK                            x       y       z     vdW  Elec       q    Type
REMARK                         _______ _______ _______ _____ _____    ______ ____
ROOT
ATOM      1  C   UNL     1      85.754  61.371  90.219  0.00  0.00    +0.000 C 
ATOM      2  C   UNL     1      86.367  61.531  89.035  0.00  0.00    +0.000 C 
ENDROOT
BRANCH   1   7
ATOM      3  C   UNL     1      82.817  56.547  91.496  0.00  0.00    +0.000 C 
ATOM      4  C   UNL     1      83.569  57.809  91.198  0.00  0.00    +0.000 A 
ATOM      5  C   UNL     1      82.883  59.001  90.936  0.00  0.00    +0.000 A 
ATOM      6  C   UNL     1      83.584  60.170  90.626  0.00  0.00    +0.000 A 
ATOM      7  C   UNL     1      84.984  60.170  90.573  0.00  0.00    +0.000 A 
ATOM      8  C   UNL     1      85.666  58.970  90.805  0.00  0.00    +0.000 A 
ATOM      9  C   UNL     1      84.966  57.800  91.116  0.00  0.00    +0.000 A 
ENDBRANCH   1   7
BRANCH   2  10
ATOM     10  C   UNL     1      87.108  62.705  88.704  0.00  0.00    +0.000 A 
ATOM     11  C   UNL     1      87.873  63.554  89.487  0.00  0.00    +0.000 A 
ATOM     12  C   UNL     1      88.457  64.627  88.749  0.00  0.00    +0.000 A 
ATOM     13  C   UNL     1      88.131  64.585  87.408  0.00  0.00    +0.000 A 
ATOM     14  S   UNL     1      87.122  63.247  87.066  0.00  0.00    +0.000 S 
BRANCH  13  15
ATOM     15  C   UNL     1      88.519  65.478  86.333  0.00  0.00    +0.000 C 
ATOM     16  O   UNL     1      87.961  65.603  85.248  0.00  0.00    +0.000 OA
BRANCH  15  17
ATOM     17  O   UNL     1      89.628  66.188  86.702  0.00  0.00    +0.000 OA
ATOM     18  C   UNL     1      90.692  66.140  85.751  0.00  0.00    +0.000 C 
ENDBRANCH  15  17
ENDBRANCH  13  15
ENDBRANCH   2  10
TORSDOF 4
ENDMDL
