MODEL 1
REMARK VINA RESULT:      -4.2      0.000      0.000
REMARK  Name = *****
REMARK  5 active torsions:
REMARK  status: ('A' for Active; 'I' for Inactive)
REMARK    1  A    between atoms: C_1  and  N_2
REMARK    2  A    between atoms: N_2  and  C_3
REMARK    3  A    between atoms: N_2  and  P_9
REMARK    4  A    between atoms: P_9  and  C_10
REMARK    5  A    between atoms: P_9  and  C_11
REMARK                            x       y       z     vdW  Elec       q    Type
REMARK                         _______ _______ _______ _____ _____    ______ ____
ROOT
ATOM      1  C   UNL     1     103.598 128.250  83.540  0.00  0.00    +0.000 C 
ATOM      2  N   UNL     1     102.776 127.402  82.669  0.00  0.00    +0.000 N 
ENDROOT
BRANCH   2   3
ATOM      3  C   UNL     1     101.374 127.604  82.857  0.00  0.00    +0.000 A 
ATOM      4  C   UNL     1     100.852 128.724  83.529  0.00  0.00    +0.000 A 
ATOM      5  C   UNL     1      99.473 128.897  83.693  0.00  0.00    +0.000 A 
ATOM      6  C   UNL     1      98.585 127.952  83.188  0.00  0.00    +0.000 A 
ATOM      7  C   UNL     1      99.076 126.839  82.514  0.00  0.00    +0.000 A 
ATOM      8  C   UNL     1     100.454 126.671  82.348  0.00  0.00    +0.000 A 
ENDBRANCH   2   3
BRANCH   2   9
ATOM      9  P   UNL     1     103.387 126.997  81.163  0.00  0.00    +0.000 P 
ATOM     10  C   UNL     1     105.047 127.765  80.975  0.00  0.00    +0.000 C 
BRANCH   9  11
ATOM     11  C   UNL     1     103.900 125.269  81.473  0.00  0.00    +0.000 A 
ATOM     12  C   UNL     1     104.369 124.500  80.397  0.00  0.00    +0.000 A 
ATOM     13  C   UNL     1     104.781 123.179  80.588  0.00  0.00    +0.000 A 
ATOM     14  C   UNL     1     104.731 122.609  81.858  0.00  0.00    +0.000 A 
ATOM     15  C   UNL     1     104.268 123.360  82.937  0.00  0.00    +0.000 A 
ATOM     16  C   UNL     1     103.857 124.680  82.745  0.00  0.00    +0.000 A 
ENDBRANCH   9  11
ENDBRANCH   2   9
TORSDOF 3
ENDMDL
