MODEL 1
REMARK VINA RESULT:      -5.0      0.000      0.000
REMARK  Name = *****
REMARK  7 active torsions:
REMARK  status: ('A' for Active; 'I' for Inactive)
REMARK    1  A    between atoms: C_1  and  C_2
REMARK    2  A    between atoms: C_5  and  C_8
REMARK    3  A    between atoms: C_8  and  C_9
REMARK    4  A    between atoms: C_9  and  C_10
REMARK    5  A    between atoms: C_10  and  C_12
REMARK    6  A    between atoms: C_13  and  C_19
REMARK    7  A    between atoms: C_16  and  C_18
REMARK                            x       y       z     vdW  Elec       q    Type
REMARK                         _______ _______ _______ _____ _____    ______ ____
ROOT
ATOM      1  C   UNL     1      89.261  70.217  86.294  0.00  0.00    +0.000 C 
ATOM      2  O   UNL     1      90.029  70.978  85.700  0.00  0.00    +0.000 OA
ENDROOT
BRANCH   1   3
ATOM      3  C   UNL     1      87.951  70.771  86.807  0.00  0.00    +0.000 A 
ATOM      4  C   UNL     1      87.538  70.889  88.152  0.00  0.00    +0.000 A 
ATOM      5  C   UNL     1      86.261  71.431  88.423  0.00  0.00    +0.000 A 
ATOM      6  C   UNL     1      85.402  71.837  87.403  0.00  0.00    +0.000 A 
ATOM      7  C   UNL     1      85.794  71.720  86.074  0.00  0.00    +0.000 A 
ATOM      8  C   UNL     1      87.060  71.192  85.792  0.00  0.00    +0.000 A 
ATOM      9  C   UNL     1      84.886  72.132  84.954  0.00  0.00    +0.000 C 
ATOM     10  C   UNL     1      88.338  70.463  89.352  0.00  0.00    +0.000 C 
ENDBRANCH   1   3
BRANCH   1  11
ATOM     11  C   UNL     1      89.637  68.766  86.504  0.00  0.00    +0.000 C 
BRANCH  11  12
ATOM     12  C   UNL     1      88.551  67.815  85.991  0.00  0.00    +0.000 C 
BRANCH  12  17
ATOM     13  C   UNL     1      86.857  64.219  90.251  0.00  0.00    +0.000 C 
ATOM     14  C   UNL     1      87.274  65.136  89.140  0.00  0.00    +0.000 A 
ATOM     15  C   UNL     1      86.618  66.355  88.933  0.00  0.00    +0.000 A 
ATOM     16  C   UNL     1      87.025  67.213  87.909  0.00  0.00    +0.000 A 
ATOM     17  C   UNL     1      88.099  66.869  87.077  0.00  0.00    +0.000 A 
ATOM     18  C   UNL     1      88.764  65.658  87.293  0.00  0.00    +0.000 A 
ATOM     19  C   UNL     1      88.355  64.800  88.318  0.00  0.00    +0.000 A 
ENDBRANCH  12  17
ENDBRANCH  11  12
ENDBRANCH   1  11
TORSDOF 4
ENDMDL
