MODEL 1
REMARK VINA RESULT:      -4.8      0.000      0.000
REMARK  Name = *****
REMARK  5 active torsions:
REMARK  status: ('A' for Active; 'I' for Inactive)
REMARK    1  A    between atoms: C_1  and  C_2
REMARK    2  A    between atoms: C_4  and  C_9
REMARK    3  A    between atoms: C_9  and  O_11
REMARK    4  A    between atoms: O_11  and  C_12
REMARK    5  A    between atoms: C_12  and  C_13
REMARK                            x       y       z     vdW  Elec       q    Type
REMARK                         _______ _______ _______ _____ _____    ______ ____
ROOT
ATOM      1  C   UNL     1     101.214 126.489  82.966  0.00  0.00    +0.000 C 
ATOM      2  O   UNL     1     101.280 125.956  84.062  0.00  0.00    +0.000 OA
ENDROOT
BRANCH   1   6
ATOM      3  C   UNL     1     104.782 129.029  80.438  0.00  0.00    +0.000 C 
ATOM      4  C   UNL     1     104.101 127.743  80.802  0.00  0.00    +0.000 A 
ATOM      5  C   UNL     1     103.017 127.739  81.695  0.00  0.00    +0.000 A 
ATOM      6  C   UNL     1     102.356 126.540  82.015  0.00  0.00    +0.000 A 
ATOM      7  C   UNL     1     102.781 125.342  81.433  0.00  0.00    +0.000 A 
ATOM      8  C   UNL     1     103.843 125.355  80.538  0.00  0.00    +0.000 A 
ATOM      9  C   UNL     1     104.499 126.538  80.213  0.00  0.00    +0.000 A 
ATOM     10  F   UNL     1     104.240 124.208  79.973  0.00  0.00    +0.000 F 
ENDBRANCH   1   6
BRANCH   1  11
ATOM     11  O   UNL     1     100.128 127.095  82.431  0.00  0.00    +0.000 OA
BRANCH  11  12
ATOM     12  C   UNL     1      98.968 127.154  83.271  0.00  0.00    +0.000 C 
BRANCH  12  13
ATOM     13  C   UNL     1      98.910 128.507  83.930  0.00  0.00    +0.000 A 
ATOM     14  C   UNL     1      99.464 129.632  83.303  0.00  0.00    +0.000 A 
ATOM     15  C   UNL     1      99.428 130.880  83.928  0.00  0.00    +0.000 A 
ATOM     16  C   UNL     1      98.847 131.013  85.187  0.00  0.00    +0.000 A 
ATOM     17  C   UNL     1      98.304 129.900  85.825  0.00  0.00    +0.000 A 
ATOM     18  C   UNL     1      98.338 128.651  85.202  0.00  0.00    +0.000 A 
ENDBRANCH  12  13
ENDBRANCH  11  12
ENDBRANCH   1  11
TORSDOF 4
ENDMDL
