MODEL 1
REMARK VINA RESULT:      -4.8      0.000      0.000
REMARK  Name = *****
REMARK  5 active torsions:
REMARK  status: ('A' for Active; 'I' for Inactive)
REMARK    1  A    between atoms: C_1  and  C_2
REMARK    2  A    between atoms: C_4  and  C_8
REMARK    3  A    between atoms: C_8  and  C_9
REMARK    4  A    between atoms: C_9  and  C_10
REMARK    5  A    between atoms: C_15  and  C_16
REMARK                            x       y       z     vdW  Elec       q    Type
REMARK                         _______ _______ _______ _____ _____    ______ ____
ROOT
ATOM      1  C   UNL     1      88.074  70.346  88.427  0.00  0.00    +0.000 C 
ENDROOT
BRANCH   1   5
ATOM      2  C   UNL     1      84.928  72.230  84.894  0.00  0.00    +0.000 C 
ATOM      3  C   UNL     1      85.295  72.009  86.331  0.00  0.00    +0.000 A 
ATOM      4  C   UNL     1      86.474  71.324  86.664  0.00  0.00    +0.000 A 
ATOM      5  C   UNL     1      86.811  71.065  88.001  0.00  0.00    +0.000 A 
ATOM      6  C   UNL     1      85.938  71.513  89.006  0.00  0.00    +0.000 A 
ATOM      7  C   UNL     1      84.759  72.185  88.683  0.00  0.00    +0.000 A 
ATOM      8  C   UNL     1      84.435  72.427  87.351  0.00  0.00    +0.000 A 
ENDBRANCH   1   5
BRANCH   1   9
ATOM      9  C   UNL     1      89.331  70.471  87.547  0.00  0.00    +0.000 C 
BRANCH   9  10
ATOM     10  C   UNL     1      89.532  69.494  86.399  0.00  0.00    +0.000 A 
ATOM     11  C   UNL     1      89.617  68.108  86.617  0.00  0.00    +0.000 A 
ATOM     12  C   UNL     1      89.808  67.220  85.556  0.00  0.00    +0.000 A 
ATOM     13  C   UNL     1      89.925  67.700  84.258  0.00  0.00    +0.000 A 
ATOM     14  C   UNL     1      89.860  69.070  84.019  0.00  0.00    +0.000 A 
ATOM     15  C   UNL     1      89.677  69.977  85.076  0.00  0.00    +0.000 A 
ATOM     16  C   UNL     1      89.610  71.448  84.758  0.00  0.00    +0.000 C 
ENDBRANCH   9  10
ENDBRANCH   1   9
TORSDOF 3
ENDMDL
