REMARK  Name = *****
REMARK  5 active torsions:
REMARK  status: ('A' for Active; 'I' for Inactive)
REMARK    1  A    between atoms: C_1  and  C_2
REMARK    2  A    between atoms: C_3  and  C_18
REMARK    3  A    between atoms: C_4  and  O_8
REMARK    4  A    between atoms: O_8  and  C_9
REMARK    5  A    between atoms: C_9  and  C_11
REMARK                            x       y       z     vdW  Elec       q    Type
REMARK                         _______ _______ _______ _____ _____    ______ ____
ROOT
ATOM      1  O   UNL     1      -1.120  -2.199  -1.268  0.00  0.00    +0.000 OA
ENDROOT
BRANCH   1   5
ATOM      2  C   UNL     1       1.922   1.225   0.647  0.00  0.00    +0.000 C 
ATOM      3  C   UNL     1       0.563   0.733   0.229  0.00  0.00    +0.000 A 
ATOM      4  C   UNL     1       0.367  -0.570  -0.276  0.00  0.00    +0.000 A 
ATOM      5  C   UNL     1      -0.932  -0.946  -0.662  0.00  0.00    +0.000 A 
ATOM      6  C   UNL     1      -2.016  -0.074  -0.554  0.00  0.00    +0.000 A 
ATOM      7  C   UNL     1      -1.819   1.195  -0.024  0.00  0.00    +0.000 A 
ATOM      8  C   UNL     1      -0.540   1.595   0.365  0.00  0.00    +0.000 A 
ATOM      9  C   UNL     1       1.517  -1.521  -0.471  0.00  0.00    +0.000 C 
ENDBRANCH   1   5
BRANCH   1  10
ATOM     10  C   UNL     1      -1.898  -3.091  -0.557  0.00  0.00    +0.000 C 
ATOM     11  O   UNL     1      -2.480  -2.898   0.500  0.00  0.00    +0.000 OA
BRANCH  10  12
ATOM     12  C   UNL     1      -2.026  -4.355  -1.312  0.00  0.00    +0.000 A 
ATOM     13  C   UNL     1      -3.187  -5.121  -1.131  0.00  0.00    +0.000 A 
ATOM     14  C   UNL     1      -3.351  -6.324  -1.821  0.00  0.00    +0.000 A 
ATOM     15  C   UNL     1      -2.354  -6.774  -2.688  0.00  0.00    +0.000 A 
ATOM     16  C   UNL     1      -1.191  -6.023  -2.859  0.00  0.00    +0.000 A 
ATOM     17  C   UNL     1      -1.030  -4.822  -2.170  0.00  0.00    +0.000 A 
ATOM     18  F   UNL     1       0.120  -4.152  -2.338  0.00  0.00    +0.000 F 
ENDBRANCH  10  12
ENDBRANCH   1  10
TORSDOF 3
