MODEL 1
REMARK VINA RESULT:      -4.4      0.000      0.000
REMARK  Name = *****
REMARK  3 active torsions:
REMARK  status: ('A' for Active; 'I' for Inactive)
REMARK    1  A    between atoms: C_4  and  C_7
REMARK    2  A    between atoms: C_7  and  S_9
REMARK    3  A    between atoms: S_9  and  C_10
REMARK                            x       y       z     vdW  Elec       q    Type
REMARK                         _______ _______ _______ _____ _____    ______ ____
ROOT
ATOM      1  C   UNL     1      87.833  70.825  85.734  0.00  0.00    +0.000 C 
ATOM      2  O   UNL     1      87.897  70.722  84.514  0.00  0.00    +0.000 OA
ENDROOT
BRANCH   1   6
ATOM      3  C   UNL     1      84.340  72.349  87.741  0.00  0.00    +0.000 A 
ATOM      4  C   UNL     1      84.392  72.395  86.349  0.00  0.00    +0.000 A 
ATOM      5  C   UNL     1      85.513  71.906  85.669  0.00  0.00    +0.000 A 
ATOM      6  C   UNL     1      86.594  71.364  86.379  0.00  0.00    +0.000 A 
ATOM      7  C   UNL     1      86.527  71.327  87.782  0.00  0.00    +0.000 A 
ATOM      8  C   UNL     1      85.406  71.816  88.458  0.00  0.00    +0.000 A 
ENDBRANCH   1   6
BRANCH   1   9
ATOM      9  S   UNL     1      89.183  70.366  86.773  0.00  0.00    +0.000 S 
BRANCH   9  10
ATOM     10  C   UNL     1      89.049  68.591  86.796  0.00  0.00    +0.000 A 
ATOM     11  C   UNL     1      90.080  67.811  86.261  0.00  0.00    +0.000 A 
ATOM     12  C   UNL     1      90.001  66.416  86.297  0.00  0.00    +0.000 A 
ATOM     13  C   UNL     1      88.890  65.800  86.873  0.00  0.00    +0.000 A 
ATOM     14  C   UNL     1      87.862  66.567  87.416  0.00  0.00    +0.000 A 
ATOM     15  C   UNL     1      87.943  67.962  87.381  0.00  0.00    +0.000 A 
ATOM     16 CL   UNL     1      88.793  64.083  86.918  0.00  0.00    +0.000 Cl
ENDBRANCH   9  10
ENDBRANCH   1   9
TORSDOF 3
ENDMDL
