MODEL 1
REMARK VINA RESULT:      -4.3      0.000      0.000
REMARK  Name = *****
REMARK  3 active torsions:
REMARK  status: ('A' for Active; 'I' for Inactive)
REMARK    1  A    between atoms: C_4  and  C_6
REMARK    2  A    between atoms: C_7  and  C_8
REMARK    3  A    between atoms: C_7  and  C_10
REMARK                            x       y       z     vdW  Elec       q    Type
REMARK                         _______ _______ _______ _____ _____    ______ ____
ROOT
ATOM      1  C   UNL     1     102.064 125.914  82.776  0.00  0.00    +0.000 C 
ATOM      2  C   UNL     1     102.995 125.841  81.802  0.00  0.00    +0.000 C 
ENDROOT
BRANCH   2   3
ATOM      3  C   UNL     1     103.800 124.604  81.710  0.00  0.00    +0.000 A 
ATOM      4  C   UNL     1     104.329 124.184  80.478  0.00  0.00    +0.000 A 
ATOM      5  C   UNL     1     105.090 123.015  80.395  0.00  0.00    +0.000 A 
ATOM      6  C   UNL     1     105.330 122.262  81.542  0.00  0.00    +0.000 A 
ATOM      7  C   UNL     1     104.816 122.667  82.772  0.00  0.00    +0.000 A 
ATOM      8  C   UNL     1     104.054 123.836  82.857  0.00  0.00    +0.000 A 
ATOM      9 CL   UNL     1     106.268 120.823  81.439  0.00  0.00    +0.000 Cl
ENDBRANCH   2   3
BRANCH   1  13
ATOM     10  C   UNL     1     100.285 129.102  83.629  0.00  0.00    +0.000 A 
ATOM     11  C   UNL     1      99.180 128.466  83.118  0.00  0.00    +0.000 A 
ATOM     12  S   UNL     1      99.548 126.897  82.559  0.00  0.00    +0.000 S 
ATOM     13  C   UNL     1     101.207 127.028  83.026  0.00  0.00    +0.000 A 
ATOM     14  C   UNL     1     101.450 128.281  83.567  0.00  0.00    +0.000 A 
ENDBRANCH   1  13
BRANCH   2  15
ATOM     15  C   UNL     1     103.292 126.904  80.894  0.00  0.00    +0.000 C 
ATOM     16  N   UNL     1     103.547 127.767  80.163  0.00  0.00    +0.000 NA
ENDBRANCH   2  15
TORSDOF 3
ENDMDL
