REMARK  Name = *****
REMARK  4 active torsions:
REMARK  status: ('A' for Active; 'I' for Inactive)
REMARK    1  A    between atoms: C_1  and  C_2
REMARK    2  A    between atoms: C_2  and  C_3
REMARK    3  A    between atoms: C_2  and  P_9
REMARK    4  A    between atoms: P_9  and  C_11
REMARK                            x       y       z     vdW  Elec       q    Type
REMARK                         _______ _______ _______ _____ _____    ______ ____
ROOT
ATOM      1  P   UNL     1       2.809  -0.415  -1.667  0.00  0.00    +0.000 P 
ATOM      2  O   UNL     1       1.912  -1.573  -2.027  0.00  0.00    +0.000 OA
ATOM      3 CL   UNL     1       4.734  -0.991  -1.840  0.00  0.00    +0.000 Cl
ENDROOT
BRANCH   1   4
ATOM      4  C   UNL     1       2.720   1.008  -2.725  0.00  0.00    +0.000 A 
ATOM      5  C   UNL     1       3.598   2.094  -2.587  0.00  0.00    +0.000 A 
ATOM      6  C   UNL     1       3.490   3.207  -3.422  0.00  0.00    +0.000 A 
ATOM      7  C   UNL     1       2.502   3.250  -4.403  0.00  0.00    +0.000 A 
ATOM      8  C   UNL     1       1.623   2.180  -4.553  0.00  0.00    +0.000 A 
ATOM      9  C   UNL     1       1.732   1.066  -3.719  0.00  0.00    +0.000 A 
ENDBRANCH   1   4
BRANCH   1  11
ATOM     10  C   UNL     1       1.199   0.569   0.365  0.00  0.00    +0.000 C 
ATOM     11  C   UNL     1       2.629   0.101   0.079  0.00  0.00    +0.000 C 
BRANCH  11  12
ATOM     12  C   UNL     1       3.058  -0.910   1.130  0.00  0.00    +0.000 A 
ATOM     13  C   UNL     1       2.545  -2.215   1.136  0.00  0.00    +0.000 A 
ATOM     14  C   UNL     1       2.949  -3.132   2.108  0.00  0.00    +0.000 A 
ATOM     15  C   UNL     1       3.864  -2.755   3.088  0.00  0.00    +0.000 A 
ATOM     16  C   UNL     1       4.375  -1.460   3.099  0.00  0.00    +0.000 A 
ATOM     17  C   UNL     1       3.974  -0.541   2.127  0.00  0.00    +0.000 A 
ENDBRANCH  11  12
ENDBRANCH   1  11
TORSDOF 3
