MODEL 1
REMARK VINA RESULT:      -4.3      0.000      0.000
REMARK  Name = *****
REMARK  4 active torsions:
REMARK  status: ('A' for Active; 'I' for Inactive)
REMARK    1  A    between atoms: C_4  and  C_7
REMARK    2  A    between atoms: C_7  and  O_8
REMARK    3  A    between atoms: O_8  and  C_9
REMARK    4  A    between atoms: C_12  and  N_15
REMARK                            x       y       z     vdW  Elec       q    Type
REMARK                         _______ _______ _______ _____ _____    ______ ____
ROOT
ATOM      1  O   UNL     1      84.921  61.481  92.051  0.00  0.00    +0.000 OA
ENDROOT
BRANCH   1   2
ATOM      2  C   UNL     1      84.558  60.244  91.598  0.00  0.00    +0.000 A 
ATOM      3  C   UNL     1      83.185  60.075  91.407  0.00  0.00    +0.000 A 
ATOM      4  C   UNL     1      82.672  58.857  90.947  0.00  0.00    +0.000 A 
ATOM      5  C   UNL     1      83.527  57.783  90.673  0.00  0.00    +0.000 A 
ATOM      6  C   UNL     1      84.904  57.965  90.856  0.00  0.00    +0.000 A 
ATOM      7  C   UNL     1      85.419  59.184  91.319  0.00  0.00    +0.000 A 
BRANCH   5   8
ATOM      8  N   UNL     1      83.086  56.563  90.199  0.00  0.00    +0.000 NA
ATOM      9  O   UNL     1      83.825  55.615  90.488  0.00  0.00    +0.000 OA
ENDBRANCH   5   8
ENDBRANCH   1   2
BRANCH   1  10
ATOM     10  C   UNL     1      84.703  62.589  91.177  0.00  0.00    +0.000 C 
BRANCH  10  14
ATOM     11  C   UNL     1      88.463  63.612  89.315  0.00  0.00    +0.000 A 
ATOM     12  C   UNL     1      88.187  64.041  90.613  0.00  0.00    +0.000 A 
ATOM     13  C   UNL     1      86.969  63.717  91.212  0.00  0.00    +0.000 A 
ATOM     14  C   UNL     1      86.007  62.968  90.516  0.00  0.00    +0.000 A 
ATOM     15  C   UNL     1      86.301  62.535  89.215  0.00  0.00    +0.000 A 
ATOM     16  C   UNL     1      87.520  62.859  88.618  0.00  0.00    +0.000 A 
ENDBRANCH  10  14
ENDBRANCH   1  10
TORSDOF 4
ENDMDL
