MODEL 1
REMARK VINA RESULT:      -5.0      0.000      0.000
REMARK  Name = *****
REMARK  4 active torsions:
REMARK  status: ('A' for Active; 'I' for Inactive)
REMARK    1  A    between atoms: C_1  and  O_2
REMARK    2  A    between atoms: O_2  and  C_3
REMARK    3  A    between atoms: C_7  and  C_9
REMARK    4  A    between atoms: C_10  and  C_11
REMARK                            x       y       z     vdW  Elec       q    Type
REMARK                         _______ _______ _______ _____ _____    ______ ____
ROOT
ATOM      1  C   UNL     1     102.917 126.372  81.404  0.00  0.00    +0.000 C 
ATOM      2  C   UNL     1     101.891 126.166  82.247  0.00  0.00    +0.000 C 
ENDROOT
BRANCH   2   3
ATOM      3  C   UNL     1     100.983 127.216  82.742  0.00  0.00    +0.000 A 
ATOM      4  C   UNL     1     101.442 128.360  83.412  0.00  0.00    +0.000 A 
ATOM      5  C   UNL     1     100.545 129.345  83.839  0.00  0.00    +0.000 A 
ATOM      6  C   UNL     1      99.179 129.209  83.593  0.00  0.00    +0.000 A 
ATOM      7  C   UNL     1      98.710 128.090  82.912  0.00  0.00    +0.000 A 
ATOM      8  C   UNL     1      99.608 127.111  82.490  0.00  0.00    +0.000 A 
ATOM      9  F   UNL     1      99.121 126.049  81.827  0.00  0.00    +0.000 F 
ENDBRANCH   2   3
BRANCH   1  14
ATOM     10  C   UNL     1     104.797 123.103  81.306  0.00  0.00    +0.000 A 
ATOM     11  C   UNL     1     105.584 123.261  80.166  0.00  0.00    +0.000 A 
ATOM     12  C   UNL     1     105.503 124.438  79.420  0.00  0.00    +0.000 A 
ATOM     13  C   UNL     1     104.633 125.460  79.806  0.00  0.00    +0.000 A 
ATOM     14  C   UNL     1     103.823 125.312  80.938  0.00  0.00    +0.000 A 
ATOM     15  C   UNL     1     103.927 124.132  81.688  0.00  0.00    +0.000 A 
BRANCH  10  17
ATOM     16  C   UNL     1     104.528 120.750  81.522  0.00  0.00    +0.000 C 
ATOM     17  O   UNL     1     104.783 122.010  82.130  0.00  0.00    +0.000 OA
ENDBRANCH  10  17
ENDBRANCH   1  14
TORSDOF 3
ENDMDL
