MODEL 1
REMARK VINA RESULT:      -5.0      0.000      0.000
REMARK  Name = *****
REMARK  5 active torsions:
REMARK  status: ('A' for Active; 'I' for Inactive)
REMARK    1  A    between atoms: C_1  and  C_2
REMARK    2  A    between atoms: C_5  and  C_8
REMARK    3  A    between atoms: C_10  and  C_11
REMARK    4  A    between atoms: C_14  and  C_17
REMARK    5  A    between atoms: C_17  and  C_19
REMARK                            x       y       z     vdW  Elec       q    Type
REMARK                         _______ _______ _______ _____ _____    ______ ____
ROOT
ATOM      1  C   UNL     1      88.458  66.326  86.654  0.00  0.00    +0.000 C 
ATOM      2  C   UNL     1      89.745  65.867  86.017  0.00  0.00    +0.000 C 
ATOM      3  C   UNL     1      89.703  67.200  86.720  0.00  0.00    +0.000 C 
ENDROOT
BRANCH   1   8
ATOM      4  C   UNL     1      86.529  63.758  91.543  0.00  0.00    +0.000 C 
ATOM      5  C   UNL     1      87.005  64.397  90.274  0.00  0.00    +0.000 A 
ATOM      6  C   UNL     1      88.083  63.860  89.565  0.00  0.00    +0.000 A 
ATOM      7  C   UNL     1      88.543  64.478  88.399  0.00  0.00    +0.000 A 
ATOM      8  C   UNL     1      87.948  65.650  87.905  0.00  0.00    +0.000 A 
ATOM      9  C   UNL     1      86.884  66.190  88.642  0.00  0.00    +0.000 A 
ATOM     10  C   UNL     1      86.417  65.577  89.810  0.00  0.00    +0.000 A 
ENDBRANCH   1   8
BRANCH   3  11
ATOM     11  C   UNL     1      89.764  68.481  85.923  0.00  0.00    +0.000 A 
ATOM     12  C   UNL     1      89.618  69.734  86.541  0.00  0.00    +0.000 A 
ATOM     13  C   UNL     1      89.688  70.927  85.810  0.00  0.00    +0.000 A 
ATOM     14  C   UNL     1      89.913  70.892  84.432  0.00  0.00    +0.000 A 
ATOM     15  C   UNL     1      90.071  69.654  83.801  0.00  0.00    +0.000 A 
ATOM     16  C   UNL     1      90.000  68.468  84.540  0.00  0.00    +0.000 A 
BRANCH  14  17
ATOM     17  C   UNL     1      89.996  72.131  83.604  0.00  0.00    +0.000 C 
ATOM     18  O   UNL     1      89.671  73.215  84.086  0.00  0.00    +0.000 OA
ATOM     19  C   UNL     1      90.484  72.028  82.182  0.00  0.00    +0.000 C 
ENDBRANCH  14  17
ENDBRANCH   3  11
TORSDOF 3
ENDMDL
