MODEL 1
REMARK VINA RESULT:      -5.1      0.000      0.000
REMARK  Name = *****
REMARK  5 active torsions:
REMARK  status: ('A' for Active; 'I' for Inactive)
REMARK    1  A    between atoms: C_1  and  C_2
REMARK    2  A    between atoms: C_4  and  C_8
REMARK    3  A    between atoms: C_9  and  C_10
REMARK    4  A    between atoms: C_13  and  C_16
REMARK    5  A    between atoms: C_16  and  C_18
REMARK                            x       y       z     vdW  Elec       q    Type
REMARK                         _______ _______ _______ _____ _____    ______ ____
ROOT
ATOM      1  C   UNL     1     102.013 126.118  82.366  0.00  0.00    +0.000 C 
ATOM      2  C   UNL     1     102.880 125.333  82.090  0.00  0.00    +0.000 C 
ENDROOT
BRANCH   1   6
ATOM      3  C   UNL     1     100.649 130.448  84.384  0.00  0.00    +0.000 C 
ATOM      4  C   UNL     1     100.301 129.159  83.700  0.00  0.00    +0.000 A 
ATOM      5  C   UNL     1     101.304 128.240  83.363  0.00  0.00    +0.000 A 
ATOM      6  C   UNL     1     100.983 127.053  82.697  0.00  0.00    +0.000 A 
ATOM      7  C   UNL     1      99.657 126.784  82.352  0.00  0.00    +0.000 A 
ATOM      8  C   UNL     1      98.656 127.702  82.669  0.00  0.00    +0.000 A 
ATOM      9  C   UNL     1      98.977 128.887  83.335  0.00  0.00    +0.000 A 
ENDBRANCH   1   6
BRANCH   2  10
ATOM     10  C   UNL     1     103.912 124.399  81.763  0.00  0.00    +0.000 A 
ATOM     11  C   UNL     1     104.422 123.548  82.744  0.00  0.00    +0.000 A 
ATOM     12  C   UNL     1     105.431 122.636  82.423  0.00  0.00    +0.000 A 
ATOM     13  C   UNL     1     105.939 122.567  81.117  0.00  0.00    +0.000 A 
ATOM     14  C   UNL     1     105.423 123.422  80.136  0.00  0.00    +0.000 A 
ATOM     15  C   UNL     1     104.412 124.335  80.461  0.00  0.00    +0.000 A 
BRANCH  13  16
ATOM     16  C   UNL     1     107.016 121.575  80.824  0.00  0.00    +0.000 C 
ATOM     17  O   UNL     1     107.915 121.862  80.035  0.00  0.00    +0.000 OA
ATOM     18  C   UNL     1     106.979 120.233  81.506  0.00  0.00    +0.000 C 
ENDBRANCH  13  16
ENDBRANCH   2  10
TORSDOF 3
ENDMDL
