REMARK  Name = *****
REMARK  4 active torsions:
REMARK  status: ('A' for Active; 'I' for Inactive)
REMARK    1  A    between atoms: C_1  and  C_2
REMARK    2  A    between atoms: C_2  and  C_7
REMARK    3  A    between atoms: C_7  and  C_8
REMARK    4  A    between atoms: C_8  and  C_9
REMARK                            x       y       z     vdW  Elec       q    Type
REMARK                         _______ _______ _______ _____ _____    ______ ____
ROOT
ATOM      1  C   UNL     1       3.024   0.161   1.444  0.00  0.00    +0.000 C 
ENDROOT
BRANCH   1   3
ATOM      2  C   UNL     1       3.102   1.371  -0.790  0.00  0.00    +0.000 C 
ATOM      3  C   UNL     1       2.579   0.128  -0.036  0.00  0.00    +0.000 C 
ATOM      4  C   UNL     1       3.033  -1.163  -0.762  0.00  0.00    +0.000 C 
ATOM      5  C   UNL     1       1.888  -1.460  -1.676  0.00  0.00    +0.000 C 
ATOM      6  C   UNL     1       0.791  -0.777  -1.333  0.00  0.00    +0.000 C 
ATOM      7  C   UNL     1       1.031   0.086  -0.134  0.00  0.00    +0.000 C 
ENDBRANCH   1   3
BRANCH   1   8
ATOM      8  C   UNL     1       4.543   0.135   1.659  0.00  0.00    +0.000 C 
BRANCH   8   9
ATOM      9  C   UNL     1       4.890   0.091   3.128  0.00  0.00    +0.000 A 
ATOM     10  C   UNL     1       5.014  -1.137   3.792  0.00  0.00    +0.000 A 
ATOM     11  C   UNL     1       5.317  -1.177   5.154  0.00  0.00    +0.000 A 
ATOM     12  C   UNL     1       5.495   0.009   5.864  0.00  0.00    +0.000 A 
ATOM     13  C   UNL     1       5.367   1.235   5.215  0.00  0.00    +0.000 A 
ATOM     14  C   UNL     1       5.064   1.277   3.853  0.00  0.00    +0.000 A 
ENDBRANCH   8   9
ENDBRANCH   1   8
TORSDOF 3
