MODEL 1
REMARK VINA RESULT:      -4.9      0.000      0.000
REMARK  Name = *****
REMARK  5 active torsions:
REMARK  status: ('A' for Active; 'I' for Inactive)
REMARK    1  A    between atoms: C_1  and  C_2
REMARK    2  A    between atoms: C_2  and  C_3
REMARK    3  A    between atoms: C_3  and  C_4
REMARK    4  A    between atoms: C_3  and  C_11
REMARK    5  A    between atoms: C_4  and  C_5
REMARK                            x       y       z     vdW  Elec       q    Type
REMARK                         _______ _______ _______ _____ _____    ______ ____
ROOT
ATOM      1  C   UNL     1     102.928 126.589  81.264  0.00  0.00    +0.000 C 
ENDROOT
BRANCH   1   2
ATOM      2  C   UNL     1     103.629 125.245  81.436  0.00  0.00    +0.000 A 
ATOM      3  C   UNL     1     103.676 124.657  82.711  0.00  0.00    +0.000 A 
ATOM      4  C   UNL     1     104.302 123.425  82.911  0.00  0.00    +0.000 A 
ATOM      5  C   UNL     1     104.888 122.760  81.838  0.00  0.00    +0.000 A 
ATOM      6  C   UNL     1     104.847 123.325  80.567  0.00  0.00    +0.000 A 
ATOM      7  C   UNL     1     104.220 124.558  80.366  0.00  0.00    +0.000 A 
ENDBRANCH   1   2
BRANCH   1   9
ATOM      8  C   UNL     1     104.518 128.596  80.782  0.00  0.00    +0.000 C 
ATOM      9  C   UNL     1     103.650 127.476  80.222  0.00  0.00    +0.000 C 
ENDBRANCH   1   9
BRANCH   1  10
ATOM     10  C   UNL     1     102.647 127.348  82.583  0.00  0.00    +0.000 C 
BRANCH  10  11
ATOM     11  C   UNL     1     101.175 127.600  82.829  0.00  0.00    +0.000 A 
ATOM     12  C   UNL     1     100.750 128.738  83.526  0.00  0.00    +0.000 A 
ATOM     13  C   UNL     1      99.392 128.959  83.760  0.00  0.00    +0.000 A 
ATOM     14  C   UNL     1      98.446 128.044  83.303  0.00  0.00    +0.000 A 
ATOM     15  C   UNL     1      98.857 126.906  82.612  0.00  0.00    +0.000 A 
ATOM     16  C   UNL     1     100.215 126.684  82.376  0.00  0.00    +0.000 A 
ENDBRANCH  10  11
ENDBRANCH   1  10
TORSDOF 4
ENDMDL
