MODEL 1
REMARK VINA RESULT:      -4.9      0.000      0.000
REMARK  Name = *****
REMARK  2 active torsions:
REMARK  status: ('A' for Active; 'I' for Inactive)
REMARK    1  A    between atoms: C_4  and  C_7
REMARK    2  A    between atoms: C_8  and  C_9
REMARK                            x       y       z     vdW  Elec       q    Type
REMARK                         _______ _______ _______ _____ _____    ______ ____
ROOT
ATOM      1  C   UNL     1     101.951 125.834  82.641  0.00  0.00    +0.000 C 
ATOM      2  C   UNL     1     102.964 125.857  81.758  0.00  0.00    +0.000 C 
ATOM      3 BR   UNL     1     103.389 127.302  80.648  0.00  0.00    +0.000 Br
ENDROOT
BRANCH   1   7
ATOM      4  C   UNL     1      99.236 129.044  83.336  0.00  0.00    +0.000 A 
ATOM      5  C   UNL     1     100.554 129.134  83.784  0.00  0.00    +0.000 A 
ATOM      6  C   UNL     1     101.443 128.083  83.557  0.00  0.00    +0.000 A 
ATOM      7  C   UNL     1     101.016 126.936  82.879  0.00  0.00    +0.000 A 
ATOM      8  C   UNL     1      99.693 126.850  82.432  0.00  0.00    +0.000 A 
ATOM      9  C   UNL     1      98.806 127.902  82.661  0.00  0.00    +0.000 A 
ENDBRANCH   1   7
BRANCH   2  10
ATOM     10  C   UNL     1     103.818 124.667  81.635  0.00  0.00    +0.000 A 
ATOM     11  C   UNL     1     104.069 123.858  82.752  0.00  0.00    +0.000 A 
ATOM     12  C   UNL     1     104.892 122.735  82.637  0.00  0.00    +0.000 A 
ATOM     13  C   UNL     1     105.469 122.415  81.408  0.00  0.00    +0.000 A 
ATOM     14  C   UNL     1     105.225 123.216  80.292  0.00  0.00    +0.000 A 
ATOM     15  C   UNL     1     104.403 124.339  80.404  0.00  0.00    +0.000 A 
ENDBRANCH   2  10
TORSDOF 2
ENDMDL
