MODEL 1
REMARK VINA RESULT:      -4.3      0.000      0.000
REMARK  Name = *****
REMARK  5 active torsions:
REMARK  status: ('A' for Active; 'I' for Inactive)
REMARK    1  A    between atoms: C_1  and  O_2
REMARK    2  A    between atoms: O_2  and  C_3
REMARK    3  A    between atoms: C_6  and  C_9
REMARK    4  A    between atoms: C_9  and  S_11
REMARK    5  A    between atoms: S_11  and  C_12
REMARK                            x       y       z     vdW  Elec       q    Type
REMARK                         _______ _______ _______ _____ _____    ______ ____
ROOT
ATOM      1  C   UNL     1      87.855  70.786  85.735  0.00  0.00    +0.000 C 
ATOM      2  O   UNL     1      87.956  70.612  84.525  0.00  0.00    +0.000 OA
ENDROOT
BRANCH   1   6
ATOM      3  C   UNL     1      84.211  72.469  87.313  0.00  0.00    +0.000 A 
ATOM      4  C   UNL     1      85.150  71.932  88.194  0.00  0.00    +0.000 A 
ATOM      5  C   UNL     1      86.342  71.376  87.707  0.00  0.00    +0.000 A 
ATOM      6  C   UNL     1      86.609  71.353  86.330  0.00  0.00    +0.000 A 
ATOM      7  C   UNL     1      85.657  71.889  85.453  0.00  0.00    +0.000 A 
ATOM      8  C   UNL     1      84.471  72.442  85.943  0.00  0.00    +0.000 A 
BRANCH   3  10
ATOM      9  C   UNL     1      82.247  73.611  86.608  0.00  0.00    +0.000 C 
ATOM     10  O   UNL     1      83.017  73.037  87.658  0.00  0.00    +0.000 OA
ENDBRANCH   3  10
ENDBRANCH   1   6
BRANCH   1  11
ATOM     11  S   UNL     1      89.199  70.385  86.801  0.00  0.00    +0.000 S 
BRANCH  11  12
ATOM     12  C   UNL     1      89.093  68.605  86.772  0.00  0.00    +0.000 A 
ATOM     13  C   UNL     1      90.126  67.867  86.188  0.00  0.00    +0.000 A 
ATOM     14  C   UNL     1      90.055  66.473  86.163  0.00  0.00    +0.000 A 
ATOM     15  C   UNL     1      88.966  65.807  86.723  0.00  0.00    +0.000 A 
ATOM     16  C   UNL     1      87.939  66.541  87.317  0.00  0.00    +0.000 A 
ATOM     17  C   UNL     1      88.005  67.936  87.344  0.00  0.00    +0.000 A 
ATOM     18 CL   UNL     1      91.324  65.568  85.433  0.00  0.00    +0.000 Cl
ENDBRANCH  11  12
ENDBRANCH   1  11
TORSDOF 4
ENDMDL
