MODEL 1
REMARK VINA RESULT:      -4.8      0.000      0.000
REMARK  Name = *****
REMARK  4 active torsions:
REMARK  status: ('A' for Active; 'I' for Inactive)
REMARK    1  A    between atoms: C_1  and  N_2
REMARK    2  A    between atoms: N_2  and  C_3
REMARK    3  A    between atoms: N_2  and  N_4
REMARK    4  A    between atoms: C_10  and  C_13
REMARK                            x       y       z     vdW  Elec       q    Type
REMARK                         _______ _______ _______ _____ _____    ______ ____
ROOT
ATOM      1  N   UNL     1     104.895 122.619  82.234  0.00  0.00    +0.000 N 
ATOM      2  C   UNL     1     105.748 122.135  81.275  0.00  0.00    +0.000 A 
ATOM      3  C   UNL     1     105.719 122.999  80.203  0.00  0.00    +0.000 A 
ATOM      4  C   UNL     1     104.825 124.056  80.527  0.00  0.00    +0.000 A 
ATOM      5  C   UNL     1     104.318 123.796  81.801  0.00  0.00    +0.000 A 
ATOM      6  C   UNL     1     103.399 124.656  82.430  0.00  0.00    +0.000 A 
ATOM      7  C   UNL     1     102.980 125.822  81.762  0.00  0.00    +0.000 A 
ATOM      8  C   UNL     1     103.491 126.081  80.480  0.00  0.00    +0.000 A 
ATOM      9  C   UNL     1     104.401 125.215  79.854  0.00  0.00    +0.000 A 
ENDROOT
BRANCH   7  10
ATOM     10  C   UNL     1     102.034 126.756  82.403  0.00  0.00    +0.000 A 
ATOM     11  C   UNL     1     102.492 127.900  83.082  0.00  0.00    +0.000 A 
ATOM     12  C   UNL     1     101.599 128.790  83.686  0.00  0.00    +0.000 A 
ATOM     13  C   UNL     1     100.229 128.553  83.621  0.00  0.00    +0.000 A 
ATOM     14  C   UNL     1      99.752 127.427  82.954  0.00  0.00    +0.000 A 
ATOM     15  C   UNL     1     100.647 126.538  82.352  0.00  0.00    +0.000 A 
ENDBRANCH   7  10
BRANCH   1  17
ATOM     16  C   UNL     1     104.048 120.704  83.413  0.00  0.00    +0.000 C 
ATOM     17  N   UNL     1     104.640 122.032  83.522  0.00  0.00    +0.000 N 
ATOM     18  C   UNL     1     105.837 122.035  84.355  0.00  0.00    +0.000 C 
ENDBRANCH   1  17
TORSDOF 2
ENDMDL
