MODEL 1
REMARK VINA RESULT:      -4.5      0.000      0.000
REMARK  Name = *****
REMARK  2 active torsions:
REMARK  status: ('A' for Active; 'I' for Inactive)
REMARK    1  A    between atoms: C_4  and  C_7
REMARK    2  A    between atoms: C_8  and  C_9
REMARK                            x       y       z     vdW  Elec       q    Type
REMARK                         _______ _______ _______ _____ _____    ______ ____
ROOT
ATOM      1  C   UNL     1     101.894 125.947  82.457  0.00  0.00    +0.000 C 
ATOM      2  C   UNL     1     102.820 125.995  81.488  0.00  0.00    +0.000 C 
ATOM      3  F   UNL     1     102.895 127.082  80.684  0.00  0.00    +0.000 F 
ENDROOT
BRANCH   1   7
ATOM      4  C   UNL     1      99.065 129.030  83.354  0.00  0.00    +0.000 A 
ATOM      5  C   UNL     1      98.635 127.870  82.714  0.00  0.00    +0.000 A 
ATOM      6  C   UNL     1      99.549 126.859  82.407  0.00  0.00    +0.000 A 
ATOM      7  C   UNL     1     100.905 127.003  82.725  0.00  0.00    +0.000 A 
ATOM      8  C   UNL     1     101.323 128.168  83.384  0.00  0.00    +0.000 A 
ATOM      9  C   UNL     1     100.408 129.179  83.691  0.00  0.00    +0.000 A 
ENDBRANCH   1   7
BRANCH   2  10
ATOM     10  C   UNL     1     103.765 124.949  81.264  0.00  0.00    +0.000 A 
ATOM     11  C   UNL     1     104.460 124.581  80.118  0.00  0.00    +0.000 A 
ATOM     12  C   UNL     1     105.322 123.462  80.310  0.00  0.00    +0.000 A 
ATOM     13  C   UNL     1     105.274 122.994  81.601  0.00  0.00    +0.000 A 
ATOM     14  S   UNL     1     104.201 123.901  82.569  0.00  0.00    +0.000 S 
ENDBRANCH   2  10
TORSDOF 2
ENDMDL
