MODEL 1
REMARK VINA RESULT:      -4.5      0.000      0.000
REMARK  Name = *****
REMARK  2 active torsions:
REMARK  status: ('A' for Active; 'I' for Inactive)
REMARK    1  A    between atoms: C_7  and  C_8
REMARK    2  A    between atoms: C_9  and  C_10
REMARK                            x       y       z     vdW  Elec       q    Type
REMARK                         _______ _______ _______ _____ _____    ______ ____
ROOT
ATOM      1  C   UNL     1     103.087 125.537  81.171  0.00  0.00    +0.000 C 
ATOM      2  C   UNL     1     102.314 126.240  81.761  0.00  0.00    +0.000 C 
ENDROOT
BRANCH   1   9
ATOM      3  C   UNL     1     106.526 123.194  80.029  0.00  0.00    +0.000 C 
ATOM      4  C   UNL     1     105.223 122.471  80.404  0.00  0.00    +0.000 C 
ATOM      5  C   UNL     1     104.514 123.490  81.316  0.00  0.00    +0.000 C 
ATOM      6  C   UNL     1     105.703 124.091  82.073  0.00  0.00    +0.000 C 
ATOM      7  C   UNL     1     106.418 124.523  80.795  0.00  0.00    +0.000 C 
ATOM      8  C   UNL     1     105.352 125.407  80.120  0.00  0.00    +0.000 C 
ATOM      9  C   UNL     1     104.033 124.674  80.443  0.00  0.00    +0.000 C 
ENDBRANCH   1   9
BRANCH   2  10
ATOM     10  C   UNL     1     101.389 127.080  82.460  0.00  0.00    +0.000 A 
ATOM     11  C   UNL     1     101.851 128.192  83.168  0.00  0.00    +0.000 A 
ATOM     12  C   UNL     1     100.949 129.009  83.851  0.00  0.00    +0.000 A 
ATOM     13  C   UNL     1      99.585 128.715  83.829  0.00  0.00    +0.000 A 
ATOM     14  C   UNL     1      99.123 127.605  83.123  0.00  0.00    +0.000 A 
ATOM     15  C   UNL     1     100.024 126.787  82.439  0.00  0.00    +0.000 A 
ENDBRANCH   2  10
TORSDOF 2
ENDMDL
