MODEL 1
REMARK VINA RESULT:      -4.4      0.000      0.000
REMARK  Name = *****
REMARK  3 active torsions:
REMARK  status: ('A' for Active; 'I' for Inactive)
REMARK    1  A    between atoms: C_4  and  O_7
REMARK    2  A    between atoms: O_7  and  C_8
REMARK    3  A    between atoms: C_8  and  C_11
REMARK                            x       y       z     vdW  Elec       q    Type
REMARK                         _______ _______ _______ _____ _____    ______ ____
ROOT
ATOM      1  C   UNL     1     103.190 126.145  83.594  0.00  0.00    +0.000 C 
ATOM      2  C   UNL     1     103.340 125.965  84.915  0.00  0.00    +0.000 C 
ATOM      3 CL   UNL     1     102.900 127.109  86.115  0.00  0.00    +0.000 Cl
ENDROOT
BRANCH   1   4
ATOM      4  C   UNL     1     103.695 125.153  82.623  0.00  0.00    +0.000 A 
ATOM      5  C   UNL     1     103.777 125.449  81.252  0.00  0.00    +0.000 A 
ATOM      6  C   UNL     1     104.266 124.502  80.349  0.00  0.00    +0.000 A 
ATOM      7  C   UNL     1     104.678 123.258  80.814  0.00  0.00    +0.000 A 
ATOM      8  C   UNL     1     104.614 122.945  82.165  0.00  0.00    +0.000 A 
ATOM      9  C   UNL     1     104.128 123.893  83.070  0.00  0.00    +0.000 A 
ATOM     10  F   UNL     1     105.144 122.351  79.947  0.00  0.00    +0.000 F 
ENDBRANCH   1   4
BRANCH   1  11
ATOM     11  O   UNL     1     102.704 127.316  83.032  0.00  0.00    +0.000 OA
BRANCH  11  15
ATOM     12  C   UNL     1      98.619 128.151  82.963  0.00  0.00    +0.000 A 
ATOM     13  C   UNL     1      99.537 129.047  83.509  0.00  0.00    +0.000 A 
ATOM     14  C   UNL     1     100.897 128.733  83.515  0.00  0.00    +0.000 A 
ATOM     15  C   UNL     1     101.343 127.520  82.986  0.00  0.00    +0.000 A 
ATOM     16  C   UNL     1     100.422 126.630  82.425  0.00  0.00    +0.000 A 
ATOM     17  C   UNL     1      99.062 126.945  82.421  0.00  0.00    +0.000 A 
ENDBRANCH  11  15
ENDBRANCH   1  11
TORSDOF 3
ENDMDL
