MODEL 1
REMARK VINA RESULT:      -5.3      0.000      0.000
REMARK  Name = *****
REMARK  1 active torsions:
REMARK  status: ('A' for Active; 'I' for Inactive)
REMARK    1  A    between atoms: C_6  and  C_12
REMARK                            x       y       z     vdW  Elec       q    Type
REMARK                         _______ _______ _______ _____ _____    ______ ____
ROOT
ATOM      1  C   UNL     1     105.562 122.380  80.998  0.00  0.00    +0.000 C 
ATOM      2  C   UNL     1     105.466 123.603  80.095  0.00  0.00    +0.000 C 
ATOM      3  C   UNL     1     104.212 124.450  80.308  0.00  0.00    +0.000 C 
ATOM      4  C   UNL     1     104.326 125.413  81.494  0.00  0.00    +0.000 C 
ATOM      5  C   UNL     1     103.178 126.385  81.478  0.00  0.00    +0.000 C 
ATOM      6  C   UNL     1     102.362 126.355  82.541  0.00  0.00    +0.000 C 
ATOM      7  C   UNL     1     102.950 125.328  83.437  0.00  0.00    +0.000 C 
ATOM      8  O   UNL     1     102.450 124.970  84.495  0.00  0.00    +0.000 OA
ATOM      9  C   UNL     1     104.267 124.805  82.902  0.00  0.00    +0.000 C 
ATOM     10  C   UNL     1     104.350 123.290  83.046  0.00  0.00    +0.000 C 
ATOM     11  C   UNL     1     105.636 122.691  82.487  0.00  0.00    +0.000 C 
ENDROOT
BRANCH   6  12
ATOM     12  C   UNL     1     101.173 127.177  82.781  0.00  0.00    +0.000 A 
ATOM     13  C   UNL     1      99.899 126.739  82.384  0.00  0.00    +0.000 A 
ATOM     14  C   UNL     1      98.763 127.523  82.611  0.00  0.00    +0.000 A 
ATOM     15  C   UNL     1      98.882 128.756  83.244  0.00  0.00    +0.000 A 
ATOM     16  C   UNL     1     100.135 129.205  83.652  0.00  0.00    +0.000 A 
ATOM     17  C   UNL     1     101.270 128.421  83.422  0.00  0.00    +0.000 A 
ENDBRANCH   6  12
TORSDOF 1
ENDMDL
