MODEL 1
REMARK VINA RESULT:      -4.4      0.000      0.000
REMARK  Name = *****
REMARK  3 active torsions:
REMARK  status: ('A' for Active; 'I' for Inactive)
REMARK    1  A    between atoms: C_4  and  C_7
REMARK    2  A    between atoms: C_7  and  O_8
REMARK    3  A    between atoms: O_8  and  C_9
REMARK                            x       y       z     vdW  Elec       q    Type
REMARK                         _______ _______ _______ _____ _____    ______ ____
ROOT
ATOM      1  O   UNL     1     103.420 127.185  83.045  0.00  0.00    +0.000 OA
ENDROOT
BRANCH   1   2
ATOM      2  C   UNL     1     103.718 126.032  82.372  0.00  0.00    +0.000 A 
ATOM      3  C   UNL     1     103.794 125.962  80.976  0.00  0.00    +0.000 A 
ATOM      4  C   UNL     1     104.144 124.760  80.357  0.00  0.00    +0.000 A 
ATOM      5  C   UNL     1     104.432 123.642  81.139  0.00  0.00    +0.000 A 
ATOM      6  C   UNL     1     104.380 123.714  82.531  0.00  0.00    +0.000 A 
ATOM      7  C   UNL     1     104.030 124.915  83.149  0.00  0.00    +0.000 A 
ATOM      8 CL   UNL     1     104.866 122.161  80.380  0.00  0.00    +0.000 Cl
ATOM      9 CL   UNL     1     103.484 127.336  79.978  0.00  0.00    +0.000 Cl
ENDBRANCH   1   2
BRANCH   1  10
ATOM     10  C   UNL     1     102.457 126.966  84.088  0.00  0.00    +0.000 C 
BRANCH  10  14
ATOM     11  C   UNL     1      98.577 128.263  82.697  0.00  0.00    +0.000 A 
ATOM     12  C   UNL     1      99.375 129.133  83.438  0.00  0.00    +0.000 A 
ATOM     13  C   UNL     1     100.626 128.714  83.897  0.00  0.00    +0.000 A 
ATOM     14  C   UNL     1     101.089 127.418  83.629  0.00  0.00    +0.000 A 
ATOM     15  C   UNL     1     100.282 126.556  82.870  0.00  0.00    +0.000 A 
ATOM     16  C   UNL     1      99.031 126.977  82.410  0.00  0.00    +0.000 A 
ENDBRANCH  10  14
ENDBRANCH   1  10
TORSDOF 3
ENDMDL
