MODEL 1
REMARK VINA RESULT:      -4.3      0.000      0.000
REMARK  Name = *****
REMARK  5 active torsions:
REMARK  status: ('A' for Active; 'I' for Inactive)
REMARK    1  A    between atoms: C_1  and  C_2
REMARK    2  A    between atoms: C_5  and  S_8
REMARK    3  A    between atoms: S_8  and  O_10
REMARK    4  A    between atoms: O_10  and  C_11
REMARK    5  A    between atoms: C_11  and  C_18
REMARK                            x       y       z     vdW  Elec       q    Type
REMARK                         _______ _______ _______ _____ _____    ______ ____
ROOT
ATOM      1  S   UNL     1      87.858  70.392  87.732  0.00  0.00    +0.000 S 
ATOM      2  O   UNL     1      87.514  69.369  88.774  0.00  0.00    +0.000 OA
ENDROOT
BRANCH   1   7
ATOM      3  C   UNL     1      82.669  73.395  86.491  0.00  0.00    +0.000 C 
ATOM      4  C   UNL     1      83.953  72.682  86.805  0.00  0.00    +0.000 A 
ATOM      5  C   UNL     1      84.793  72.253  85.771  0.00  0.00    +0.000 A 
ATOM      6  C   UNL     1      85.972  71.560  86.058  0.00  0.00    +0.000 A 
ATOM      7  C   UNL     1      86.321  71.281  87.384  0.00  0.00    +0.000 A 
ATOM      8  C   UNL     1      85.477  71.698  88.418  0.00  0.00    +0.000 A 
ATOM      9  C   UNL     1      84.297  72.388  88.130  0.00  0.00    +0.000 A 
ENDBRANCH   1   7
BRANCH   1  10
ATOM     10  O   UNL     1      87.836  69.655  86.298  0.00  0.00    +0.000 OA
BRANCH  10  11
ATOM     11  C   UNL     1      89.080  69.437  85.610  0.00  0.00    +0.000 C 
ATOM     12  C   UNL     1      89.847  70.787  85.694  0.00  0.00    +0.000 C 
ATOM     13  C   UNL     1      89.459  71.758  84.572  0.00  0.00    +0.000 C 
ATOM     14  C   UNL     1      89.206  70.987  83.272  0.00  0.00    +0.000 C 
ATOM     15  C   UNL     1      87.929  70.112  83.378  0.00  0.00    +0.000 C 
ATOM     16  C   UNL     1      88.853  69.093  84.121  0.00  0.00    +0.000 C 
ATOM     17  C   UNL     1      89.965  69.627  83.154  0.00  0.00    +0.000 C 
ATOM     18  C   UNL     1      89.928  68.352  86.292  0.00  0.00    +0.000 C 
ENDBRANCH  10  11
ENDBRANCH   1  10
TORSDOF 3
ENDMDL
