MODEL 1
REMARK VINA RESULT:      -4.2      0.000      0.000
REMARK  Name = *****
REMARK  5 active torsions:
REMARK  status: ('A' for Active; 'I' for Inactive)
REMARK    1  A    between atoms: C_4  and  N_7
REMARK    2  A    between atoms: N_7  and  C_8
REMARK    3  A    between atoms: C_8  and  C_10
REMARK    4  A    between atoms: C_10  and  C_11
REMARK    5  A    between atoms: C_11  and  C_12
REMARK                            x       y       z     vdW  Elec       q    Type
REMARK                         _______ _______ _______ _____ _____    ______ ____
ROOT
ATOM      1  C   UNL     1      89.483  64.492  86.170  0.00  0.00    +0.000 C 
ATOM      2  S   UNL     1      89.396  63.762  84.667  0.00  0.00    +0.000 S 
ENDROOT
BRANCH   1   3
ATOM      3  N   UNL     1      89.193  63.866  87.376  0.00  0.00    +0.000 N 
ATOM      4  H   UNL     1      89.452  62.919  87.450  0.00  0.00    +0.000 HD
BRANCH   3   8
ATOM      5  C   UNL     1      86.609  64.289  90.787  0.00  0.00    +0.000 C 
ATOM      6  C   UNL     1      88.111  64.177  91.030  0.00  0.00    +0.000 C 
ATOM      7  C   UNL     1      88.840  63.629  89.807  0.00  0.00    +0.000 C 
ATOM      8  C   UNL     1      88.541  64.458  88.550  0.00  0.00    +0.000 C 
ATOM      9  C   UNL     1      87.028  64.556  88.312  0.00  0.00    +0.000 C 
ATOM     10  C   UNL     1      86.301  65.106  89.536  0.00  0.00    +0.000 C 
ENDBRANCH   3   8
ENDBRANCH   1   3
BRANCH   1  11
ATOM     11  C   UNL     1      89.871  65.957  86.380  0.00  0.00    +0.000 C 
BRANCH  11  12
ATOM     12  C   UNL     1      88.981  67.031  85.752  0.00  0.00    +0.000 C 
BRANCH  12  13
ATOM     13  C   UNL     1      88.727  68.164  86.719  0.00  0.00    +0.000 A 
ATOM     14  C   UNL     1      87.665  68.093  87.633  0.00  0.00    +0.000 A 
ATOM     15  C   UNL     1      87.418  69.148  88.511  0.00  0.00    +0.000 A 
ATOM     16  C   UNL     1      88.224  70.284  88.483  0.00  0.00    +0.000 A 
ATOM     17  C   UNL     1      89.279  70.367  87.576  0.00  0.00    +0.000 A 
ATOM     18  C   UNL     1      89.529  69.312  86.697  0.00  0.00    +0.000 A 
ENDBRANCH  12  13
ENDBRANCH  11  12
ENDBRANCH   1  11
TORSDOF 5
ENDMDL
