MODEL 1
REMARK VINA RESULT:      -4.8      0.000      0.000
REMARK  Name = *****
REMARK  3 active torsions:
REMARK  status: ('A' for Active; 'I' for Inactive)
REMARK    1  A    between atoms: C_5  and  N_7
REMARK    2  A    between atoms: N_7  and  C_8
REMARK    3  A    between atoms: C_8  and  C_9
REMARK                            x       y       z     vdW  Elec       q    Type
REMARK                         _______ _______ _______ _____ _____    ______ ____
ROOT
ATOM      1  C   UNL     1     103.169 125.861  82.824  0.00  0.00    +0.000 A 
ATOM      2  C   UNL     1     103.246 126.843  81.837  0.00  0.00    +0.000 A 
ATOM      3  C   UNL     1     103.747 126.533  80.577  0.00  0.00    +0.000 A 
ATOM      4  C   UNL     1     104.192 125.247  80.304  0.00  0.00    +0.000 A 
ATOM      5  C   UNL     1     104.149 124.272  81.292  0.00  0.00    +0.000 A 
ATOM      6  C   UNL     1     103.649 124.579  82.553  0.00  0.00    +0.000 A 
ATOM      7  F   UNL     1     103.665 123.644  83.513  0.00  0.00    +0.000 F 
ATOM      8  F   UNL     1     104.602 123.037  81.036  0.00  0.00    +0.000 F 
ATOM      9  F   UNL     1     104.677 124.949  79.090  0.00  0.00    +0.000 F 
ATOM     10  F   UNL     1     103.805 127.478  79.629  0.00  0.00    +0.000 F 
ATOM     11  F   UNL     1     102.826 128.090  82.093  0.00  0.00    +0.000 F 
ENDROOT
BRANCH   1  12
ATOM     12  C   UNL     1     102.661 126.243  84.142  0.00  0.00    +0.000 C 
BRANCH  12  13
ATOM     13  N   UNL     1     101.402 126.343  84.506  0.00  0.00    +0.000 N 
ATOM     14  O   UNL     1     100.868 125.383  85.153  0.00  0.00    +0.000 OA
BRANCH  13  19
ATOM     15  C   UNL     1     100.002 129.797  84.652  0.00  0.00    +0.000 A 
ATOM     16  C   UNL     1      99.116 129.776  83.572  0.00  0.00    +0.000 A 
ATOM     17  C   UNL     1      98.982 128.623  82.796  0.00  0.00    +0.000 A 
ATOM     18  C   UNL     1      99.731 127.494  83.108  0.00  0.00    +0.000 A 
ATOM     19  C   UNL     1     100.595 127.502  84.199  0.00  0.00    +0.000 A 
ATOM     20  C   UNL     1     100.752 128.663  84.964  0.00  0.00    +0.000 A 
ATOM     21  F   UNL     1      99.594 126.397  82.350  0.00  0.00    +0.000 F 
ENDBRANCH  13  19
ENDBRANCH  12  13
ENDBRANCH   1  12
TORSDOF 3
ENDMDL
