MODEL 1
REMARK VINA RESULT:      -5.0      0.000      0.000
REMARK  Name = *****
REMARK  5 active torsions:
REMARK  status: ('A' for Active; 'I' for Inactive)
REMARK    1  A    between atoms: C_1  and  C_2
REMARK    2  A    between atoms: C_4  and  C_17
REMARK    3  A    between atoms: C_6  and  C_8
REMARK    4  A    between atoms: C_8  and  C_9
REMARK    5  A    between atoms: C_9  and  C_11
REMARK                            x       y       z     vdW  Elec       q    Type
REMARK                         _______ _______ _______ _____ _____    ______ ____
ROOT
ATOM      1  C   UNL     1      88.976  70.185  86.741  0.00  0.00    +0.000 C 
ENDROOT
BRANCH   1   7
ATOM      2  C   UNL     1      91.157  65.847  85.441  0.00  0.00    +0.000 C 
ATOM      3  C   UNL     1      90.066  66.572  86.172  0.00  0.00    +0.000 A 
ATOM      4  C   UNL     1      89.064  65.868  86.846  0.00  0.00    +0.000 A 
ATOM      5  C   UNL     1      88.029  66.548  87.498  0.00  0.00    +0.000 A 
ATOM      6  C   UNL     1      88.006  67.948  87.475  0.00  0.00    +0.000 A 
ATOM      7  C   UNL     1      89.014  68.677  86.826  0.00  0.00    +0.000 A 
ATOM      8  C   UNL     1      90.032  67.974  86.166  0.00  0.00    +0.000 A 
ATOM      9  C   UNL     1      86.941  65.798  88.210  0.00  0.00    +0.000 C 
ENDBRANCH   1   7
BRANCH   1  10
ATOM     10  C   UNL     1      87.912  70.752  85.819  0.00  0.00    +0.000 C 
ATOM     11  O   UNL     1      88.069  70.751  84.597  0.00  0.00    +0.000 OA
BRANCH  10  12
ATOM     12  C   UNL     1      86.657  71.331  86.390  0.00  0.00    +0.000 A 
ATOM     13  C   UNL     1      85.634  71.857  85.595  0.00  0.00    +0.000 A 
ATOM     14  C   UNL     1      84.477  72.371  86.190  0.00  0.00    +0.000 A 
ATOM     15  C   UNL     1      84.339  72.368  87.577  0.00  0.00    +0.000 A 
ATOM     16  C   UNL     1      85.358  71.856  88.377  0.00  0.00    +0.000 A 
ATOM     17  C   UNL     1      86.513  71.341  87.786  0.00  0.00    +0.000 A 
ENDBRANCH  10  12
ENDBRANCH   1  10
TORSDOF 3
ENDMDL
