REMARK  Name = *****
REMARK  3 active torsions:
REMARK  status: ('A' for Active; 'I' for Inactive)
REMARK    1  A    between atoms: C_4  and  C_6
REMARK    2  A    between atoms: C_6  and  O_8
REMARK    3  A    between atoms: O_8  and  C_9
REMARK                            x       y       z     vdW  Elec       q    Type
REMARK                         _______ _______ _______ _____ _____    ______ ____
ROOT
ATOM      1  O   UNL     1      -2.569   2.099   1.081  0.00  0.00    +0.000 OA
ENDROOT
BRANCH   1   2
ATOM      2  C   UNL     1      -3.416   2.375   2.161  0.00  0.00    +0.000 A 
ATOM      3  C   UNL     1      -2.955   3.100   3.267  0.00  0.00    +0.000 A 
ATOM      4  C   UNL     1      -3.850   3.376   4.307  0.00  0.00    +0.000 A 
ATOM      5  C   UNL     1      -5.181   2.944   4.224  0.00  0.00    +0.000 A 
ATOM      6  C   UNL     1      -5.629   2.240   3.104  0.00  0.00    +0.000 A 
ATOM      7  C   UNL     1      -4.747   1.959   2.064  0.00  0.00    +0.000 A 
ATOM      8 CL   UNL     1      -3.387   4.258   5.721  0.00  0.00    +0.000 Cl
ATOM      9 CL   UNL     1      -1.312   3.645   3.310  0.00  0.00    +0.000 Cl
ENDBRANCH   1   2
BRANCH   1  10
ATOM     10  C   UNL     1      -1.908   0.881   1.223  0.00  0.00    +0.000 C 
ATOM     11  O   UNL     1      -2.033   0.098   2.155  0.00  0.00    +0.000 OA
BRANCH  10  15
ATOM     12  C   UNL     1       1.180  -0.050   0.805  0.00  0.00    +0.000 C 
ATOM     13  C   UNL     1       0.673  -1.106  -0.162  0.00  0.00    +0.000 C 
ATOM     14  C   UNL     1      -0.809  -0.789  -0.340  0.00  0.00    +0.000 C 
ATOM     15  C   UNL     1      -0.977   0.691   0.035  0.00  0.00    +0.000 C 
ATOM     16  C   UNL     1       0.424   1.199   0.378  0.00  0.00    +0.000 C 
ENDBRANCH  10  15
ENDBRANCH   1  10
TORSDOF 3
