MODEL 1
REMARK VINA RESULT:      -4.6      0.000      0.000
REMARK  Name = *****
REMARK  3 active torsions:
REMARK  status: ('A' for Active; 'I' for Inactive)
REMARK    1  A    between atoms: C_3  and  C_17
REMARK    2  A    between atoms: C_6  and  C_7
REMARK    3  A    between atoms: C_8  and  C_9
REMARK                            x       y       z     vdW  Elec       q    Type
REMARK                         _______ _______ _______ _____ _____    ______ ____
ROOT
ATOM      1  C   UNL     1      85.808  61.415  90.004  0.00  0.00    +0.000 C 
ATOM      2  C   UNL     1      86.350  61.512  88.779  0.00  0.00    +0.000 C 
ENDROOT
BRANCH   2   3
ATOM      3  C   UNL     1      87.080  62.693  88.297  0.00  0.00    +0.000 A 
ATOM      4  C   UNL     1      87.042  63.102  86.957  0.00  0.00    +0.000 A 
ATOM      5  C   UNL     1      87.728  64.250  86.541  0.00  0.00    +0.000 A 
ATOM      6  C   UNL     1      88.452  65.006  87.468  0.00  0.00    +0.000 A 
ATOM      7  C   UNL     1      88.480  64.614  88.808  0.00  0.00    +0.000 A 
ATOM      8  C   UNL     1      87.793  63.468  89.220  0.00  0.00    +0.000 A 
ATOM      9 CL   UNL     1      89.323  66.431  87.028  0.00  0.00    +0.000 Cl
ATOM     10 CL   UNL     1      87.634  64.679  84.869  0.00  0.00    +0.000 Cl
ENDBRANCH   2   3
BRANCH   1  16
ATOM     11  C   UNL     1      85.726  59.037  90.811  0.00  0.00    +0.000 A 
ATOM     12  C   UNL     1      84.994  57.922  91.230  0.00  0.00    +0.000 A 
ATOM     13  C   UNL     1      83.602  57.995  91.310  0.00  0.00    +0.000 A 
ATOM     14  C   UNL     1      82.939  59.175  90.970  0.00  0.00    +0.000 A 
ATOM     15  C   UNL     1      83.675  60.287  90.550  0.00  0.00    +0.000 A 
ATOM     16  C   UNL     1      85.075  60.233  90.479  0.00  0.00    +0.000 A 
BRANCH  13  17
ATOM     17  C   UNL     1      82.820  56.823  91.751  0.00  0.00    +0.000 C 
ATOM     18  O   UNL     1      82.488  55.933  90.979  0.00  0.00    +0.000 OA
ENDBRANCH  13  17
ENDBRANCH   1  16
TORSDOF 3
ENDMDL
