MODEL 1
REMARK VINA RESULT:      -4.8      0.000      0.000
REMARK  Name = *****
REMARK  2 active torsions:
REMARK  status: ('A' for Active; 'I' for Inactive)
REMARK    1  A    between atoms: C_5  and  C_7
REMARK    2  A    between atoms: C_8  and  C_9
REMARK                            x       y       z     vdW  Elec       q    Type
REMARK                         _______ _______ _______ _____ _____    ______ ____
ROOT
ATOM      1  C   UNL     1     101.929 126.300  82.551  0.00  0.00    +0.000 C 
ATOM      2  C   UNL     1     102.760 125.469  82.303  0.00  0.00    +0.000 C 
ENDROOT
BRANCH   1   7
ATOM      3  C   UNL     1     100.351 129.431  83.822  0.00  0.00    +0.000 A 
ATOM      4  C   UNL     1      99.019 129.237  83.450  0.00  0.00    +0.000 A 
ATOM      5  C   UNL     1      98.649 128.072  82.780  0.00  0.00    +0.000 A 
ATOM      6  C   UNL     1      99.610 127.109  82.485  0.00  0.00    +0.000 A 
ATOM      7  C   UNL     1     100.944 127.293  82.852  0.00  0.00    +0.000 A 
ATOM      8  C   UNL     1     101.313 128.462  83.524  0.00  0.00    +0.000 A 
ATOM      9  F   UNL     1      99.229 125.996  81.840  0.00  0.00    +0.000 F 
ENDBRANCH   1   7
BRANCH   2  10
ATOM     10  C   UNL     1     103.755 124.483  82.017  0.00  0.00    +0.000 A 
ATOM     11  C   UNL     1     104.274 123.696  83.049  0.00  0.00    +0.000 A 
ATOM     12  C   UNL     1     105.248 122.733  82.773  0.00  0.00    +0.000 A 
ATOM     13  C   UNL     1     105.698 122.561  81.464  0.00  0.00    +0.000 A 
ATOM     14  C   UNL     1     105.184 123.342  80.430  0.00  0.00    +0.000 A 
ATOM     15  C   UNL     1     104.210 124.305  80.708  0.00  0.00    +0.000 A 
ATOM     16 BR   UNL     1     107.016 121.259  81.089  0.00  0.00    +0.000 Br
ENDBRANCH   2  10
TORSDOF 2
ENDMDL
