REMARK  Name = *****
REMARK  3 active torsions:
REMARK  status: ('A' for Active; 'I' for Inactive)
REMARK    1  A    between atoms: C_2  and  C_13
REMARK    2  A    between atoms: C_3  and  C_4
REMARK    3  A    between atoms: C_3  and  C_6
REMARK                            x       y       z     vdW  Elec       q    Type
REMARK                         _______ _______ _______ _____ _____    ______ ____
ROOT
ATOM      1  C   UNL     1       1.717  -0.495  -0.048  0.00  0.00    +0.000 C 
ATOM      2  C   UNL     1       1.613   1.005  -0.007  0.00  0.00    +0.000 C 
ATOM      3  C   UNL     1       0.451   0.137   0.522  0.00  0.00    +0.000 C 
ENDROOT
BRANCH   3   4
ATOM      4  C   UNL     1       0.280   0.100   2.049  0.00  0.00    +0.000 A 
ATOM      5  C   UNL     1       0.070   1.280   2.790  0.00  0.00    +0.000 A 
ATOM      6  C   UNL     1      -0.095   1.247   4.177  0.00  0.00    +0.000 A 
ATOM      7  C   UNL     1      -0.060   0.029   4.841  0.00  0.00    +0.000 A 
ATOM      8  C   UNL     1       0.132  -1.155   4.144  0.00  0.00    +0.000 A 
ATOM      9  C   UNL     1       0.298  -1.118   2.757  0.00  0.00    +0.000 A 
ATOM     10  F   UNL     1      -0.219  -0.003   6.170  0.00  0.00    +0.000 F 
ENDBRANCH   3   4
BRANCH   2  11
ATOM     11  C   UNL     1       1.507   1.804  -1.289  0.00  0.00    +0.000 A 
ATOM     12  C   UNL     1       0.571   2.845  -1.423  0.00  0.00    +0.000 A 
ATOM     13  C   UNL     1       0.483   3.601  -2.597  0.00  0.00    +0.000 A 
ATOM     14  C   UNL     1       1.343   3.334  -3.656  0.00  0.00    +0.000 A 
ATOM     15  C   UNL     1       2.291   2.322  -3.548  0.00  0.00    +0.000 A 
ATOM     16  C   UNL     1       2.372   1.569  -2.372  0.00  0.00    +0.000 A 
ATOM     17 CL   UNL     1       1.242   4.263  -5.100  0.00  0.00    +0.000 Cl
ENDBRANCH   2  11
BRANCH   3  18
ATOM     18  C   UNL     1      -0.735  -0.009  -0.311  0.00  0.00    +0.000 C 
ATOM     19  N   UNL     1      -1.684  -0.134  -0.967  0.00  0.00    +0.000 NA
ENDBRANCH   3  18
TORSDOF 3
