MODEL 1
REMARK VINA RESULT:      -4.5      0.000      0.000
REMARK  Name = *****
REMARK  4 active torsions:
REMARK  status: ('A' for Active; 'I' for Inactive)
REMARK    1  A    between atoms: C_4  and  C_6
REMARK    2  A    between atoms: C_6  and  O_8
REMARK    3  A    between atoms: O_8  and  C_9
REMARK    4  A    between atoms: C_9  and  C_10
REMARK                            x       y       z     vdW  Elec       q    Type
REMARK                         _______ _______ _______ _____ _____    ______ ____
ROOT
ATOM      1  C   UNL     1      88.027  70.497  86.554  0.00  0.00    +0.000 A 
ATOM      2  C   UNL     1      86.772  71.114  86.580  0.00  0.00    +0.000 A 
ATOM      3  C   UNL     1      86.228  71.584  87.772  0.00  0.00    +0.000 A 
ATOM      4  C   UNL     1      86.926  71.433  88.962  0.00  0.00    +0.000 A 
ATOM      5  C   UNL     1      88.163  70.808  88.960  0.00  0.00    +0.000 A 
ATOM      6  C   UNL     1      88.707  70.342  87.765  0.00  0.00    +0.000 A 
ATOM      7  F   UNL     1      89.901  69.732  87.783  0.00  0.00    +0.000 F 
ATOM      8  F   UNL     1      88.836  70.649  90.108  0.00  0.00    +0.000 F 
ATOM      9  F   UNL     1      86.401  71.881  90.111  0.00  0.00    +0.000 F 
ATOM     10  F   UNL     1      85.023  72.174  87.772  0.00  0.00    +0.000 F 
ATOM     11  F   UNL     1      86.073  71.247  85.445  0.00  0.00    +0.000 F 
ENDROOT
BRANCH   1  12
ATOM     12  C   UNL     1      88.623  70.015  85.263  0.00  0.00    +0.000 C 
BRANCH  12  13
ATOM     13  O   UNL     1      88.528  68.587  85.144  0.00  0.00    +0.000 OA
BRANCH  13  14
ATOM     14  C   UNL     1      89.677  67.951  84.776  0.00  0.00    +0.000 C 
ATOM     15  O   UNL     1      90.211  68.063  83.683  0.00  0.00    +0.000 OA
BRANCH  14  19
ATOM     16  C   UNL     1      88.801  65.123  86.063  0.00  0.00    +0.000 C 
ATOM     17  C   UNL     1      90.211  64.636  85.777  0.00  0.00    +0.000 C 
ATOM     18  C   UNL     1      90.992  65.893  85.395  0.00  0.00    +0.000 C 
ATOM     19  C   UNL     1      90.182  67.088  85.920  0.00  0.00    +0.000 C 
ATOM     20  C   UNL     1      89.035  66.471  86.727  0.00  0.00    +0.000 C 
ENDBRANCH  14  19
ENDBRANCH  13  14
ENDBRANCH  12  13
ENDBRANCH   1  12
TORSDOF 4
ENDMDL
