MODEL 1
REMARK VINA RESULT:      -4.3      0.000      0.000
REMARK  Name = *****
REMARK  5 active torsions:
REMARK  status: ('A' for Active; 'I' for Inactive)
REMARK    1  A    between atoms: C_1  and  C_2
REMARK    2  A    between atoms: C_5  and  S_8
REMARK    3  A    between atoms: S_8  and  O_10
REMARK    4  A    between atoms: O_10  and  C_11
REMARK    5  A    between atoms: C_11  and  C_18
REMARK                            x       y       z     vdW  Elec       q    Type
REMARK                         _______ _______ _______ _____ _____    ______ ____
ROOT
ATOM      1  S   UNL     1     106.323 124.766  79.211  0.00  0.00    +0.000 S 
ATOM      2  O   UNL     1     106.195 124.429  77.755  0.00  0.00    +0.000 OA
ENDROOT
BRANCH   1   7
ATOM      3  C   UNL     1     105.733 119.437  82.166  0.00  0.00    +0.000 C 
ATOM      4  C   UNL     1     105.879 120.756  81.467  0.00  0.00    +0.000 A 
ATOM      5  C   UNL     1     107.141 121.228  81.089  0.00  0.00    +0.000 A 
ATOM      6  C   UNL     1     107.269 122.444  80.412  0.00  0.00    +0.000 A 
ATOM      7  C   UNL     1     106.134 123.197  80.095  0.00  0.00    +0.000 A 
ATOM      8  C   UNL     1     104.871 122.720  80.456  0.00  0.00    +0.000 A 
ATOM      9  C   UNL     1     104.743 121.505  81.135  0.00  0.00    +0.000 A 
ENDBRANCH   1   7
BRANCH   1  10
ATOM     10  O   UNL     1     104.883 125.295  79.707  0.00  0.00    +0.000 OA
BRANCH  10  11
ATOM     11  C   UNL     1     104.823 126.500  80.490  0.00  0.00    +0.000 C 
ATOM     12  C   UNL     1     103.560 127.354  80.191  0.00  0.00    +0.000 C 
ATOM     13  C   UNL     1     102.711 127.202  81.470  0.00  0.00    +0.000 C 
ATOM     14  C   UNL     1     103.365 128.007  82.606  0.00  0.00    +0.000 C 
ATOM     15  C   UNL     1     104.581 127.149  82.978  0.00  0.00    +0.000 C 
ATOM     16  C   UNL     1     104.527 126.010  81.945  0.00  0.00    +0.000 C 
ATOM     17  C   UNL     1     103.013 125.764  81.882  0.00  0.00    +0.000 C 
ATOM     18  C   UNL     1     106.135 127.284  80.380  0.00  0.00    +0.000 C 
ENDBRANCH  10  11
ENDBRANCH   1  10
TORSDOF 3
ENDMDL
