MODEL 1
REMARK VINA RESULT:      -4.7      0.000      0.000
REMARK  Name = *****
REMARK  6 active torsions:
REMARK  status: ('A' for Active; 'I' for Inactive)
REMARK    1  A    between atoms: C_1  and  C_2
REMARK    2  A    between atoms: C_2  and  C_3
REMARK    3  A    between atoms: C_2  and  O_9
REMARK    4  A    between atoms: O_9  and  C_10
REMARK    5  A    between atoms: C_10  and  C_11
REMARK    6  A    between atoms: C_10  and  C_12
REMARK                            x       y       z     vdW  Elec       q    Type
REMARK                         _______ _______ _______ _____ _____    ______ ____
ROOT
ATOM      1  O   UNL     1     103.257 126.406  82.318  0.00  0.00    +0.000 OA
ENDROOT
BRANCH   1   3
ATOM      2  C   UNL     1     102.526 125.518  84.444  0.00  0.00    +0.000 C 
ATOM      3  C   UNL     1     102.120 125.898  83.021  0.00  0.00    +0.000 C 
BRANCH   3   4
ATOM      4  C   UNL     1     101.045 126.967  83.036  0.00  0.00    +0.000 A 
ATOM      5  C   UNL     1     101.278 128.224  83.620  0.00  0.00    +0.000 A 
ATOM      6  C   UNL     1     100.276 129.193  83.649  0.00  0.00    +0.000 A 
ATOM      7  C   UNL     1      99.026 128.921  83.098  0.00  0.00    +0.000 A 
ATOM      8  C   UNL     1      98.778 127.677  82.518  0.00  0.00    +0.000 A 
ATOM      9  C   UNL     1      99.779 126.705  82.490  0.00  0.00    +0.000 A 
ENDBRANCH   3   4
ENDBRANCH   1   3
BRANCH   1  10
ATOM     10  C   UNL     1     103.222 126.182  80.905  0.00  0.00    +0.000 C 
ATOM     11  C   UNL     1     103.554 127.479  80.172  0.00  0.00    +0.000 C 
BRANCH  10  12
ATOM     12  C   UNL     1     104.229 125.099  80.564  0.00  0.00    +0.000 A 
ATOM     13  C   UNL     1     104.203 123.872  81.242  0.00  0.00    +0.000 A 
ATOM     14  C   UNL     1     105.113 122.862  80.920  0.00  0.00    +0.000 A 
ATOM     15  C   UNL     1     106.056 123.065  79.915  0.00  0.00    +0.000 A 
ATOM     16  C   UNL     1     106.091 124.277  79.230  0.00  0.00    +0.000 A 
ATOM     17  C   UNL     1     105.182 125.287  79.550  0.00  0.00    +0.000 A 
ENDBRANCH  10  12
ENDBRANCH   1  10
TORSDOF 4
ENDMDL
