MODEL 1
REMARK VINA RESULT:      -4.0      0.000      0.000
REMARK  Name = *****
REMARK  2 active torsions:
REMARK  status: ('A' for Active; 'I' for Inactive)
REMARK    1  A    between atoms: C_4  and  C_7
REMARK    2  A    between atoms: C_8  and  C_9
REMARK                            x       y       z     vdW  Elec       q    Type
REMARK                         _______ _______ _______ _____ _____    ______ ____
ROOT
ATOM      1  C   UNL     1      97.987 118.469  80.613  0.00  0.00    +0.000 C 
ATOM      2  C   UNL     1      97.530 117.554  79.984  0.00  0.00    +0.000 C 
ENDROOT
BRANCH   1   6
ATOM      3  C   UNL     1      96.789 120.191  83.666  0.00  0.00    +0.000 C 
ATOM      4  C   UNL     1      97.720 118.983  83.677  0.00  0.00    +0.000 C 
ATOM      5  C   UNL     1      98.941 119.202  82.782  0.00  0.00    +0.000 C 
ATOM      6  C   UNL     1      98.568 119.610  81.351  0.00  0.00    +0.000 C 
ATOM      7  C   UNL     1      97.608 120.808  81.354  0.00  0.00    +0.000 C 
ATOM      8  C   UNL     1      96.387 120.589  82.250  0.00  0.00    +0.000 C 
ENDBRANCH   1   6
BRANCH   2   9
ATOM      9  C   UNL     1      97.006 116.480  79.203  0.00  0.00    +0.000 A 
ATOM     10  C   UNL     1      96.081 115.581  79.684  0.00  0.00    +0.000 A 
ATOM     11  S   UNL     1      95.644 114.417  78.505  0.00  0.00    +0.000 S 
ATOM     12  C   UNL     1      96.693 115.117  77.347  0.00  0.00    +0.000 A 
ATOM     13  C   UNL     1      97.362 116.212  77.850  0.00  0.00    +0.000 A 
ENDBRANCH   2   9
TORSDOF 2
ENDMDL
