MODEL 1
REMARK VINA RESULT:      -4.7      0.000      0.000
REMARK  Name = *****
REMARK  2 active torsions:
REMARK  status: ('A' for Active; 'I' for Inactive)
REMARK    1  A    between atoms: C_5  and  C_7
REMARK    2  A    between atoms: C_8  and  C_9
REMARK                            x       y       z     vdW  Elec       q    Type
REMARK                         _______ _______ _______ _____ _____    ______ ____
ROOT
ATOM      1  C   UNL     1      98.005 118.497  80.601  0.00  0.00    +0.000 C 
ATOM      2  C   UNL     1      97.541 117.574  79.986  0.00  0.00    +0.000 C 
ENDROOT
BRANCH   2   3
ATOM      3  C   UNL     1      96.989 116.476  79.254  0.00  0.00    +0.000 A 
ATOM      4  C   UNL     1      97.228 116.364  77.883  0.00  0.00    +0.000 A 
ATOM      5  C   UNL     1      96.692 115.291  77.163  0.00  0.00    +0.000 A 
ATOM      6  C   UNL     1      95.915 114.329  77.812  0.00  0.00    +0.000 A 
ATOM      7  C   UNL     1      95.674 114.439  79.181  0.00  0.00    +0.000 A 
ATOM      8  C   UNL     1      96.211 115.510  79.893  0.00  0.00    +0.000 A 
ATOM      9  F   UNL     1      95.965 115.592  81.211  0.00  0.00    +0.000 F 
ENDBRANCH   2   3
BRANCH   1  14
ATOM     10  C   UNL     1      96.527 120.670  82.448  0.00  0.00    +0.000 C 
ATOM     11  C   UNL     1      97.149 120.498  83.837  0.00  0.00    +0.000 C 
ATOM     12  C   UNL     1      98.331 119.574  83.844  0.00  0.00    +0.000 C 
ATOM     13  C   UNL     1      98.956 119.175  82.725  0.00  0.00    +0.000 C 
ATOM     14  C   UNL     1      98.576 119.637  81.341  0.00  0.00    +0.000 C 
ATOM     15  C   UNL     1      97.600 120.827  81.369  0.00  0.00    +0.000 C 
ENDBRANCH   1  14
TORSDOF 2
ENDMDL
