REMARK  Name = *****
REMARK  4 active torsions:
REMARK  status: ('A' for Active; 'I' for Inactive)
REMARK    1  A    between atoms: C_1  and  C_2
REMARK    2  A    between atoms: C_7  and  O_8
REMARK    3  A    between atoms: O_8  and  C_9
REMARK    4  A    between atoms: C_9  and  C_10
REMARK                            x       y       z     vdW  Elec       q    Type
REMARK                         _______ _______ _______ _____ _____    ______ ____
ROOT
ATOM      1  O   UNL     1       1.264  -2.210   0.162  0.00  0.00    +0.000 OA
ENDROOT
BRANCH   1   8
ATOM      2  C   UNL     1       2.567   0.289   0.656  0.00  0.00    +0.000 C 
ATOM      3  C   UNL     1       1.109   0.177   0.323  0.00  0.00    +0.000 A 
ATOM      4  C   UNL     1       0.314   1.328   0.232  0.00  0.00    +0.000 A 
ATOM      5  C   UNL     1      -1.046   1.231  -0.072  0.00  0.00    +0.000 A 
ATOM      6  C   UNL     1      -1.630  -0.016  -0.286  0.00  0.00    +0.000 A 
ATOM      7  C   UNL     1      -0.849  -1.168  -0.210  0.00  0.00    +0.000 A 
ATOM      8  C   UNL     1       0.516  -1.066   0.066  0.00  0.00    +0.000 A 
ENDBRANCH   1   8
BRANCH   1   9
ATOM      9  C   UNL     1       1.616  -2.689  -1.142  0.00  0.00    +0.000 C 
BRANCH   9  10
ATOM     10  C   UNL     1       2.259  -4.050  -1.010  0.00  0.00    +0.000 A 
ATOM     11  C   UNL     1       1.640  -5.059  -0.256  0.00  0.00    +0.000 A 
ATOM     12  C   UNL     1       2.217  -6.325  -0.166  0.00  0.00    +0.000 A 
ATOM     13  C   UNL     1       3.409  -6.607  -0.829  0.00  0.00    +0.000 A 
ATOM     14  C   UNL     1       4.029  -5.614  -1.588  0.00  0.00    +0.000 A 
ATOM     15  C   UNL     1       3.456  -4.343  -1.681  0.00  0.00    +0.000 A 
ATOM     16 CL   UNL     1       1.446  -7.552   0.763  0.00  0.00    +0.000 Cl
ENDBRANCH   9  10
ENDBRANCH   1   9
TORSDOF 3
