MODEL 1
REMARK VINA RESULT:      -4.6      0.000      0.000
REMARK  Name = *****
REMARK  4 active torsions:
REMARK  status: ('A' for Active; 'I' for Inactive)
REMARK    1  A    between atoms: C_1  and  N_2
REMARK    2  A    between atoms: C_8  and  O_10
REMARK    3  A    between atoms: O_10  and  C_11
REMARK    4  A    between atoms: C_11  and  C_13
REMARK                            x       y       z     vdW  Elec       q    Type
REMARK                         _______ _______ _______ _____ _____    ______ ____
ROOT
ATOM      1  O   UNL     1      89.915  70.890  85.929  0.00  0.00    +0.000 OA
ENDROOT
BRANCH   1   9
ATOM      2  C   UNL     1      93.003  72.798  83.269  0.00  0.00    +0.000 C 
ATOM      3  N   UNL     1      91.752  72.154  83.659  0.00  0.00    +0.000 N 
ATOM      4  C   UNL     1      90.567  72.967  83.345  0.00  0.00    +0.000 C 
ATOM      5  C   UNL     1      90.326  72.756  81.848  0.00  0.00    +0.000 C 
ATOM      6  C   UNL     1      90.924  71.387  81.557  0.00  0.00    +0.000 C 
ATOM      7  C   UNL     1      91.486  70.919  82.903  0.00  0.00    +0.000 C 
ATOM      8  C   UNL     1      90.447  70.099  83.689  0.00  0.00    +0.000 C 
ATOM      9  C   UNL     1      89.479  70.941  84.543  0.00  0.00    +0.000 C 
ATOM     10  C   UNL     1      89.387  72.434  84.178  0.00  0.00    +0.000 C 
ATOM     11  H   UNL     1      91.881  71.998  84.658  0.00  0.00    +0.000 HD
ENDBRANCH   1   9
BRANCH   1  12
ATOM     12  C   UNL     1      89.365  69.937  86.714  0.00  0.00    +0.000 C 
ATOM     13  O   UNL     1      89.664  68.755  86.735  0.00  0.00    +0.000 OA
BRANCH  12  14
ATOM     14  C   UNL     1      88.320  70.537  87.587  0.00  0.00    +0.000 A 
ATOM     15  C   UNL     1      88.601  70.677  88.952  0.00  0.00    +0.000 A 
ATOM     16  C   UNL     1      87.651  71.242  89.801  0.00  0.00    +0.000 A 
ATOM     17  C   UNL     1      86.422  71.670  89.308  0.00  0.00    +0.000 A 
ATOM     18  C   UNL     1      86.146  71.531  87.950  0.00  0.00    +0.000 A 
ATOM     19  C   UNL     1      87.085  70.970  87.085  0.00  0.00    +0.000 A 
ATOM     20 CL   UNL     1      84.629  72.060  87.333  0.00  0.00    +0.000 Cl
ATOM     21 CL   UNL     1      88.001  71.413  91.477  0.00  0.00    +0.000 Cl
ENDBRANCH  12  14
ENDBRANCH   1  12
TORSDOF 3
ENDMDL
