MODEL 1
REMARK VINA RESULT:      -4.5      0.000      0.000
REMARK  Name = *****
REMARK  4 active torsions:
REMARK  status: ('A' for Active; 'I' for Inactive)
REMARK    1  A    between atoms: C_1  and  C_2
REMARK    2  A    between atoms: C_2  and  C_3
REMARK    3  A    between atoms: C_2  and  O_9
REMARK    4  A    between atoms: O_9  and  C_10
REMARK                            x       y       z     vdW  Elec       q    Type
REMARK                         _______ _______ _______ _____ _____    ______ ____
ROOT
ATOM      1  C   UNL     1     103.642 127.357  80.471  0.00  0.00    +0.000 C 
ATOM      2  C   UNL     1     102.824 126.369  81.305  0.00  0.00    +0.000 C 
ENDROOT
BRANCH   2   3
ATOM      3  C   UNL     1     103.616 125.080  81.484  0.00  0.00    +0.000 A 
ATOM      4  C   UNL     1     104.223 124.430  80.398  0.00  0.00    +0.000 A 
ATOM      5  C   UNL     1     104.927 123.238  80.582  0.00  0.00    +0.000 A 
ATOM      6  C   UNL     1     105.027 122.676  81.852  0.00  0.00    +0.000 A 
ATOM      7  C   UNL     1     104.423 123.302  82.939  0.00  0.00    +0.000 A 
ATOM      8  C   UNL     1     103.719 124.495  82.758  0.00  0.00    +0.000 A 
ENDBRANCH   2   3
BRANCH   2   9
ATOM      9  O   UNL     1     102.552 126.931  82.594  0.00  0.00    +0.000 OA
BRANCH   9  10
ATOM     10  C   UNL     1     101.327 127.474  82.851  0.00  0.00    +0.000 A 
ATOM     11  C   UNL     1     101.068 128.672  83.516  0.00  0.00    +0.000 A 
ATOM     12  C   UNL     1      99.749 129.102  83.705  0.00  0.00    +0.000 A 
ATOM     13  C   UNL     1      98.684 128.335  83.235  0.00  0.00    +0.000 A 
ATOM     14  C   UNL     1      98.936 127.136  82.576  0.00  0.00    +0.000 A 
ATOM     15  C   UNL     1     100.251 126.710  82.386  0.00  0.00    +0.000 A 
ENDBRANCH   9  10
ENDBRANCH   2   9
TORSDOF 3
ENDMDL
