MODEL 1
REMARK VINA RESULT:      -5.1      0.000      0.000
REMARK  Name = *****
REMARK  3 active torsions:
REMARK  status: ('A' for Active; 'I' for Inactive)
REMARK    1  A    between atoms: C_1  and  O_2
REMARK    2  A    between atoms: O_2  and  C_3
REMARK    3  A    between atoms: C_12  and  C_13
REMARK                            x       y       z     vdW  Elec       q    Type
REMARK                         _______ _______ _______ _____ _____    ______ ____
ROOT
ATOM      1  C   UNL     1     102.535 125.211  83.699  0.00  0.00    +0.000 A 
ATOM      2  N   UNL     1     103.511 124.281  83.547  0.00  0.00    +0.000 NA
ATOM      3  C   UNL     1     104.115 124.183  82.352  0.00  0.00    +0.000 A 
ATOM      4  C   UNL     1     105.117 123.239  82.171  0.00  0.00    +0.000 A 
ATOM      5  C   UNL     1     105.778 123.094  80.946  0.00  0.00    +0.000 A 
ATOM      6  C   UNL     1     105.433 123.908  79.874  0.00  0.00    +0.000 A 
ATOM      7  C   UNL     1     104.430 124.863  80.030  0.00  0.00    +0.000 A 
ATOM      8  C   UNL     1     103.770 125.006  81.263  0.00  0.00    +0.000 A 
ATOM      9  C   UNL     1     102.756 125.955  81.452  0.00  0.00    +0.000 A 
ATOM     10  C   UNL     1     102.108 126.080  82.689  0.00  0.00    +0.000 A 
ENDROOT
BRANCH  10  11
ATOM     11  C   UNL     1     101.043 127.080  82.870  0.00  0.00    +0.000 A 
ATOM     12  C   UNL     1     101.304 128.323  83.470  0.00  0.00    +0.000 A 
ATOM     13  C   UNL     1     100.287 129.262  83.655  0.00  0.00    +0.000 A 
ATOM     14  C   UNL     1      98.987 128.973  83.245  0.00  0.00    +0.000 A 
ATOM     15  C   UNL     1      98.705 127.746  82.650  0.00  0.00    +0.000 A 
ATOM     16  C   UNL     1      99.724 126.807  82.465  0.00  0.00    +0.000 A 
ENDBRANCH  10  11
BRANCH   1  18
ATOM     17  C   UNL     1     102.797 125.780  85.963  0.00  0.00    +0.000 C 
ATOM     18  O   UNL     1     101.926 125.323  84.937  0.00  0.00    +0.000 OA
ENDBRANCH   1  18
TORSDOF 2
ENDMDL
