REMARK  Name = *****
REMARK  2 active torsions:
REMARK  status: ('A' for Active; 'I' for Inactive)
REMARK    1  A    between atoms: C_4  and  C_7
REMARK    2  A    between atoms: C_8  and  C_9
REMARK                            x       y       z     vdW  Elec       q    Type
REMARK                         _______ _______ _______ _____ _____    ______ ____
ROOT
ATOM      1  C   UNL     1      -0.836  -2.848  -0.032  0.00  0.00    +0.000 C 
ATOM      2  C   UNL     1      -1.177  -4.000  -0.057  0.00  0.00    +0.000 C 
ENDROOT
BRANCH   2   3
ATOM      3  C   UNL     1      -1.588  -5.372  -0.091  0.00  0.00    +0.000 A 
ATOM      4  C   UNL     1      -0.685  -6.351   0.344  0.00  0.00    +0.000 A 
ATOM      5  C   UNL     1      -1.043  -7.701   0.327  0.00  0.00    +0.000 A 
ATOM      6  C   UNL     1      -2.305  -8.083  -0.125  0.00  0.00    +0.000 A 
ATOM      7  C   UNL     1      -3.211  -7.114  -0.560  0.00  0.00    +0.000 A 
ATOM      8  C   UNL     1      -2.856  -5.761  -0.543  0.00  0.00    +0.000 A 
ATOM      9 CL   UNL     1      -4.027  -4.614  -1.095  0.00  0.00    +0.000 Cl
ENDBRANCH   2   3
BRANCH   1  13
ATOM     10  C   UNL     1       0.349   1.268   0.356  0.00  0.00    +0.000 C 
ATOM     11  C   UNL     1       1.355   0.303  -0.262  0.00  0.00    +0.000 C 
ATOM     12  C   UNL     1       1.030  -1.145   0.113  0.00  0.00    +0.000 C 
ATOM     13  C   UNL     1      -0.437  -1.479  -0.009  0.00  0.00    +0.000 C 
ATOM     14  C   UNL     1      -1.377  -0.523  -0.118  0.00  0.00    +0.000 C 
ATOM     15  C   UNL     1      -1.076   0.947  -0.098  0.00  0.00    +0.000 C 
ENDBRANCH   1  13
TORSDOF 2
