REMARK  Name = *****
REMARK  5 active torsions:
REMARK  status: ('A' for Active; 'I' for Inactive)
REMARK    1  A    between atoms: C_4  and  C_7
REMARK    2  A    between atoms: C_7  and  C_8
REMARK    3  A    between atoms: C_8  and  O_10
REMARK    4  A    between atoms: O_10  and  C_11
REMARK    5  A    between atoms: C_11  and  C_12
REMARK                            x       y       z     vdW  Elec       q    Type
REMARK                         _______ _______ _______ _____ _____    ______ ____
ROOT
ATOM      1  C   UNL     1       3.438  -2.048   0.883  0.00  0.00    +0.000 C 
ATOM      2  O   UNL     1       3.902  -2.304   1.986  0.00  0.00    +0.000 OA
ENDROOT
BRANCH   1   3
ATOM      3  C   UNL     1       3.088  -0.656   0.419  0.00  0.00    +0.000 C 
BRANCH   3   7
ATOM      4  C   UNL     1      -0.735   1.303   1.251  0.00  0.00    +0.000 C 
ATOM      5  C   UNL     1      -0.240   1.253  -0.190  0.00  0.00    +0.000 C 
ATOM      6  C   UNL     1       1.248   0.918  -0.262  0.00  0.00    +0.000 C 
ATOM      7  C   UNL     1       1.578  -0.389   0.476  0.00  0.00    +0.000 C 
ATOM      8  C   UNL     1       1.071  -0.329   1.927  0.00  0.00    +0.000 C 
ATOM      9  C   UNL     1      -0.417   0.011   1.996  0.00  0.00    +0.000 C 
ENDBRANCH   3   7
ENDBRANCH   1   3
BRANCH   1  10
ATOM     10  O   UNL     1       3.147  -2.954  -0.088  0.00  0.00    +0.000 OA
BRANCH  10  11
ATOM     11  C   UNL     1       3.467  -4.316   0.219  0.00  0.00    +0.000 C 
BRANCH  11  12
ATOM     12  C   UNL     1       4.823  -4.654  -0.342  0.00  0.00    +0.000 A 
ATOM     13  C   UNL     1       5.958  -4.626   0.480  0.00  0.00    +0.000 A 
ATOM     14  C   UNL     1       7.218  -4.921  -0.043  0.00  0.00    +0.000 A 
ATOM     15  C   UNL     1       7.357  -5.238  -1.392  0.00  0.00    +0.000 A 
ATOM     16  C   UNL     1       6.237  -5.257  -2.222  0.00  0.00    +0.000 A 
ATOM     17  C   UNL     1       4.976  -4.962  -1.701  0.00  0.00    +0.000 A 
ENDBRANCH  11  12
ENDBRANCH  10  11
ENDBRANCH   1  10
TORSDOF 5
