MODEL 1
REMARK VINA RESULT:      -4.6      0.000      0.000
REMARK  Name = *****
REMARK  4 active torsions:
REMARK  status: ('A' for Active; 'I' for Inactive)
REMARK    1  A    between atoms: C_4  and  O_8
REMARK    2  A    between atoms: C_6  and  C_7
REMARK    3  A    between atoms: O_8  and  C_9
REMARK    4  A    between atoms: C_9  and  C_10
REMARK                            x       y       z     vdW  Elec       q    Type
REMARK                         _______ _______ _______ _____ _____    ______ ____
ROOT
ATOM      1  O   UNL     1     102.582 126.935  83.232  0.00  0.00    +0.000 OA
ENDROOT
BRANCH   1   5
ATOM      2  C   UNL     1      98.722 128.468  82.943  0.00  0.00    +0.000 A 
ATOM      3  C   UNL     1      99.042 127.185  82.502  0.00  0.00    +0.000 A 
ATOM      4  C   UNL     1     100.350 126.716  82.619  0.00  0.00    +0.000 A 
ATOM      5  C   UNL     1     101.347 127.520  83.176  0.00  0.00    +0.000 A 
ATOM      6  C   UNL     1     101.022 128.807  83.616  0.00  0.00    +0.000 A 
ATOM      7  C   UNL     1      99.709 129.289  83.502  0.00  0.00    +0.000 A 
ATOM      8  C   UNL     1      99.349 130.667  83.973  0.00  0.00    +0.000 C 
ENDBRANCH   1   5
BRANCH   1   9
ATOM      9  C   UNL     1     102.628 125.537  83.507  0.00  0.00    +0.000 C 
BRANCH   9  10
ATOM     10  C   UNL     1     103.457 124.860  82.439  0.00  0.00    +0.000 A 
ATOM     11  C   UNL     1     104.190 123.700  82.725  0.00  0.00    +0.000 A 
ATOM     12  C   UNL     1     104.940 123.074  81.727  0.00  0.00    +0.000 A 
ATOM     13  C   UNL     1     104.964 123.599  80.436  0.00  0.00    +0.000 A 
ATOM     14  C   UNL     1     104.239 124.753  80.141  0.00  0.00    +0.000 A 
ATOM     15  C   UNL     1     103.489 125.380  81.136  0.00  0.00    +0.000 A 
ENDBRANCH   9  10
ENDBRANCH   1   9
TORSDOF 3
ENDMDL
