MODEL 1
REMARK VINA RESULT:      -4.6      0.000      0.000
REMARK  Name = *****
REMARK  3 active torsions:
REMARK  status: ('A' for Active; 'I' for Inactive)
REMARK    1  A    between atoms: C_1  and  C_2
REMARK    2  A    between atoms: C_7  and  C_8
REMARK    3  A    between atoms: C_10  and  C_11
REMARK                            x       y       z     vdW  Elec       q    Type
REMARK                         _______ _______ _______ _____ _____    ______ ____
ROOT
ATOM      1  C   UNL     1      87.830  65.310  87.301  0.00  0.00    +0.000 C 
ATOM      2  C   UNL     1      88.781  64.167  87.049  0.00  0.00    +0.000 C 
ATOM      3  C   UNL     1      88.327  64.447  88.456  0.00  0.00    +0.000 C 
ENDROOT
BRANCH   1  10
ATOM      4  C   UNL     1      86.414  67.615  88.611  0.00  0.00    +0.000 C 
ATOM      5  C   UNL     1      87.651  67.829  87.779  0.00  0.00    +0.000 A 
ATOM      6  C   UNL     1      88.128  69.140  87.604  0.00  0.00    +0.000 A 
ATOM      7  C   UNL     1      89.269  69.389  86.846  0.00  0.00    +0.000 A 
ATOM      8  C   UNL     1      89.945  68.331  86.253  0.00  0.00    +0.000 A 
ATOM      9  C   UNL     1      89.470  67.027  86.411  0.00  0.00    +0.000 A 
ATOM     10  C   UNL     1      88.308  66.743  87.155  0.00  0.00    +0.000 A 
ENDBRANCH   1  10
BRANCH   3  11
ATOM     11  C   UNL     1      87.375  63.501  89.150  0.00  0.00    +0.000 A 
ATOM     12  C   UNL     1      86.845  63.800  90.415  0.00  0.00    +0.000 A 
ATOM     13  C   UNL     1      85.951  62.936  91.054  0.00  0.00    +0.000 A 
ATOM     14  C   UNL     1      85.563  61.752  90.432  0.00  0.00    +0.000 A 
ATOM     15  C   UNL     1      86.065  61.438  89.173  0.00  0.00    +0.000 A 
ATOM     16  C   UNL     1      86.958  62.305  88.540  0.00  0.00    +0.000 A 
ENDBRANCH   3  11
TORSDOF 2
ENDMDL
