MODEL 1
REMARK VINA RESULT:      -4.7      0.000      0.000
REMARK  Name = *****
REMARK  3 active torsions:
REMARK  status: ('A' for Active; 'I' for Inactive)
REMARK    1  A    between atoms: C_1  and  C_2
REMARK    2  A    between atoms: C_5  and  C_8
REMARK    3  A    between atoms: N_9  and  C_10
REMARK                            x       y       z     vdW  Elec       q    Type
REMARK                         _______ _______ _______ _____ _____    ______ ____
ROOT
ATOM      1  C   UNL     1     106.602 122.076  80.711  0.00  0.00    +0.000 C 
ATOM      2  C   UNL     1     105.520 123.071  81.007  0.00  0.00    +0.000 A 
ATOM      3  C   UNL     1     105.145 124.011  80.041  0.00  0.00    +0.000 A 
ATOM      4  C   UNL     1     104.164 124.964  80.293  0.00  0.00    +0.000 A 
ATOM      5  C   UNL     1     103.548 124.988  81.543  0.00  0.00    +0.000 A 
ATOM      6  C   UNL     1     103.916 124.067  82.529  0.00  0.00    +0.000 A 
ATOM      7  C   UNL     1     104.902 123.114  82.263  0.00  0.00    +0.000 A 
ATOM      8  F   UNL     1     105.739 124.001  78.839  0.00  0.00    +0.000 F 
ENDROOT
BRANCH   5   9
ATOM      9  C   UNL     1     102.509 126.002  81.804  0.00  0.00    +0.000 C 
ATOM     10  N   UNL     1     101.775 125.970  82.871  0.00  0.00    +0.000 NA
BRANCH  10  11
ATOM     11  C   UNL     1     100.828 126.996  82.990  0.00  0.00    +0.000 A 
ATOM     12  C   UNL     1     101.179 128.222  83.562  0.00  0.00    +0.000 A 
ATOM     13  C   UNL     1     100.238 129.248  83.670  0.00  0.00    +0.000 A 
ATOM     14  C   UNL     1      98.940 129.054  83.194  0.00  0.00    +0.000 A 
ATOM     15  C   UNL     1      98.588 127.839  82.608  0.00  0.00    +0.000 A 
ATOM     16  C   UNL     1      99.531 126.815  82.502  0.00  0.00    +0.000 A 
ENDBRANCH  10  11
ENDBRANCH   5   9
TORSDOF 2
ENDMDL
