MODEL 1
REMARK VINA RESULT:      -4.0      0.000      0.000
REMARK  Name = *****
REMARK  4 active torsions:
REMARK  status: ('A' for Active; 'I' for Inactive)
REMARK    1  A    between atoms: C_4  and  C_6
REMARK    2  A    between atoms: C_6  and  N_7
REMARK    3  A    between atoms: N_7  and  C_8
REMARK    4  A    between atoms: C_8  and  C_9
REMARK                            x       y       z     vdW  Elec       q    Type
REMARK                         _______ _______ _______ _____ _____    ______ ____
ROOT
ATOM      1  N   UNL     1     103.261 126.319  83.624  0.00  0.00    +0.000 NA
ENDROOT
BRANCH   1   2
ATOM      2  C   UNL     1     104.091 125.737  82.834  0.00  0.00    +0.000 C 
BRANCH   2   6
ATOM      3  C   UNL     1     104.904 124.885  79.810  0.00  0.00    +0.000 C 
ATOM      4  C   UNL     1     105.075 123.469  80.331  0.00  0.00    +0.000 C 
ATOM      5  C   UNL     1     104.568 123.526  81.769  0.00  0.00    +0.000 C 
ATOM      6  C   UNL     1     103.601 124.715  81.833  0.00  0.00    +0.000 C 
ATOM      7  C   UNL     1     103.583 125.321  80.428  0.00  0.00    +0.000 C 
ENDBRANCH   2   6
ENDBRANCH   1   2
BRANCH   1   8
ATOM      8  C   UNL     1     102.835 127.648  83.169  0.00  0.00    +0.000 C 
BRANCH   8   9
ATOM      9  C   UNL     1     101.330 127.747  83.077  0.00  0.00    +0.000 A 
ATOM     10  C   UNL     1     100.670 128.893  83.544  0.00  0.00    +0.000 A 
ATOM     11  C   UNL     1      99.281 129.004  83.442  0.00  0.00    +0.000 A 
ATOM     12  C   UNL     1      98.540 127.972  82.870  0.00  0.00    +0.000 A 
ATOM     13  C   UNL     1      99.186 126.829  82.400  0.00  0.00    +0.000 A 
ATOM     14  C   UNL     1     100.574 126.717  82.501  0.00  0.00    +0.000 A 
ENDBRANCH   8   9
ENDBRANCH   1   8
TORSDOF 4
ENDMDL
