MODEL 1
REMARK VINA RESULT:      -4.2      0.000      0.000
REMARK  Name = *****
REMARK  3 active torsions:
REMARK  status: ('A' for Active; 'I' for Inactive)
REMARK    1  A    between atoms: C_4  and  S_7
REMARK    2  A    between atoms: S_7  and  S_9
REMARK    3  A    between atoms: S_9  and  C_11
REMARK                            x       y       z     vdW  Elec       q    Type
REMARK                         _______ _______ _______ _____ _____    ______ ____
ROOT
ATOM      1  S   UNL     1     102.601 125.926  81.568  0.00  0.00    +0.000 S 
ATOM      2  O   UNL     1     103.599 126.808  80.867  0.00  0.00    +0.000 OA
ENDROOT
BRANCH   1   6
ATOM      3  C   UNL     1      99.773 128.766  83.847  0.00  0.00    +0.000 A 
ATOM      4  C   UNL     1      99.250 127.663  83.175  0.00  0.00    +0.000 A 
ATOM      5  C   UNL     1     100.100 126.802  82.478  0.00  0.00    +0.000 A 
ATOM      6  C   UNL     1     101.479 127.043  82.446  0.00  0.00    +0.000 A 
ATOM      7  C   UNL     1     101.997 128.149  83.132  0.00  0.00    +0.000 A 
ATOM      8  C   UNL     1     101.145 129.009  83.828  0.00  0.00    +0.000 A 
ENDBRANCH   1   6
BRANCH   1   9
ATOM      9  S   UNL     1     103.715 125.241  83.091  0.00  0.00    +0.000 S 
ATOM     10  O   UNL     1     102.639 124.929  84.094  0.00  0.00    +0.000 OA
BRANCH   9  11
ATOM     11  C   UNL     1     104.278 123.647  82.446  0.00  0.00    +0.000 A 
ATOM     12  C   UNL     1     104.446 122.556  83.308  0.00  0.00    +0.000 A 
ATOM     13  C   UNL     1     104.860 121.318  82.810  0.00  0.00    +0.000 A 
ATOM     14  C   UNL     1     105.098 121.160  81.447  0.00  0.00    +0.000 A 
ATOM     15  C   UNL     1     104.921 122.236  80.578  0.00  0.00    +0.000 A 
ATOM     16  C   UNL     1     104.509 123.474  81.075  0.00  0.00    +0.000 A 
ENDBRANCH   9  11
ENDBRANCH   1   9
TORSDOF 3
ENDMDL
