MODEL 1
REMARK VINA RESULT:      -4.6      0.000      0.000
REMARK  Name = *****
REMARK  6 active torsions:
REMARK  status: ('A' for Active; 'I' for Inactive)
REMARK    1  A    between atoms: C_1  and  C_2
REMARK    2  A    between atoms: C_2  and  S_3
REMARK    3  A    between atoms: S_3  and  N_4
REMARK    4  A    between atoms: S_3  and  C_13
REMARK    5  A    between atoms: N_4  and  C_5
REMARK    6  A    between atoms: C_8  and  C_11
REMARK                            x       y       z     vdW  Elec       q    Type
REMARK                         _______ _______ _______ _____ _____    ______ ____
ROOT
ATOM      1  S   UNL     1      89.064  65.692  86.316  0.00  0.00    +0.000 S 
ATOM      2  O   UNL     1      87.948  65.706  85.387  0.00  0.00    +0.000 OA
ENDROOT
BRANCH   1   3
ATOM      3  C   UNL     1      88.327  65.184  87.863  0.00  0.00    +0.000 A 
ATOM      4  C   UNL     1      88.850  64.052  88.499  0.00  0.00    +0.000 A 
ATOM      5  C   UNL     1      88.294  63.610  89.698  0.00  0.00    +0.000 A 
ATOM      6  C   UNL     1      87.223  64.301  90.264  0.00  0.00    +0.000 A 
ATOM      7  C   UNL     1      86.711  65.439  89.636  0.00  0.00    +0.000 A 
ATOM      8  C   UNL     1      87.262  65.887  88.434  0.00  0.00    +0.000 A 
ENDBRANCH   1   3
BRANCH   1  10
ATOM      9  C   UNL     1      91.430  64.867  85.196  0.00  0.00    +0.000 C 
ATOM     10  C   UNL     1      90.124  64.356  85.777  0.00  0.00    +0.000 C 
ENDBRANCH   1  10
BRANCH   1  11
ATOM     11  N   UNL     1      89.948  66.920  86.602  0.00  0.00    +0.000 NA
BRANCH  11  12
ATOM     12  C   UNL     1      89.862  68.257  86.112  0.00  0.00    +0.000 A 
ATOM     13  C   UNL     1      90.016  68.404  84.732  0.00  0.00    +0.000 A 
ATOM     14  C   UNL     1      89.957  69.663  84.128  0.00  0.00    +0.000 A 
ATOM     15  C   UNL     1      89.747  70.805  84.903  0.00  0.00    +0.000 A 
ATOM     16  C   UNL     1      89.570  70.661  86.283  0.00  0.00    +0.000 A 
ATOM     17  C   UNL     1      89.632  69.396  86.882  0.00  0.00    +0.000 A 
ATOM     18  C   UNL     1      89.643  72.156  84.258  0.00  0.00    +0.000 C 
ENDBRANCH  11  12
ENDBRANCH   1  11
TORSDOF 4
ENDMDL
