MODEL 1
REMARK VINA RESULT:      -4.3      0.000      0.000
REMARK  Name = *****
REMARK  2 active torsions:
REMARK  status: ('A' for Active; 'I' for Inactive)
REMARK    1  A    between atoms: C_4  and  C_7
REMARK    2  A    between atoms: C_7  and  N_8
REMARK                            x       y       z     vdW  Elec       q    Type
REMARK                         _______ _______ _______ _____ _____    ______ ____
ROOT
ATOM      1  N   UNL     1     103.567 126.538  83.241  0.00  0.00    +0.000 NA
ATOM      2  S   UNL     1     104.287 126.612  81.746  0.00  0.00    +0.000 S 
ATOM      3  C   UNL     1     104.515 124.873  81.562  0.00  0.00    +0.000 A 
ATOM      4  C   UNL     1     104.795 124.189  80.387  0.00  0.00    +0.000 A 
ATOM      5  C   UNL     1     104.910 122.797  80.428  0.00  0.00    +0.000 A 
ATOM      6  C   UNL     1     104.741 122.109  81.636  0.00  0.00    +0.000 A 
ATOM      7  C   UNL     1     104.465 122.808  82.813  0.00  0.00    +0.000 A 
ATOM      8  C   UNL     1     104.357 124.194  82.761  0.00  0.00    +0.000 A 
ATOM      9  S   UNL     1     104.064 125.245  84.177  0.00  0.00    +0.000 S 
ATOM     10  O   UNL     1     102.966 124.590  84.960  0.00  0.00    +0.000 OA
ENDROOT
BRANCH   1  11
ATOM     11  C   UNL     1     102.799 127.642  83.811  0.00  0.00    +0.000 C 
BRANCH  11  15
ATOM     12  C   UNL     1      98.471 127.878  83.091  0.00  0.00    +0.000 C 
ATOM     13  C   UNL     1      99.239 129.188  83.207  0.00  0.00    +0.000 C 
ATOM     14  C   UNL     1     100.610 128.990  83.852  0.00  0.00    +0.000 C 
ATOM     15  C   UNL     1     101.444 127.924  83.122  0.00  0.00    +0.000 C 
ATOM     16  C   UNL     1     100.648 126.610  83.004  0.00  0.00    +0.000 C 
ATOM     17  C   UNL     1      99.284 126.821  82.354  0.00  0.00    +0.000 C 
ENDBRANCH  11  15
ENDBRANCH   1  11
TORSDOF 2
ENDMDL
