MODEL 1
REMARK VINA RESULT:      -4.5      0.000      0.000
REMARK  Name = *****
REMARK  4 active torsions:
REMARK  status: ('A' for Active; 'I' for Inactive)
REMARK    1  A    between atoms: C_1  and  C_2
REMARK    2  A    between atoms: C_2  and  C_9
REMARK    3  A    between atoms: C_9  and  S_10
REMARK    4  A    between atoms: S_10  and  C_11
REMARK                            x       y       z     vdW  Elec       q    Type
REMARK                         _______ _______ _______ _____ _____    ______ ____
ROOT
ATOM      1  C   UNL     1     100.893 126.367  84.531  0.00  0.00    +0.000 C 
ATOM      2  C   UNL     1     100.864 127.085  83.170  0.00  0.00    +0.000 C 
ATOM      3  C   UNL     1     101.584 128.452  83.238  0.00  0.00    +0.000 C 
ATOM      4  C   UNL     1     100.845 129.501  84.071  0.00  0.00    +0.000 C 
ATOM      5  C   UNL     1      99.431 129.709  83.546  0.00  0.00    +0.000 C 
ATOM      6  C   UNL     1      98.643 128.411  83.539  0.00  0.00    +0.000 C 
ATOM      7  C   UNL     1      99.390 127.321  82.797  0.00  0.00    +0.000 C 
ATOM      8  O   UNL     1      98.791 126.592  82.004  0.00  0.00    +0.000 OA
ENDROOT
BRANCH   2   9
ATOM      9  C   UNL     1     101.488 126.183  82.068  0.00  0.00    +0.000 C 
BRANCH   9  10
ATOM     10  S   UNL     1     103.255 126.524  81.700  0.00  0.00    +0.000 S 
BRANCH  10  11
ATOM     11  C   UNL     1     103.913 124.867  81.735  0.00  0.00    +0.000 A 
ATOM     12  C   UNL     1     103.981 124.190  82.957  0.00  0.00    +0.000 A 
ATOM     13  C   UNL     1     104.472 122.883  83.014  0.00  0.00    +0.000 A 
ATOM     14  C   UNL     1     104.890 122.243  81.849  0.00  0.00    +0.000 A 
ATOM     15  C   UNL     1     104.811 122.907  80.626  0.00  0.00    +0.000 A 
ATOM     16  C   UNL     1     104.320 124.212  80.568  0.00  0.00    +0.000 A 
ENDBRANCH  10  11
ENDBRANCH   9  10
ENDBRANCH   2   9
TORSDOF 3
ENDMDL
