MODEL 1
REMARK VINA RESULT:      -4.8      0.000      0.000
REMARK  Name = *****
REMARK  1 active torsions:
REMARK  status: ('A' for Active; 'I' for Inactive)
REMARK    1  A    between atoms: C_9  and  C_12
REMARK                            x       y       z     vdW  Elec       q    Type
REMARK                         _______ _______ _______ _____ _____    ______ ____
ROOT
ATOM      1  C   UNL     1      99.418 129.096  84.706  0.00  0.00    +0.000 C 
ATOM      2  C   UNL     1      98.579 127.863  84.387  0.00  0.00    +0.000 C 
ATOM      3  C   UNL     1      98.514 127.569  82.894  0.00  0.00    +0.000 C 
ATOM      4  C   UNL     1      99.653 126.724  82.327  0.00  0.00    +0.000 C 
ATOM      5  C   UNL     1     101.068 126.963  82.867  0.00  0.00    +0.000 C 
ATOM      6  C   UNL     1     101.406 128.422  83.200  0.00  0.00    +0.000 C 
ATOM      7  C   UNL     1     100.924 128.912  84.565  0.00  0.00    +0.000 C 
ATOM      8  O   UNL     1     101.979 126.517  81.863  0.00  0.00    +0.000 OA
ATOM      9  C   UNL     1     102.627 125.506  82.474  0.00  0.00    +0.000 C 
ATOM     10  N   UNL     1     102.296 125.224  83.688  0.00  0.00    +0.000 NA
ATOM     11  O   UNL     1     101.276 126.136  84.022  0.00  0.00    +0.000 OA
ENDROOT
BRANCH   9  12
ATOM     12  C   UNL     1     103.653 124.832  81.664  0.00  0.00    +0.000 A 
ATOM     13  C   UNL     1     104.262 123.648  82.096  0.00  0.00    +0.000 A 
ATOM     14  C   UNL     1     105.234 123.032  81.305  0.00  0.00    +0.000 A 
ATOM     15  C   UNL     1     105.601 123.596  80.083  0.00  0.00    +0.000 A 
ATOM     16  C   UNL     1     104.997 124.775  79.648  0.00  0.00    +0.000 A 
ATOM     17  C   UNL     1     104.024 125.394  80.436  0.00  0.00    +0.000 A 
ENDBRANCH   9  12
TORSDOF 1
ENDMDL
