MODEL 1
REMARK VINA RESULT:      -3.9      0.000      0.000
REMARK  Name = *****
REMARK  4 active torsions:
REMARK  status: ('A' for Active; 'I' for Inactive)
REMARK    1  A    between atoms: C_1  and  C_2
REMARK    2  A    between atoms: C_5  and  S_8
REMARK    3  A    between atoms: S_8  and  C_9
REMARK    4  A    between atoms: C_9  and  C_11
REMARK                            x       y       z     vdW  Elec       q    Type
REMARK                         _______ _______ _______ _____ _____    ______ ____
ROOT
ATOM      1  S   UNL     1      87.034  67.354  86.565  0.00  0.00    +0.000 S 
ENDROOT
BRANCH   1   6
ATOM      2  C   UNL     1      88.591  71.910  90.302  0.00  0.00    +0.000 C 
ATOM      3  C   UNL     1      88.222  70.765  89.404  0.00  0.00    +0.000 A 
ATOM      4  C   UNL     1      88.951  70.520  88.235  0.00  0.00    +0.000 A 
ATOM      5  C   UNL     1      88.588  69.476  87.381  0.00  0.00    +0.000 A 
ATOM      6  C   UNL     1      87.491  68.664  87.682  0.00  0.00    +0.000 A 
ATOM      7  C   UNL     1      86.746  68.922  88.835  0.00  0.00    +0.000 A 
ATOM      8  C   UNL     1      87.109  69.967  89.690  0.00  0.00    +0.000 A 
ENDBRANCH   1   6
BRANCH   1   9
ATOM      9  C   UNL     1      87.951  65.988  87.200  0.00  0.00    +0.000 C 
ATOM     10  S   UNL     1      87.595  65.198  88.637  0.00  0.00    +0.000 S 
BRANCH   9  11
ATOM     11  C   UNL     1      89.169  65.656  86.478  0.00  0.00    +0.000 A 
ATOM     12  C   UNL     1      90.232  66.481  86.142  0.00  0.00    +0.000 A 
ATOM     13  C   UNL     1      91.267  65.798  85.438  0.00  0.00    +0.000 A 
ATOM     14  C   UNL     1      90.976  64.464  85.267  0.00  0.00    +0.000 A 
ATOM     15  S   UNL     1      89.472  64.042  85.954  0.00  0.00    +0.000 S 
ENDBRANCH   9  11
ENDBRANCH   1   9
TORSDOF 3
ENDMDL
