MODEL 1
REMARK VINA RESULT:      -5.1      0.000      0.000
REMARK  Name = *****
REMARK  2 active torsions:
REMARK  status: ('A' for Active; 'I' for Inactive)
REMARK    1  A    between atoms: C_6  and  C_7
REMARK    2  A    between atoms: N_8  and  C_9
REMARK                            x       y       z     vdW  Elec       q    Type
REMARK                         _______ _______ _______ _____ _____    ______ ____
ROOT
ATOM      1  C   UNL     1     102.567 126.316  81.855  0.00  0.00    +0.000 C 
ATOM      2  N   UNL     1     101.351 126.023  82.220  0.00  0.00    +0.000 NA
ENDROOT
BRANCH   1   8
ATOM      3  C   UNL     1     103.883 124.227  82.143  0.00  0.00    +0.000 A 
ATOM      4  C   UNL     1     104.823 123.297  81.692  0.00  0.00    +0.000 A 
ATOM      5  C   UNL     1     105.420 123.478  80.448  0.00  0.00    +0.000 A 
ATOM      6  C   UNL     1     105.080 124.570  79.655  0.00  0.00    +0.000 A 
ATOM      7  C   UNL     1     104.141 125.501  80.090  0.00  0.00    +0.000 A 
ATOM      8  C   UNL     1     103.545 125.332  81.339  0.00  0.00    +0.000 A 
ATOM      9  F   UNL     1     105.663 124.739  78.460  0.00  0.00    +0.000 F 
ATOM     10  F   UNL     1     106.326 122.590  80.020  0.00  0.00    +0.000 F 
ENDBRANCH   1   8
BRANCH   2  11
ATOM     11  C   UNL     1     100.559 127.104  82.708  0.00  0.00    +0.000 A 
ATOM     12  C   UNL     1      99.204 127.166  82.559  0.00  0.00    +0.000 A 
ATOM     13  C   UNL     1      98.631 128.353  82.905  0.00  0.00    +0.000 A 
ATOM     14  C   UNL     1      99.480 129.408  83.360  0.00  0.00    +0.000 A 
ATOM     15  C   UNL     1     100.640 129.292  84.130  0.00  0.00    +0.000 A 
ATOM     16  C   UNL     1     101.164 128.244  83.393  0.00  0.00    +0.000 A 
ATOM     17  F   UNL     1     100.096 130.289  84.834  0.00  0.00    +0.000 F 
ATOM     18  F   UNL     1      98.470 126.146  82.090  0.00  0.00    +0.000 F 
ENDBRANCH   2  11
TORSDOF 2
ENDMDL
