MODEL 1
REMARK VINA RESULT:      -4.7      0.000      0.000
REMARK  Name = *****
REMARK  3 active torsions:
REMARK  status: ('A' for Active; 'I' for Inactive)
REMARK    1  A    between atoms: C_1  and  C_2
REMARK    2  A    between atoms: C_5  and  C_8
REMARK    3  A    between atoms: C_9  and  C_10
REMARK                            x       y       z     vdW  Elec       q    Type
REMARK                         _______ _______ _______ _____ _____    ______ ____
ROOT
ATOM      1  C   UNL     1     107.014 121.653  80.797  0.00  0.00    +0.000 C 
ATOM      2  C   UNL     1     105.957 122.652  81.169  0.00  0.00    +0.000 A 
ATOM      3  C   UNL     1     105.550 122.806  82.500  0.00  0.00    +0.000 A 
ATOM      4  C   UNL     1     104.545 123.722  82.834  0.00  0.00    +0.000 A 
ATOM      5  C   UNL     1     103.931 124.490  81.837  0.00  0.00    +0.000 A 
ATOM      6  C   UNL     1     104.338 124.336  80.507  0.00  0.00    +0.000 A 
ATOM      7  C   UNL     1     105.342 123.421  80.175  0.00  0.00    +0.000 A 
ATOM      8 CL   UNL     1     104.098 123.854  84.501  0.00  0.00    +0.000 Cl
ENDROOT
BRANCH   5   9
ATOM      9  C   UNL     1     102.884 125.424  82.130  0.00  0.00    +0.000 C 
ATOM     10  C   UNL     1     101.991 126.188  82.377  0.00  0.00    +0.000 C 
BRANCH  10  11
ATOM     11  C   UNL     1     100.911 127.073  82.686  0.00  0.00    +0.000 A 
ATOM     12  C   UNL     1      99.604 126.726  82.337  0.00  0.00    +0.000 A 
ATOM     13  C   UNL     1      98.549 127.595  82.624  0.00  0.00    +0.000 A 
ATOM     14  C   UNL     1      98.801 128.810  83.261  0.00  0.00    +0.000 A 
ATOM     15  C   UNL     1     100.106 129.157  83.613  0.00  0.00    +0.000 A 
ATOM     16  C   UNL     1     101.161 128.289  83.325  0.00  0.00    +0.000 A 
ENDBRANCH  10  11
ENDBRANCH   5   9
TORSDOF 2
ENDMDL
