MODEL 1
REMARK VINA RESULT:      -4.4      0.000      0.000
REMARK  Name = *****
REMARK  3 active torsions:
REMARK  status: ('A' for Active; 'I' for Inactive)
REMARK    1  A    between atoms: C_4  and  S_7
REMARK    2  A    between atoms: S_7  and  C_9
REMARK    3  A    between atoms: C_9  and  C_10
REMARK                            x       y       z     vdW  Elec       q    Type
REMARK                         _______ _______ _______ _____ _____    ______ ____
ROOT
ATOM      1  S   UNL     1     103.899 126.613  80.917  0.00  0.00    +0.000 S 
ATOM      2  O   UNL     1     103.358 127.460  79.801  0.00  0.00    +0.000 OA
ENDROOT
BRANCH   1   6
ATOM      3  C   UNL     1     106.414 122.762  80.233  0.00  0.00    +0.000 C 
ATOM      4  C   UNL     1     104.934 122.591  80.558  0.00  0.00    +0.000 C 
ATOM      5  C   UNL     1     104.325 123.879  81.113  0.00  0.00    +0.000 C 
ATOM      6  C   UNL     1     104.546 125.062  80.164  0.00  0.00    +0.000 C 
ATOM      7  C   UNL     1     106.040 125.230  79.853  0.00  0.00    +0.000 C 
ATOM      8  C   UNL     1     106.648 123.943  79.297  0.00  0.00    +0.000 C 
ENDBRANCH   1   6
BRANCH   1   9
ATOM      9  C   UNL     1     102.468 125.857  81.764  0.00  0.00    +0.000 C 
BRANCH   9  10
ATOM     10  C   UNL     1     101.607 126.891  82.443  0.00  0.00    +0.000 A 
ATOM     11  C   UNL     1     102.195 127.976  83.113  0.00  0.00    +0.000 A 
ATOM     12  C   UNL     1     101.402 128.933  83.749  0.00  0.00    +0.000 A 
ATOM     13  C   UNL     1     100.015 128.810  83.723  0.00  0.00    +0.000 A 
ATOM     14  C   UNL     1      99.415 127.736  83.069  0.00  0.00    +0.000 A 
ATOM     15  C   UNL     1     100.208 126.778  82.432  0.00  0.00    +0.000 A 
ATOM     16 CL   UNL     1      99.035 129.988  84.505  0.00  0.00    +0.000 Cl
ENDBRANCH   9  10
ENDBRANCH   1   9
TORSDOF 3
ENDMDL
