MODEL 1
REMARK VINA RESULT:      -4.5      0.000      0.000
REMARK  Name = *****
REMARK  6 active torsions:
REMARK  status: ('A' for Active; 'I' for Inactive)
REMARK    1  A    between atoms: C_1  and  C_2
REMARK    2  A    between atoms: C_2  and  N_17
REMARK    3  A    between atoms: C_6  and  C_7
REMARK    4  A    between atoms: C_6  and  O_8
REMARK    5  A    between atoms: O_8  and  C_9
REMARK    6  A    between atoms: C_9  and  C_11
REMARK                            x       y       z     vdW  Elec       q    Type
REMARK                         _______ _______ _______ _____ _____    ______ ____
ROOT
ATOM      1  C   UNL     1      88.131  67.343  85.486  0.00  0.00    +0.000 C 
ATOM      2  C   UNL     1      88.972  68.377  86.244  0.00  0.00    +0.000 C 
ATOM      3  C   UNL     1      88.334  68.763  87.594  0.00  0.00    +0.000 C 
ATOM      4  C   UNL     1      88.885  70.152  87.934  0.00  0.00    +0.000 C 
ATOM      5  C   UNL     1      89.563  70.681  86.666  0.00  0.00    +0.000 C 
ATOM      6  C   UNL     1      89.061  69.771  85.529  0.00  0.00    +0.000 C 
ATOM      7  C   UNL     1      89.961  69.773  84.287  0.00  0.00    +0.000 C 
ENDROOT
BRANCH   2   8
ATOM      8  N   UNL     1      90.365  67.807  86.475  0.00  0.00    +0.000 NA
ATOM      9  O   UNL     1      90.386  66.571  86.498  0.00  0.00    +0.000 OA
ENDBRANCH   2   8
BRANCH   6  10
ATOM     10  O   UNL     1      87.695  70.138  85.152  0.00  0.00    +0.000 OA
BRANCH  10  11
ATOM     11  C   UNL     1      87.368  71.421  84.866  0.00  0.00    +0.000 C 
ATOM     12  O   UNL     1      87.977  72.177  84.128  0.00  0.00    +0.000 OA
BRANCH  11  13
ATOM     13  C   UNL     1      86.123  71.810  85.583  0.00  0.00    +0.000 A 
ATOM     14  C   UNL     1      85.060  72.324  84.827  0.00  0.00    +0.000 A 
ATOM     15  C   UNL     1      83.870  72.705  85.452  0.00  0.00    +0.000 A 
ATOM     16  C   UNL     1      83.736  72.577  86.834  0.00  0.00    +0.000 A 
ATOM     17  C   UNL     1      84.790  72.070  87.593  0.00  0.00    +0.000 A 
ATOM     18  C   UNL     1      85.982  71.687  86.973  0.00  0.00    +0.000 A 
ENDBRANCH  11  13
ENDBRANCH  10  11
ENDBRANCH   6  10
TORSDOF 4
ENDMDL
