REMARK  Name = *****
REMARK  6 active torsions:
REMARK  status: ('A' for Active; 'I' for Inactive)
REMARK    1  A    between atoms: C_1  and  C_2
REMARK    2  A    between atoms: C_4  and  C_9
REMARK    3  A    between atoms: C_5  and  C_8
REMARK    4  A    between atoms: C_9  and  C_10
REMARK    5  A    between atoms: C_10  and  C_11
REMARK    6  A    between atoms: C_11  and  C_13
REMARK                            x       y       z     vdW  Elec       q    Type
REMARK                         _______ _______ _______ _____ _____    ______ ____
ROOT
ATOM      1  C   UNL     1      -0.570   3.637  -0.384  0.00  0.00    +0.000 C 
ENDROOT
BRANCH   1   2
ATOM      2  C   UNL     1      -1.349   4.933  -0.509  0.00  0.00    +0.000 C 
ATOM      3  O   UNL     1      -2.568   4.984  -0.359  0.00  0.00    +0.000 OA
BRANCH   2   4
ATOM      4  C   UNL     1      -0.602   6.190  -0.827  0.00  0.00    +0.000 A 
ATOM      5  C   UNL     1      -1.332   7.377  -0.987  0.00  0.00    +0.000 A 
ATOM      6  C   UNL     1      -0.680   8.577  -1.287  0.00  0.00    +0.000 A 
ATOM      7  C   UNL     1       0.705   8.594  -1.428  0.00  0.00    +0.000 A 
ATOM      8  C   UNL     1       1.442   7.422  -1.271  0.00  0.00    +0.000 A 
ATOM      9  C   UNL     1       0.792   6.219  -0.971  0.00  0.00    +0.000 A 
ATOM     10 CL   UNL     1       1.510  10.067  -1.797  0.00  0.00    +0.000 Cl
ENDBRANCH   2   4
ENDBRANCH   1   2
BRANCH   1  11
ATOM     11  C   UNL     1      -1.490   2.447  -0.107  0.00  0.00    +0.000 C 
BRANCH  11  15
ATOM     12  C   UNL     1       0.615  -1.500  -2.390  0.00  0.00    +0.000 C 
ATOM     13  C   UNL     1       0.346  -0.735  -1.129  0.00  0.00    +0.000 A 
ATOM     14  C   UNL     1      -0.404   0.447  -1.163  0.00  0.00    +0.000 A 
ATOM     15  C   UNL     1      -0.701   1.161   0.014  0.00  0.00    +0.000 A 
ATOM     16  C   UNL     1      -0.232   0.674   1.250  0.00  0.00    +0.000 A 
ATOM     17  C   UNL     1       0.500  -0.523   1.278  0.00  0.00    +0.000 A 
ATOM     18  C   UNL     1       0.783  -1.221   0.103  0.00  0.00    +0.000 A 
ATOM     19  C   UNL     1      -0.525   1.377   2.548  0.00  0.00    +0.000 C 
ENDBRANCH  11  15
ENDBRANCH   1  11
TORSDOF 4
