MODEL 1
REMARK VINA RESULT:      -4.6      0.000      0.000
REMARK  Name = *****
REMARK  2 active torsions:
REMARK  status: ('A' for Active; 'I' for Inactive)
REMARK    1  A    between atoms: C_6  and  C_7
REMARK    2  A    between atoms: C_8  and  C_9
REMARK                            x       y       z     vdW  Elec       q    Type
REMARK                         _______ _______ _______ _____ _____    ______ ____
ROOT
ATOM      1  C   UNL     1     102.438 126.306  81.651  0.00  0.00    +0.000 C 
ATOM      2  C   UNL     1     101.435 126.082  82.514  0.00  0.00    +0.000 C 
ENDROOT
BRANCH   1   8
ATOM      3  C   UNL     1     104.155 125.279  80.127  0.00  0.00    +0.000 A 
ATOM      4  C   UNL     1     105.148 124.322  79.889  0.00  0.00    +0.000 A 
ATOM      5  C   UNL     1     105.490 123.415  80.888  0.00  0.00    +0.000 A 
ATOM      6  C   UNL     1     104.845 123.451  82.121  0.00  0.00    +0.000 A 
ATOM      7  C   UNL     1     103.852 124.406  82.358  0.00  0.00    +0.000 A 
ATOM      8  C   UNL     1     103.507 125.338  81.368  0.00  0.00    +0.000 A 
ATOM      9 CL   UNL     1     106.712 122.240  80.595  0.00  0.00    +0.000 Cl
ENDBRANCH   1   8
BRANCH   2  10
ATOM     10  C   UNL     1     100.423 127.060  82.730  0.00  0.00    +0.000 A 
ATOM     11  C   UNL     1      99.063 126.970  82.457  0.00  0.00    +0.000 A 
ATOM     12  C   UNL     1      98.460 128.191  82.842  0.00  0.00    +0.000 A 
ATOM     13  C   UNL     1      99.473 128.978  83.334  0.00  0.00    +0.000 A 
ATOM     14  O   UNL     1     100.651 128.307  83.270  0.00  0.00    +0.000 OA
ATOM     15 CL   UNL     1      99.327 130.576  83.947  0.00  0.00    +0.000 Cl
ENDBRANCH   2  10
TORSDOF 2
ENDMDL
