MODEL 1
REMARK VINA RESULT:      -4.3      0.000      0.000
REMARK  Name = *****
REMARK  3 active torsions:
REMARK  status: ('A' for Active; 'I' for Inactive)
REMARK    1  A    between atoms: C_2  and  C_3
REMARK    2  A    between atoms: C_8  and  C_9
REMARK    3  A    between atoms: C_10  and  C_11
REMARK                            x       y       z     vdW  Elec       q    Type
REMARK                         _______ _______ _______ _____ _____    ______ ____
ROOT
ATOM      1  C   UNL     1     101.878 127.881  83.272  0.00  0.00    +0.000 A 
ATOM      2  C   UNL     1     100.839 128.765  83.610  0.00  0.00    +0.000 A 
ATOM      3  C   UNL     1      99.512 128.471  83.295  0.00  0.00    +0.000 A 
ATOM      4  C   UNL     1      99.203 127.289  82.628  0.00  0.00    +0.000 A 
ATOM      5  C   UNL     1     100.222 126.405  82.273  0.00  0.00    +0.000 A 
ATOM      6  C   UNL     1     101.564 126.692  82.576  0.00  0.00    +0.000 A 
ENDROOT
BRANCH   1   8
ATOM      7  C   UNL     1     104.044 128.994  82.789  0.00  0.00    +0.000 C 
ATOM      8  C   UNL     1     103.272 128.245  83.585  0.00  0.00    +0.000 C 
ENDBRANCH   1   8
BRANCH   6   9
ATOM      9  C   UNL     1     102.604 125.712  82.212  0.00  0.00    +0.000 C 
ATOM     10  C   UNL     1     103.156 125.668  80.989  0.00  0.00    +0.000 C 
BRANCH  10  11
ATOM     11  C   UNL     1     104.171 124.729  80.638  0.00  0.00    +0.000 A 
ATOM     12  C   UNL     1     104.370 123.412  81.023  0.00  0.00    +0.000 A 
ATOM     13  C   UNL     1     105.525 122.818  80.433  0.00  0.00    +0.000 A 
ATOM     14  C   UNL     1     106.187 123.695  79.609  0.00  0.00    +0.000 A 
ATOM     15  S   UNL     1     105.417 125.217  79.545  0.00  0.00    +0.000 S 
ENDBRANCH  10  11
ENDBRANCH   6   9
TORSDOF 3
ENDMDL
