MODEL 1
REMARK VINA RESULT:      -4.8      0.000      0.000
REMARK  Name = *****
REMARK  3 active torsions:
REMARK  status: ('A' for Active; 'I' for Inactive)
REMARK    1  A    between atoms: C_6  and  C_7
REMARK    2  A    between atoms: C_7  and  C_8
REMARK    3  A    between atoms: C_8  and  C_9
REMARK                            x       y       z     vdW  Elec       q    Type
REMARK                         _______ _______ _______ _____ _____    ______ ____
ROOT
ATOM      1  C   UNL     1      88.773  70.236  86.856  0.00  0.00    +0.000 C 
ATOM      2  F   UNL     1      89.986  70.805  86.572  0.00  0.00    +0.000 F 
ENDROOT
BRANCH   1   3
ATOM      3  C   UNL     1      88.856  68.722  86.868  0.00  0.00    +0.000 A 
ATOM      4  C   UNL     1      87.828  67.960  87.443  0.00  0.00    +0.000 A 
ATOM      5  C   UNL     1      87.905  66.565  87.464  0.00  0.00    +0.000 A 
ATOM      6  C   UNL     1      89.012  65.925  86.911  0.00  0.00    +0.000 A 
ATOM      7  C   UNL     1      90.041  66.667  86.336  0.00  0.00    +0.000 A 
ATOM      8  C   UNL     1      89.964  68.062  86.313  0.00  0.00    +0.000 A 
ATOM      9 CL   UNL     1      89.108  64.207  86.938  0.00  0.00    +0.000 Cl
ENDBRANCH   1   3
BRANCH   1  10
ATOM     10  C   UNL     1      87.760  70.730  85.813  0.00  0.00    +0.000 C 
BRANCH  10  16
ATOM     11  C   UNL     1      85.514  71.887  85.655  0.00  0.00    +0.000 A 
ATOM     12  C   UNL     1      84.380  72.443  86.248  0.00  0.00    +0.000 A 
ATOM     13  C   UNL     1      84.267  72.460  87.633  0.00  0.00    +0.000 A 
ATOM     14  C   UNL     1      85.266  71.928  88.438  0.00  0.00    +0.000 A 
ATOM     15  C   UNL     1      86.401  71.369  87.848  0.00  0.00    +0.000 A 
ATOM     16  C   UNL     1      86.536  71.348  86.451  0.00  0.00    +0.000 A 
ATOM     17  F   UNL     1      83.178  72.994  88.200  0.00  0.00    +0.000 F 
ENDBRANCH  10  16
ENDBRANCH   1  10
TORSDOF 3
ENDMDL
