MODEL 1
REMARK VINA RESULT:      -4.2      0.000      0.000
REMARK  Name = *****
REMARK  3 active torsions:
REMARK  status: ('A' for Active; 'I' for Inactive)
REMARK    1  A    between atoms: C_4  and  C_7
REMARK    2  A    between atoms: C_8  and  C_9
REMARK    3  A    between atoms: C_10  and  C_14
REMARK                            x       y       z     vdW  Elec       q    Type
REMARK                         _______ _______ _______ _____ _____    ______ ____
ROOT
ATOM      1  C   UNL     1     102.235 127.031  82.098  0.00  0.00    +0.000 C 
ATOM      2  C   UNL     1     101.746 127.253  83.328  0.00  0.00    +0.000 C 
ENDROOT
BRANCH   1   6
ATOM      3  C   UNL     1     104.680 123.646  81.166  0.00  0.00    +0.000 A 
ATOM      4  C   UNL     1     104.366 124.561  80.163  0.00  0.00    +0.000 A 
ATOM      5  C   UNL     1     103.564 125.668  80.450  0.00  0.00    +0.000 A 
ATOM      6  C   UNL     1     103.058 125.865  81.743  0.00  0.00    +0.000 A 
ATOM      7  C   UNL     1     103.396 124.948  82.747  0.00  0.00    +0.000 A 
ATOM      8  C   UNL     1     104.198 123.841  82.458  0.00  0.00    +0.000 A 
ENDBRANCH   1   6
BRANCH   2   9
ATOM      9  C   UNL     1     100.965 128.409  83.608  0.00  0.00    +0.000 A 
ATOM     10  C   UNL     1      99.622 128.683  83.368  0.00  0.00    +0.000 A 
ATOM     11  N   UNL     1      99.270 129.940  83.803  0.00  0.00    +0.000 NA
ATOM     12  C   UNL     1     100.392 130.403  84.295  0.00  0.00    +0.000 A 
ATOM     13  O   UNL     1     101.450 129.557  84.218  0.00  0.00    +0.000 OA
BRANCH  10  14
ATOM     14  C   UNL     1      98.669 127.820  82.747  0.00  0.00    +0.000 C 
ATOM     15  N   UNL     1      97.914 127.086  82.256  0.00  0.00    +0.000 NA
ENDBRANCH  10  14
ENDBRANCH   2   9
TORSDOF 3
ENDMDL
