MODEL 1
REMARK VINA RESULT:      -4.5      0.000      0.000
REMARK  Name = *****
REMARK  3 active torsions:
REMARK  status: ('A' for Active; 'I' for Inactive)
REMARK    1  A    between atoms: C_3  and  C_8
REMARK    2  A    between atoms: C_8  and  S_9
REMARK    3  A    between atoms: S_9  and  C_11
REMARK                            x       y       z     vdW  Elec       q    Type
REMARK                         _______ _______ _______ _____ _____    ______ ____
ROOT
ATOM      1  S   UNL     1     103.473 126.821  81.013  0.00  0.00    +0.000 S 
ATOM      2  O   UNL     1     104.743 127.548  80.668  0.00  0.00    +0.000 OA
ENDROOT
BRANCH   1   3
ATOM      3  C   UNL     1     103.973 125.121  81.378  0.00  0.00    +0.000 A 
ATOM      4  C   UNL     1     103.871 124.634  82.688  0.00  0.00    +0.000 A 
ATOM      5  C   UNL     1     104.252 123.323  82.980  0.00  0.00    +0.000 A 
ATOM      6  C   UNL     1     104.724 122.502  81.962  0.00  0.00    +0.000 A 
ATOM      7  C   UNL     1     104.820 122.966  80.655  0.00  0.00    +0.000 A 
ATOM      8  C   UNL     1     104.443 124.277  80.362  0.00  0.00    +0.000 A 
ATOM      9  F   UNL     1     105.088 121.244  82.244  0.00  0.00    +0.000 F 
ENDBRANCH   1   3
BRANCH   1  10
ATOM     10  C   UNL     1     103.015 127.289  82.718  0.00  0.00    +0.000 C 
BRANCH  10  13
ATOM     11  C   UNL     1      99.231 126.877  82.496  0.00  0.00    +0.000 A 
ATOM     12  C   UNL     1     100.599 126.633  82.372  0.00  0.00    +0.000 A 
ATOM     13  C   UNL     1     101.538 127.564  82.845  0.00  0.00    +0.000 A 
ATOM     14  C   UNL     1     101.077 128.738  83.459  0.00  0.00    +0.000 A 
ATOM     15  C   UNL     1      99.707 128.974  83.581  0.00  0.00    +0.000 A 
ATOM     16  C   UNL     1      98.783 128.050  83.101  0.00  0.00    +0.000 A 
ATOM     17 CL   UNL     1      99.157 130.421  84.336  0.00  0.00    +0.000 Cl
ENDBRANCH  10  13
ENDBRANCH   1  10
TORSDOF 3
ENDMDL
