MODEL 1
REMARK VINA RESULT:      -4.8      0.000      0.000
REMARK  Name = *****
REMARK  3 active torsions:
REMARK  status: ('A' for Active; 'I' for Inactive)
REMARK    1  A    between atoms: C_3  and  N_8
REMARK    2  A    between atoms: N_8  and  N_9
REMARK    3  A    between atoms: N_9  and  C_11
REMARK                            x       y       z     vdW  Elec       q    Type
REMARK                         _______ _______ _______ _____ _____    ______ ____
ROOT
ATOM      1  N   UNL     1     101.844 125.969  81.826  0.00  0.00    +0.000 N 
ATOM      2  H   UNL     1     101.754 125.862  80.852  0.00  0.00    +0.000 HD
ENDROOT
BRANCH   1   5
ATOM      3  C   UNL     1     100.695 128.963  83.698  0.00  0.00    +0.000 A 
ATOM      4  C   UNL     1     101.511 128.004  83.086  0.00  0.00    +0.000 A 
ATOM      5  C   UNL     1     100.965 126.902  82.401  0.00  0.00    +0.000 A 
ATOM      6  C   UNL     1      99.573 126.782  82.365  0.00  0.00    +0.000 A 
ATOM      7  C   UNL     1      98.766 127.740  82.977  0.00  0.00    +0.000 A 
ATOM      8  C   UNL     1      99.313 128.828  83.641  0.00  0.00    +0.000 A 
ATOM      9  F   UNL     1      97.433 127.606  82.926  0.00  0.00    +0.000 F 
ENDBRANCH   1   5
BRANCH   1  10
ATOM     10  N   UNL     1     102.841 125.153  82.426  0.00  0.00    +0.000 N 
ATOM     11  O   UNL     1     102.859 124.924  83.618  0.00  0.00    +0.000 OA
BRANCH  10  12
ATOM     12  C   UNL     1     103.850 124.524  81.598  0.00  0.00    +0.000 A 
ATOM     13  C   UNL     1     104.278 125.143  80.419  0.00  0.00    +0.000 A 
ATOM     14  C   UNL     1     105.244 124.512  79.644  0.00  0.00    +0.000 A 
ATOM     15  C   UNL     1     105.789 123.289  80.022  0.00  0.00    +0.000 A 
ATOM     16  C   UNL     1     105.369 122.680  81.204  0.00  0.00    +0.000 A 
ATOM     17  C   UNL     1     104.399 123.298  81.996  0.00  0.00    +0.000 A 
ATOM     18  F   UNL     1     105.659 125.096  78.511  0.00  0.00    +0.000 F 
ENDBRANCH  10  12
ENDBRANCH   1  10
TORSDOF 3
ENDMDL
