MODEL 1
REMARK VINA RESULT:      -4.4      0.000      0.000
REMARK  Name = *****
REMARK  3 active torsions:
REMARK  status: ('A' for Active; 'I' for Inactive)
REMARK    1  A    between atoms: C_3  and  C_6
REMARK    2  A    between atoms: C_6  and  C_7
REMARK    3  A    between atoms: C_7  and  C_8
REMARK                            x       y       z     vdW  Elec       q    Type
REMARK                         _______ _______ _______ _____ _____    ______ ____
ROOT
ATOM      1  C   UNL     1     102.067 127.070  82.048  0.00  0.00    +0.000 C 
ENDROOT
BRANCH   1   2
ATOM      2  C   UNL     1     102.948 125.857  81.867  0.00  0.00    +0.000 A 
ATOM      3  C   UNL     1     103.437 125.520  80.597  0.00  0.00    +0.000 A 
ATOM      4  C   UNL     1     104.239 124.391  80.423  0.00  0.00    +0.000 A 
ATOM      5  C   UNL     1     104.554 123.590  81.520  0.00  0.00    +0.000 A 
ATOM      6  C   UNL     1     104.070 123.909  82.788  0.00  0.00    +0.000 A 
ATOM      7  C   UNL     1     103.266 125.039  82.959  0.00  0.00    +0.000 A 
ATOM      8  I   UNL     1     105.748 121.907  81.264  0.00  0.00    +0.000 I 
ENDBRANCH   1   2
BRANCH   1   9
ATOM      9  C   UNL     1     100.631 126.676  82.410  0.00  0.00    +0.000 C 
BRANCH   9  12
ATOM     10  C   UNL     1      99.326 129.699  83.436  0.00  0.00    +0.000 C 
ATOM     11  C   UNL     1      98.987 128.433  83.145  0.00  0.00    +0.000 C 
ATOM     12  C   UNL     1     100.081 127.491  83.587  0.00  0.00    +0.000 C 
ATOM     13  C   UNL     1     101.078 128.458  84.178  0.00  0.00    +0.000 C 
ATOM     14  C   UNL     1     100.616 129.713  84.075  0.00  0.00    +0.000 C 
ENDBRANCH   9  12
ENDBRANCH   1   9
TORSDOF 3
ENDMDL
