MODEL 1
REMARK VINA RESULT:      -4.9      0.000      0.000
REMARK  Name = *****
REMARK  4 active torsions:
REMARK  status: ('A' for Active; 'I' for Inactive)
REMARK    1  A    between atoms: C_1  and  C_2
REMARK    2  A    between atoms: C_4  and  C_16
REMARK    3  A    between atoms: C_6  and  C_8
REMARK    4  A    between atoms: C_9  and  C_10
REMARK                            x       y       z     vdW  Elec       q    Type
REMARK                         _______ _______ _______ _____ _____    ______ ____
ROOT
ATOM      1  C   UNL     1     104.872 121.669  81.462  0.00  0.00    +0.000 C 
ATOM      2  C   UNL     1     104.866 123.031  80.833  0.00  0.00    +0.000 A 
ATOM      3  C   UNL     1     105.811 123.366  79.855  0.00  0.00    +0.000 A 
ATOM      4  C   UNL     1     105.832 124.647  79.289  0.00  0.00    +0.000 A 
ATOM      5  C   UNL     1     104.912 125.607  79.735  0.00  0.00    +0.000 A 
ATOM      6  C   UNL     1     103.959 125.292  80.711  0.00  0.00    +0.000 A 
ATOM      7  C   UNL     1     103.956 124.005  81.266  0.00  0.00    +0.000 A 
ATOM      8  C   UNL     1     106.873 125.009  78.272  0.00  0.00    +0.000 C 
ENDROOT
BRANCH   6   9
ATOM      9  C   UNL     1     103.003 126.284  81.219  0.00  0.00    +0.000 C 
ATOM     10  C   UNL     1     101.965 125.984  82.018  0.00  0.00    +0.000 C 
BRANCH  10  11
ATOM     11  C   UNL     1     101.016 126.980  82.538  0.00  0.00    +0.000 A 
ATOM     12  C   UNL     1     101.485 128.096  83.226  0.00  0.00    +0.000 A 
ATOM     13  C   UNL     1     100.568 129.026  83.710  0.00  0.00    +0.000 A 
ATOM     14  C   UNL     1      99.212 128.816  83.496  0.00  0.00    +0.000 A 
ATOM     15  C   UNL     1      98.829 127.682  82.802  0.00  0.00    +0.000 A 
ATOM     16  N   UNL     1      99.697 126.764  82.322  0.00  0.00    +0.000 NA
ENDBRANCH  10  11
ENDBRANCH   6   9
TORSDOF 2
ENDMDL
