MODEL 1
REMARK VINA RESULT:      -4.8      0.000      0.000
REMARK  Name = *****
REMARK  4 active torsions:
REMARK  status: ('A' for Active; 'I' for Inactive)
REMARK    1  A    between atoms: C_1  and  C_2
REMARK    2  A    between atoms: C_4  and  O_8
REMARK    3  A    between atoms: O_8  and  C_9
REMARK    4  A    between atoms: C_9  and  C_11
REMARK                            x       y       z     vdW  Elec       q    Type
REMARK                         _______ _______ _______ _____ _____    ______ ____
ROOT
ATOM      1  O   UNL     1     102.620 126.886  82.965  0.00  0.00    +0.000 OA
ENDROOT
BRANCH   1   5
ATOM      2  C   UNL     1      99.421 130.529  83.970  0.00  0.00    +0.000 C 
ATOM      3  C   UNL     1      99.725 129.149  83.472  0.00  0.00    +0.000 A 
ATOM      4  C   UNL     1     101.039 128.665  83.490  0.00  0.00    +0.000 A 
ATOM      5  C   UNL     1     101.310 127.382  83.012  0.00  0.00    +0.000 A 
ATOM      6  C   UNL     1     100.304 126.588  82.468  0.00  0.00    +0.000 A 
ATOM      7  C   UNL     1      98.998 127.073  82.432  0.00  0.00    +0.000 A 
ATOM      8  C   UNL     1      98.711 128.347  82.929  0.00  0.00    +0.000 A 
ENDBRANCH   1   5
BRANCH   1   9
ATOM      9  C   UNL     1     103.124 126.628  81.704  0.00  0.00    +0.000 C 
ATOM     10  O   UNL     1     103.117 127.373  80.736  0.00  0.00    +0.000 OA
BRANCH   9  11
ATOM     11  C   UNL     1     103.712 125.259  81.670  0.00  0.00    +0.000 A 
ATOM     12  C   UNL     1     103.788 124.544  82.875  0.00  0.00    +0.000 A 
ATOM     13  C   UNL     1     104.331 123.258  82.900  0.00  0.00    +0.000 A 
ATOM     14  C   UNL     1     104.801 122.677  81.724  0.00  0.00    +0.000 A 
ATOM     15  C   UNL     1     104.730 123.378  80.521  0.00  0.00    +0.000 A 
ATOM     16  C   UNL     1     104.188 124.666  80.491  0.00  0.00    +0.000 A 
ENDBRANCH   9  11
ENDBRANCH   1   9
TORSDOF 3
ENDMDL
