MODEL 1
REMARK VINA RESULT:      -4.5      0.000      0.000
REMARK  Name = *****
REMARK  5 active torsions:
REMARK  status: ('A' for Active; 'I' for Inactive)
REMARK    1  A    between atoms: C_1  and  C_2
REMARK    2  A    between atoms: C_7  and  N_8
REMARK    3  A    between atoms: N_8  and  C_9
REMARK    4  A    between atoms: C_10  and  C_12
REMARK    5  A    between atoms: C_12  and  C_13
REMARK                            x       y       z     vdW  Elec       q    Type
REMARK                         _______ _______ _______ _____ _____    ______ ____
ROOT
ATOM      1  N   UNL     1      89.119  69.144  86.095  0.00  0.00    +0.000 N 
ATOM      2  C   UNL     1      89.901  70.283  85.614  0.00  0.00    +0.000 C 
ATOM      3  C   UNL     1      88.227  69.231  87.187  0.00  0.00    +0.000 C 
ATOM      4  O   UNL     1      87.638  68.244  87.641  0.00  0.00    +0.000 OA
ENDROOT
BRANCH   1  11
ATOM      5  C   UNL     1      87.581  68.120  83.711  0.00  0.00    +0.000 C 
ATOM      6  C   UNL     1      88.750  67.409  84.338  0.00  0.00    +0.000 A 
ATOM      7  C   UNL     1      89.160  66.197  83.748  0.00  0.00    +0.000 A 
ATOM      8  C   UNL     1      90.178  65.431  84.312  0.00  0.00    +0.000 A 
ATOM      9  C   UNL     1      90.802  65.862  85.474  0.00  0.00    +0.000 A 
ATOM     10  C   UNL     1      90.423  67.071  86.059  0.00  0.00    +0.000 A 
ATOM     11  C   UNL     1      89.413  67.871  85.497  0.00  0.00    +0.000 A 
ENDBRANCH   1  11
BRANCH   3  12
ATOM     12  C   UNL     1      87.988  70.632  87.789  0.00  0.00    +0.000 C 
ATOM     13 CL   UNL     1      88.146  70.497  89.571  0.00  0.00    +0.000 Cl
BRANCH  12  14
ATOM     14  C   UNL     1      86.654  71.263  87.421  0.00  0.00    +0.000 A 
ATOM     15  C   UNL     1      85.716  71.643  88.396  0.00  0.00    +0.000 A 
ATOM     16  C   UNL     1      84.499  72.222  88.032  0.00  0.00    +0.000 A 
ATOM     17  C   UNL     1      84.198  72.430  86.689  0.00  0.00    +0.000 A 
ATOM     18  C   UNL     1      85.115  72.059  85.708  0.00  0.00    +0.000 A 
ATOM     19  C   UNL     1      86.333  71.480  86.070  0.00  0.00    +0.000 A 
ENDBRANCH  12  14
ENDBRANCH   3  12
TORSDOF 3
ENDMDL
