MODEL 1
REMARK VINA RESULT:      -4.3      0.000      0.000
REMARK  Name = *****
REMARK  4 active torsions:
REMARK  status: ('A' for Active; 'I' for Inactive)
REMARK    1  A    between atoms: C_5  and  C_7
REMARK    2  A    between atoms: C_7  and  C_9
REMARK    3  A    between atoms: C_9  and  C_10
REMARK    4  A    between atoms: C_10  and  C_11
REMARK                            x       y       z     vdW  Elec       q    Type
REMARK                         _______ _______ _______ _____ _____    ______ ____
ROOT
ATOM      1  C   UNL     1      88.575  67.416  86.077  0.00  0.00    +0.000 C 
ATOM      2  O   UNL     1      87.963  67.380  85.009  0.00  0.00    +0.000 OA
ENDROOT
BRANCH   1   7
ATOM      3  C   UNL     1      88.375  64.523  88.504  0.00  0.00    +0.000 A 
ATOM      4  C   UNL     1      87.288  64.874  89.302  0.00  0.00    +0.000 A 
ATOM      5  C   UNL     1      86.605  66.064  89.055  0.00  0.00    +0.000 A 
ATOM      6  C   UNL     1      87.011  66.899  88.014  0.00  0.00    +0.000 A 
ATOM      7  C   UNL     1      88.098  66.563  87.205  0.00  0.00    +0.000 A 
ATOM      8  C   UNL     1      88.778  65.361  87.462  0.00  0.00    +0.000 A 
ATOM      9  F   UNL     1      86.318  68.031  87.826  0.00  0.00    +0.000 F 
ENDBRANCH   1   7
BRANCH   1  10
ATOM     10  C   UNL     1      89.793  68.300  86.271  0.00  0.00    +0.000 C 
BRANCH  10  11
ATOM     11  C   UNL     1      89.479  69.766  85.968  0.00  0.00    +0.000 C 
BRANCH  11  12
ATOM     12  C   UNL     1      88.507  70.340  86.969  0.00  0.00    +0.000 A 
ATOM     13  C   UNL     1      87.307  70.927  86.539  0.00  0.00    +0.000 A 
ATOM     14  C   UNL     1      86.402  71.435  87.472  0.00  0.00    +0.000 A 
ATOM     15  C   UNL     1      86.676  71.361  88.836  0.00  0.00    +0.000 A 
ATOM     16  C   UNL     1      87.864  70.775  89.272  0.00  0.00    +0.000 A 
ATOM     17  C   UNL     1      88.773  70.265  88.344  0.00  0.00    +0.000 A 
ATOM     18 CL   UNL     1      84.934  72.152  86.932  0.00  0.00    +0.000 Cl
ENDBRANCH  11  12
ENDBRANCH  10  11
ENDBRANCH   1  10
TORSDOF 4
ENDMDL
