REMARK  Name = *****
REMARK  6 active torsions:
REMARK  status: ('A' for Active; 'I' for Inactive)
REMARK    1  A    between atoms: C_4  and  C_7
REMARK    2  A    between atoms: C_7  and  C_8
REMARK    3  A    between atoms: C_7  and  O_16
REMARK    4  A    between atoms: C_8  and  C_10
REMARK    5  A    between atoms: O_16  and  C_17
REMARK    6  A    between atoms: C_17  and  C_18
REMARK                            x       y       z     vdW  Elec       q    Type
REMARK                         _______ _______ _______ _____ _____    ______ ____
ROOT
ATOM      1  C   UNL     1      -2.948   0.354  -0.135  0.00  0.00    +0.000 C 
ENDROOT
BRANCH   1   5
ATOM      2  C   UNL     1       1.271  -0.284   0.579  0.00  0.00    +0.000 A 
ATOM      3  C   UNL     1       0.487   0.341   1.546  0.00  0.00    +0.000 A 
ATOM      4  C   UNL     1      -0.874   0.550   1.316  0.00  0.00    +0.000 A 
ATOM      5  C   UNL     1      -1.465   0.143   0.108  0.00  0.00    +0.000 A 
ATOM      6  C   UNL     1      -0.665  -0.502  -0.849  0.00  0.00    +0.000 A 
ATOM      7  C   UNL     1       0.695  -0.709  -0.616  0.00  0.00    +0.000 A 
ENDBRANCH   1   5
BRANCH   1   8
ATOM      8  C   UNL     1      -3.229   1.052  -1.485  0.00  0.00    +0.000 C 
ATOM      9  O   UNL     1      -3.721   0.455  -2.447  0.00  0.00    +0.000 OA
BRANCH   8  10
ATOM     10  C   UNL     1      -2.927   2.512  -1.645  0.00  0.00    +0.000 A 
ATOM     11  C   UNL     1      -2.455   3.320  -0.603  0.00  0.00    +0.000 A 
ATOM     12  C   UNL     1      -2.207   4.680  -0.820  0.00  0.00    +0.000 A 
ATOM     13  C   UNL     1      -2.432   5.245  -2.074  0.00  0.00    +0.000 A 
ATOM     14  C   UNL     1      -2.904   4.453  -3.116  0.00  0.00    +0.000 A 
ATOM     15  C   UNL     1      -3.150   3.095  -2.904  0.00  0.00    +0.000 A 
ENDBRANCH   8  10
ENDBRANCH   1   8
BRANCH   1  16
ATOM     16  O   UNL     1      -3.577  -0.935  -0.126  0.00  0.00    +0.000 OA
BRANCH  16  17
ATOM     17  C   UNL     1      -4.074  -1.316   1.156  0.00  0.00    +0.000 C 
BRANCH  17  18
ATOM     18  C   UNL     1      -4.676  -2.708   1.049  0.00  0.00    +0.000 C 
ATOM     19 CL   UNL     1      -5.330  -3.234   2.615  0.00  0.00    +0.000 Cl
ENDBRANCH  17  18
ENDBRANCH  16  17
ENDBRANCH   1  16
TORSDOF 6
