MODEL 1
REMARK VINA RESULT:      -4.3      0.000      0.000
REMARK  Name = *****
REMARK  3 active torsions:
REMARK  status: ('A' for Active; 'I' for Inactive)
REMARK    1  A    between atoms: C_4  and  C_7
REMARK    2  A    between atoms: C_7  and  C_9
REMARK    3  A    between atoms: C_9  and  C_10
REMARK                            x       y       z     vdW  Elec       q    Type
REMARK                         _______ _______ _______ _____ _____    ______ ____
ROOT
ATOM      1  C   UNL     1      87.119  70.423  85.525  0.00  0.00    +0.000 C 
ENDROOT
BRANCH   1   2
ATOM      2  C   UNL     1      87.273  70.743  86.996  0.00  0.00    +0.000 A 
ATOM      3  C   UNL     1      88.387  70.275  87.721  0.00  0.00    +0.000 A 
ATOM      4  C   UNL     1      88.527  70.541  89.088  0.00  0.00    +0.000 A 
ATOM      5  C   UNL     1      87.552  71.269  89.762  0.00  0.00    +0.000 A 
ATOM      6  C   UNL     1      86.435  71.726  89.070  0.00  0.00    +0.000 A 
ATOM      7  C   UNL     1      86.292  71.461  87.702  0.00  0.00    +0.000 A 
ATOM      8 CL   UNL     1      84.860  72.062  86.937  0.00  0.00    +0.000 Cl
ATOM      9 CL   UNL     1      89.640  69.345  86.969  0.00  0.00    +0.000 Cl
ENDBRANCH   1   2
BRANCH   1  10
ATOM     10  C   UNL     1      87.461  71.600  84.622  0.00  0.00    +0.000 C 
ATOM     11  O   UNL     1      86.589  72.316  84.127  0.00  0.00    +0.000 OA
BRANCH  10  15
ATOM     12  C   UNL     1      91.292  72.258  82.627  0.00  0.00    +0.000 C 
ATOM     13  C   UNL     1      90.610  73.443  83.305  0.00  0.00    +0.000 C 
ATOM     14  C   UNL     1      89.137  73.164  83.592  0.00  0.00    +0.000 C 
ATOM     15  C   UNL     1      88.949  71.873  84.397  0.00  0.00    +0.000 C 
ATOM     16  C   UNL     1      89.635  70.689  83.703  0.00  0.00    +0.000 C 
ATOM     17  C   UNL     1      91.110  70.974  83.430  0.00  0.00    +0.000 C 
ENDBRANCH  10  15
ENDBRANCH   1  10
TORSDOF 3
ENDMDL
