MODEL 1
REMARK VINA RESULT:      -4.9      0.000      0.000
REMARK  Name = *****
REMARK  3 active torsions:
REMARK  status: ('A' for Active; 'I' for Inactive)
REMARK    1  A    between atoms: C_4  and  C_7
REMARK    2  A    between atoms: C_8  and  C_9
REMARK    3  A    between atoms: C_12  and  C_15
REMARK                            x       y       z     vdW  Elec       q    Type
REMARK                         _______ _______ _______ _____ _____    ______ ____
ROOT
ATOM      1  C   UNL     1     103.619 124.922  81.367  0.00  0.00    +0.000 A 
ATOM      2  C   UNL     1     104.287 124.783  80.144  0.00  0.00    +0.000 A 
ATOM      3  C   UNL     1     105.261 123.791  79.967  0.00  0.00    +0.000 A 
ATOM      4  C   UNL     1     105.589 122.926  81.017  0.00  0.00    +0.000 A 
ATOM      5  C   UNL     1     104.933 123.076  82.248  0.00  0.00    +0.000 A 
ATOM      6  C   UNL     1     103.962 124.068  82.421  0.00  0.00    +0.000 A 
ENDROOT
BRANCH   4   7
ATOM      7  C   UNL     1     106.625 121.850  80.872  0.00  0.00    +0.000 C 
ATOM      8  O   UNL     1     107.642 122.130  80.239  0.00  0.00    +0.000 OA
ATOM      9 CL   UNL     1     106.356 120.277  81.592  0.00  0.00    +0.000 Cl
ENDBRANCH   4   7
BRANCH   1  11
ATOM     10  C   UNL     1     101.838 126.033  82.691  0.00  0.00    +0.000 C 
ATOM     11  C   UNL     1     102.617 125.972  81.599  0.00  0.00    +0.000 C 
BRANCH  10  15
ATOM     12  C   UNL     1      98.918 129.104  83.278  0.00  0.00    +0.000 A 
ATOM     13  C   UNL     1     100.225 129.308  83.715  0.00  0.00    +0.000 A 
ATOM     14  C   UNL     1     101.187 128.310  83.537  0.00  0.00    +0.000 A 
ATOM     15  C   UNL     1     100.849 127.095  82.928  0.00  0.00    +0.000 A 
ATOM     16  C   UNL     1      99.534 126.909  82.477  0.00  0.00    +0.000 A 
ATOM     17  C   UNL     1      98.572 127.906  82.656  0.00  0.00    +0.000 A 
ENDBRANCH  10  15
ENDBRANCH   1  11
TORSDOF 3
ENDMDL
