REMARK  Name = *****
REMARK  3 active torsions:
REMARK  status: ('A' for Active; 'I' for Inactive)
REMARK    1  A    between atoms: C_1  and  C_2
REMARK    2  A    between atoms: C_4  and  C_8
REMARK    3  A    between atoms: N_9  and  C_10
REMARK                            x       y       z     vdW  Elec       q    Type
REMARK                         _______ _______ _______ _____ _____    ______ ____
ROOT
ATOM      1  C   UNL     1      -1.702   2.640  -0.183  0.00  0.00    +0.000 C 
ATOM      2  N   UNL     1      -1.109   3.728   0.196  0.00  0.00    +0.000 NA
ENDROOT
BRANCH   1   6
ATOM      3  C   UNL     1       2.415  -0.130   0.555  0.00  0.00    +0.000 C 
ATOM      4  C   UNL     1       0.983  -0.009   0.125  0.00  0.00    +0.000 A 
ATOM      5  C   UNL     1       0.335   1.233   0.163  0.00  0.00    +0.000 A 
ATOM      6  C   UNL     1      -1.009   1.337  -0.209  0.00  0.00    +0.000 A 
ATOM      7  C   UNL     1      -1.720   0.204  -0.611  0.00  0.00    +0.000 A 
ATOM      8  C   UNL     1      -1.083  -1.036  -0.635  0.00  0.00    +0.000 A 
ATOM      9  C   UNL     1       0.259  -1.143  -0.264  0.00  0.00    +0.000 A 
ENDBRANCH   1   6
BRANCH   2  10
ATOM     10  C   UNL     1      -1.887   4.892   0.170  0.00  0.00    +0.000 A 
ATOM     11  C   UNL     1      -2.694   5.230   1.263  0.00  0.00    +0.000 A 
ATOM     12  C   UNL     1      -3.456   6.400   1.240  0.00  0.00    +0.000 A 
ATOM     13  C   UNL     1      -3.397   7.232   0.127  0.00  0.00    +0.000 A 
ATOM     14  C   UNL     1      -2.589   6.918  -0.960  0.00  0.00    +0.000 A 
ATOM     15  C   UNL     1      -1.829   5.748  -0.934  0.00  0.00    +0.000 A 
ATOM     16  F   UNL     1      -4.127   8.355   0.104  0.00  0.00    +0.000 F 
ENDBRANCH   2  10
TORSDOF 2
