MODEL 1
REMARK VINA RESULT:      -3.5      0.000      0.000
REMARK  Name = *****
REMARK  4 active torsions:
REMARK  status: ('A' for Active; 'I' for Inactive)
REMARK    1  A    between atoms: C_3  and  C_7
REMARK    2  A    between atoms: C_7  and  C_9
REMARK    3  A    between atoms: C_9  and  S_10
REMARK    4  A    between atoms: S_10  and  C_11
REMARK                            x       y       z     vdW  Elec       q    Type
REMARK                         _______ _______ _______ _____ _____    ______ ____
ROOT
ATOM      1  C   UNL     1      83.918  63.106  91.298  0.00  0.00    +0.000 C 
ATOM      2  O   UNL     1      84.270  62.696  92.411  0.00  0.00    +0.000 OA
ENDROOT
BRANCH   1   5
ATOM      3  C   UNL     1      85.631  60.749  90.162  0.00  0.00    +0.000 C 
ATOM      4  C   UNL     1      84.115  60.739  90.401  0.00  0.00    +0.000 C 
ATOM      5  C   UNL     1      83.480  62.125  90.193  0.00  0.00    +0.000 C 
ATOM      6  C   UNL     1      83.775  62.614  88.764  0.00  0.00    +0.000 C 
ATOM      7  C   UNL     1      85.206  62.425  88.353  0.00  0.00    +0.000 C 
ATOM      8  C   UNL     1      86.042  61.595  88.994  0.00  0.00    +0.000 C 
ENDBRANCH   1   5
BRANCH   1   9
ATOM      9  C   UNL     1      83.854  64.599  91.043  0.00  0.00    +0.000 C 
BRANCH   9  10
ATOM     10  S   UNL     1      85.230  65.447  91.878  0.00  0.00    +0.000 S 
BRANCH  10  11
ATOM     11  C   UNL     1      86.561  65.031  90.769  0.00  0.00    +0.000 A 
ATOM     12  C   UNL     1      87.563  64.158  91.204  0.00  0.00    +0.000 A 
ATOM     13  C   UNL     1      88.612  63.807  90.353  0.00  0.00    +0.000 A 
ATOM     14  C   UNL     1      88.662  64.319  89.058  0.00  0.00    +0.000 A 
ATOM     15  C   UNL     1      87.659  65.177  88.611  0.00  0.00    +0.000 A 
ATOM     16  C   UNL     1      86.609  65.529  89.463  0.00  0.00    +0.000 A 
ENDBRANCH  10  11
ENDBRANCH   9  10
ENDBRANCH   1   9
TORSDOF 4
ENDMDL
