REMARK  Name = *****
REMARK  4 active torsions:
REMARK  status: ('A' for Active; 'I' for Inactive)
REMARK    1  A    between atoms: C_1  and  C_2
REMARK    2  A    between atoms: C_4  and  O_9
REMARK    3  A    between atoms: O_9  and  C_10
REMARK    4  A    between atoms: C_10  and  C_12
REMARK                            x       y       z     vdW  Elec       q    Type
REMARK                         _______ _______ _______ _____ _____    ______ ____
ROOT
ATOM      1  O   UNL     1       3.233   1.750  -3.195  0.00  0.00    +0.000 OA
ENDROOT
BRANCH   1   5
ATOM      2  C   UNL     1       0.961   0.101   0.322  0.00  0.00    +0.000 C 
ATOM      3  C   UNL     1       2.480   0.041   0.130  0.00  0.00    +0.000 C 
ATOM      4  C   UNL     1       2.967   1.111  -0.862  0.00  0.00    +0.000 C 
ATOM      5  C   UNL     1       2.582   0.805  -2.319  0.00  0.00    +0.000 C 
ATOM      6  C   UNL     1       3.052  -0.599  -2.727  0.00  0.00    +0.000 C 
ATOM      7  C   UNL     1       2.590  -1.646  -1.745  0.00  0.00    +0.000 C 
ATOM      8  C   UNL     1       1.903  -2.736  -2.118  0.00  0.00    +0.000 C 
ATOM      9  C   UNL     1       2.943  -1.360  -0.306  0.00  0.00    +0.000 C 
ENDBRANCH   1   5
BRANCH   1  10
ATOM     10  C   UNL     1       2.615   2.948  -3.344  0.00  0.00    +0.000 C 
ATOM     11  O   UNL     1       1.570   3.287  -2.812  0.00  0.00    +0.000 OA
BRANCH  10  12
ATOM     12  C   UNL     1       3.394   3.826  -4.258  0.00  0.00    +0.000 A 
ATOM     13  C   UNL     1       2.910   5.119  -4.505  0.00  0.00    +0.000 A 
ATOM     14  C   UNL     1       3.606   5.982  -5.353  0.00  0.00    +0.000 A 
ATOM     15  C   UNL     1       4.788   5.560  -5.960  0.00  0.00    +0.000 A 
ATOM     16  C   UNL     1       5.277   4.276  -5.720  0.00  0.00    +0.000 A 
ATOM     17  C   UNL     1       4.584   3.409  -4.872  0.00  0.00    +0.000 A 
ENDBRANCH  10  12
ENDBRANCH   1  10
TORSDOF 3
