REMARK  Name = *****
REMARK  4 active torsions:
REMARK  status: ('A' for Active; 'I' for Inactive)
REMARK    1  A    between atoms: C_1  and  N_2
REMARK    2  A    between atoms: N_2  and  C_3
REMARK    3  A    between atoms: N_2  and  C_10
REMARK    4  A    between atoms: C_4  and  C_5
REMARK                            x       y       z     vdW  Elec       q    Type
REMARK                         _______ _______ _______ _____ _____    ______ ____
ROOT
ATOM      1  C   UNL     1       1.163  -0.169   0.077  0.00  0.00    +0.000 C 
ATOM      2  N   UNL     1       2.567   0.230   0.219  0.00  0.00    +0.000 N 
ENDROOT
BRANCH   2   3
ATOM      3  C   UNL     1       3.265  -0.384   1.294  0.00  0.00    +0.000 A 
ATOM      4  C   UNL     1       2.998  -1.700   1.707  0.00  0.00    +0.000 A 
ATOM      5  C   UNL     1       3.697  -2.289   2.767  0.00  0.00    +0.000 A 
ATOM      6  C   UNL     1       4.681  -1.571   3.440  0.00  0.00    +0.000 A 
ATOM      7  C   UNL     1       4.967  -0.266   3.051  0.00  0.00    +0.000 A 
ATOM      8  C   UNL     1       4.268   0.317   1.990  0.00  0.00    +0.000 A 
ENDBRANCH   2   3
BRANCH   2   9
ATOM      9  C   UNL     1       3.227   0.999  -0.736  0.00  0.00    +0.000 C 
ATOM     10  C   UNL     1       2.732   1.668  -1.789  0.00  0.00    +0.000 C 
BRANCH  10  11
ATOM     11  C   UNL     1       3.513   2.426  -2.735  0.00  0.00    +0.000 C 
ATOM     12  C   UNL     1       3.002   3.078  -3.788  0.00  0.00    +0.000 C 
ATOM     13  C   UNL     1       4.059   3.746  -4.603  0.00  0.00    +0.000 C 
ATOM     14  C   UNL     1       5.280   3.686  -3.691  0.00  0.00    +0.000 C 
ATOM     15  C   UNL     1       5.006   2.567  -2.685  0.00  0.00    +0.000 C 
ENDBRANCH  10  11
ENDBRANCH   2   9
TORSDOF 3
