MODEL 1
REMARK VINA RESULT:      -4.8      0.000      0.000
REMARK  Name = *****
REMARK  4 active torsions:
REMARK  status: ('A' for Active; 'I' for Inactive)
REMARK    1  A    between atoms: C_1  and  C_2
REMARK    2  A    between atoms: C_2  and  N_3
REMARK    3  A    between atoms: C_4  and  C_18
REMARK    4  A    between atoms: C_9  and  C_12
REMARK                            x       y       z     vdW  Elec       q    Type
REMARK                         _______ _______ _______ _____ _____    ______ ____
ROOT
ATOM      1  N   UNL     1     105.105 122.622  82.261  0.00  0.00    +0.000 N 
ATOM      2  C   UNL     1     105.873 122.257  81.253  0.00  0.00    +0.000 C 
ATOM      3  O   UNL     1     105.810 123.073  80.153  0.00  0.00    +0.000 OA
ATOM      4  C   UNL     1     104.902 124.042  80.541  0.00  0.00    +0.000 A 
ATOM      5  C   UNL     1     104.463 123.774  81.841  0.00  0.00    +0.000 A 
ATOM      6  C   UNL     1     103.537 124.615  82.463  0.00  0.00    +0.000 A 
ATOM      7  C   UNL     1     103.064 125.730  81.736  0.00  0.00    +0.000 A 
ATOM      8  C   UNL     1     103.535 125.961  80.423  0.00  0.00    +0.000 A 
ATOM      9  C   UNL     1     104.468 125.125  79.792  0.00  0.00    +0.000 A 
ATOM     10  C   UNL     1     106.780 121.093  81.163  0.00  0.00    +0.000 C 
ENDROOT
BRANCH   7  11
ATOM     11  C   UNL     1     102.081 126.642  82.343  0.00  0.00    +0.000 A 
ATOM     12  C   UNL     1     100.705 126.359  82.292  0.00  0.00    +0.000 A 
ATOM     13  C   UNL     1      99.774 127.230  82.864  0.00  0.00    +0.000 A 
ATOM     14  C   UNL     1     100.202 128.394  83.495  0.00  0.00    +0.000 A 
ATOM     15  C   UNL     1     101.561 128.690  83.558  0.00  0.00    +0.000 A 
ATOM     16  C   UNL     1     102.493 127.819  82.988  0.00  0.00    +0.000 A 
ENDBRANCH   7  11
BRANCH   1  18
ATOM     17  C   UNL     1     104.036 120.759  83.446  0.00  0.00    +0.000 C 
ATOM     18  C   UNL     1     104.956 121.963  83.539  0.00  0.00    +0.000 C 
ENDBRANCH   1  18
TORSDOF 2
ENDMDL
