MODEL 1
REMARK VINA RESULT:      -5.1      0.000      0.000
REMARK  Name = *****
REMARK  7 active torsions:
REMARK  status: ('A' for Active; 'I' for Inactive)
REMARK    1  A    between atoms: C_1  and  C_2
REMARK    2  A    between atoms: C_3  and  C_17
REMARK    3  A    between atoms: C_4  and  C_8
REMARK    4  A    between atoms: C_8  and  C_9
REMARK    5  A    between atoms: C_9  and  C_10
REMARK    6  A    between atoms: C_15  and  C_16
REMARK    7  A    between atoms: C_17  and  C_19
REMARK                            x       y       z     vdW  Elec       q    Type
REMARK                         _______ _______ _______ _____ _____    ______ ____
ROOT
ATOM      1  C   UNL     1      84.796  72.196  89.275  0.00  0.00    +0.000 C 
ATOM      2  C   UNL     1      85.647  71.766  88.113  0.00  0.00    +0.000 A 
ATOM      3  C   UNL     1      86.885  71.113  88.295  0.00  0.00    +0.000 A 
ATOM      4  C   UNL     1      87.682  70.734  87.196  0.00  0.00    +0.000 A 
ATOM      5  C   UNL     1      87.204  71.000  85.903  0.00  0.00    +0.000 A 
ATOM      6  C   UNL     1      85.974  71.627  85.712  0.00  0.00    +0.000 A 
ATOM      7  C   UNL     1      85.201  72.008  86.807  0.00  0.00    +0.000 A 
ENDROOT
BRANCH   3   8
ATOM      8  C   UNL     1      87.341  70.805  89.668  0.00  0.00    +0.000 C 
ATOM      9  O   UNL     1      86.965  69.780  90.224  0.00  0.00    +0.000 OA
ATOM     10  C   UNL     1      88.259  71.801  90.323  0.00  0.00    +0.000 C 
ENDBRANCH   3   8
BRANCH   4  11
ATOM     11  C   UNL     1      89.038  70.075  87.354  0.00  0.00    +0.000 C 
BRANCH  11  12
ATOM     12  C   UNL     1      89.304  68.931  86.363  0.00  0.00    +0.000 C 
BRANCH  12  13
ATOM     13  C   UNL     1      88.828  67.575  86.845  0.00  0.00    +0.000 A 
ATOM     14  C   UNL     1      87.664  67.520  87.633  0.00  0.00    +0.000 A 
ATOM     15  C   UNL     1      87.186  66.306  88.125  0.00  0.00    +0.000 A 
ATOM     16  C   UNL     1      87.861  65.128  87.832  0.00  0.00    +0.000 A 
ATOM     17  C   UNL     1      89.014  65.163  87.048  0.00  0.00    +0.000 A 
ATOM     18  C   UNL     1      89.513  66.377  86.548  0.00  0.00    +0.000 A 
ATOM     19  C   UNL     1      90.743  66.354  85.682  0.00  0.00    +0.000 C 
ENDBRANCH  12  13
ENDBRANCH  11  12
ENDBRANCH   4  11
TORSDOF 4
ENDMDL
