REMARK  Name = *****
REMARK  4 active torsions:
REMARK  status: ('A' for Active; 'I' for Inactive)
REMARK    1  A    between atoms: C_1  and  P_2
REMARK    2  A    between atoms: P_2  and  C_3
REMARK    3  A    between atoms: P_2  and  C_10
REMARK    4  A    between atoms: C_3  and  C_4
REMARK                            x       y       z     vdW  Elec       q    Type
REMARK                         _______ _______ _______ _____ _____    ______ ____
ROOT
ATOM      1  C   UNL     1       1.044   0.227  -0.193  0.00  0.00    +0.000 C 
ATOM      2  P   UNL     1       2.837  -0.014   0.067  0.00  0.00    +0.000 P 
ENDROOT
BRANCH   2   3
ATOM      3  C   UNL     1       3.245   1.206   1.404  0.00  0.00    +0.000 C 
ATOM      4  C   UNL     1       2.801   0.658   2.774  0.00  0.00    +0.000 C 
ATOM      5  C   UNL     1       3.207   1.594   3.912  0.00  0.00    +0.000 C 
ATOM      6  C   UNL     1       2.688   3.010   3.691  0.00  0.00    +0.000 C 
ATOM      7  C   UNL     1       3.112   3.557   2.332  0.00  0.00    +0.000 C 
ATOM      8  C   UNL     1       2.694   2.623   1.195  0.00  0.00    +0.000 C 
ENDBRANCH   2   3
BRANCH   2   9
ATOM      9  C   UNL     1       3.495   0.738  -1.461  0.00  0.00    +0.000 C 
BRANCH   9  10
ATOM     10  C   UNL     1       4.993   0.600  -1.371  0.00  0.00    +0.000 A 
ATOM     11  C   UNL     1       5.628  -0.626  -1.633  0.00  0.00    +0.000 A 
ATOM     12  C   UNL     1       7.018  -0.739  -1.573  0.00  0.00    +0.000 A 
ATOM     13  C   UNL     1       7.795   0.374  -1.260  0.00  0.00    +0.000 A 
ATOM     14  C   UNL     1       7.184   1.601  -1.011  0.00  0.00    +0.000 A 
ATOM     15  C   UNL     1       5.793   1.715  -1.070  0.00  0.00    +0.000 A 
ENDBRANCH   9  10
ENDBRANCH   2   9
TORSDOF 3
