REMARK  Name = *****
REMARK  4 active torsions:
REMARK  status: ('A' for Active; 'I' for Inactive)
REMARK    1  A    between atoms: C_1  and  C_2
REMARK    2  A    between atoms: C_5  and  N_8
REMARK    3  A    between atoms: N_8  and  C_9
REMARK    4  A    between atoms: C_9  and  C_11
REMARK                            x       y       z     vdW  Elec       q    Type
REMARK                         _______ _______ _______ _____ _____    ______ ____
ROOT
ATOM      1  N   UNL     1      -3.191   0.501  -0.086  0.00  0.00    +0.000 N 
ATOM      2  H   UNL     1      -3.636  -0.375  -0.019  0.00  0.00    +0.000 HD
ENDROOT
BRANCH   1   7
ATOM      3  C   UNL     1       2.491  -0.324   0.033  0.00  0.00    +0.000 C 
ATOM      4  C   UNL     1       1.013  -0.071   0.018  0.00  0.00    +0.000 A 
ATOM      5  C   UNL     1       0.505   1.227  -0.061  0.00  0.00    +0.000 A 
ATOM      6  C   UNL     1      -0.878   1.460  -0.095  0.00  0.00    +0.000 A 
ATOM      7  C   UNL     1      -1.781   0.400  -0.059  0.00  0.00    +0.000 A 
ATOM      8  C   UNL     1      -1.263  -0.903   0.015  0.00  0.00    +0.000 A 
ATOM      9  C   UNL     1       0.116  -1.138   0.050  0.00  0.00    +0.000 A 
ENDBRANCH   1   7
BRANCH   1  10
ATOM     10  C   UNL     1      -4.090   1.554  -0.186  0.00  0.00    +0.000 C 
ATOM     11  S   UNL     1      -3.754   3.189  -0.348  0.00  0.00    +0.000 S 
BRANCH  10  12
ATOM     12  C   UNL     1      -5.511   1.151  -0.156  0.00  0.00    +0.000 A 
ATOM     13  C   UNL     1      -6.660   1.871  -0.465  0.00  0.00    +0.000 A 
ATOM     14  C   UNL     1      -7.861   1.119  -0.306  0.00  0.00    +0.000 A 
ATOM     15  C   UNL     1      -7.612  -0.162   0.122  0.00  0.00    +0.000 A 
ATOM     16  S   UNL     1      -5.945  -0.454   0.327  0.00  0.00    +0.000 S 
ENDBRANCH  10  12
ENDBRANCH   1  10
TORSDOF 3
