MODEL 1
REMARK VINA RESULT:      -4.8      0.000      0.000
REMARK  Name = *****
REMARK  5 active torsions:
REMARK  status: ('A' for Active; 'I' for Inactive)
REMARK    1  A    between atoms: C_1  and  O_2
REMARK    2  A    between atoms: O_2  and  C_3
REMARK    3  A    between atoms: C_6  and  C_9
REMARK    4  A    between atoms: C_10  and  C_11
REMARK    5  A    between atoms: C_16  and  N_17
REMARK                            x       y       z     vdW  Elec       q    Type
REMARK                         _______ _______ _______ _____ _____    ______ ____
ROOT
ATOM      1  C   UNL     1      88.648  66.045  87.050  0.00  0.00    +0.000 C 
ATOM      2  C   UNL     1      89.027  67.107  86.635  0.00  0.00    +0.000 C 
ENDROOT
BRANCH   1   6
ATOM      3  C   UNL     1      87.021  62.423  88.513  0.00  0.00    +0.000 A 
ATOM      4  C   UNL     1      87.722  63.274  89.368  0.00  0.00    +0.000 A 
ATOM      5  C   UNL     1      88.275  64.462  88.877  0.00  0.00    +0.000 A 
ATOM      6  C   UNL     1      88.133  64.799  87.528  0.00  0.00    +0.000 A 
ATOM      7  C   UNL     1      87.459  63.937  86.666  0.00  0.00    +0.000 A 
ATOM      8  C   UNL     1      86.909  62.751  87.160  0.00  0.00    +0.000 A 
BRANCH   3  10
ATOM      9  C   UNL     1      85.615  61.278  90.047  0.00  0.00    +0.000 C 
ATOM     10  O   UNL     1      86.416  61.251  88.871  0.00  0.00    +0.000 OA
ENDBRANCH   3  10
ENDBRANCH   1   6
BRANCH   2  11
ATOM     11  C   UNL     1      89.416  68.379  86.115  0.00  0.00    +0.000 A 
ATOM     12  C   UNL     1      89.357  69.512  86.928  0.00  0.00    +0.000 A 
ATOM     13  C   UNL     1      89.710  70.762  86.410  0.00  0.00    +0.000 A 
ATOM     14  C   UNL     1      90.122  70.890  85.081  0.00  0.00    +0.000 A 
ATOM     15  C   UNL     1      90.190  69.766  84.260  0.00  0.00    +0.000 A 
ATOM     16  C   UNL     1      89.834  68.520  84.790  0.00  0.00    +0.000 A 
BRANCH  16  17
ATOM     17  N   UNL     1      89.892  67.394  83.980  0.00  0.00    +0.000 NA
ATOM     18  N   UNL     1      89.960  66.503  83.357  0.00  0.00    +0.000 NA
ENDBRANCH  16  17
ENDBRANCH   2  11
TORSDOF 4
ENDMDL
