MODEL 1
REMARK VINA RESULT:      -5.2      0.000      0.000
REMARK  Name = *****
REMARK  5 active torsions:
REMARK  status: ('A' for Active; 'I' for Inactive)
REMARK    1  A    between atoms: C_1  and  C_2
REMARK    2  A    between atoms: C_7  and  C_8
REMARK    3  A    between atoms: C_9  and  C_10
REMARK    4  A    between atoms: C_13  and  C_16
REMARK    5  A    between atoms: C_16  and  C_18
REMARK                            x       y       z     vdW  Elec       q    Type
REMARK                         _______ _______ _______ _____ _____    ______ ____
ROOT
ATOM      1  C   UNL     1     101.732 127.587  83.304  0.00  0.00    +0.000 C 
ATOM      2  C   UNL     1     102.347 127.433  82.121  0.00  0.00    +0.000 C 
ENDROOT
BRANCH   1   9
ATOM      3  C   UNL     1      98.845 127.996  82.760  0.00  0.00    +0.000 C 
ATOM      4  C   UNL     1      99.692 129.046  83.427  0.00  0.00    +0.000 A 
ATOM      5  C   UNL     1      99.102 130.269  83.787  0.00  0.00    +0.000 A 
ATOM      6  C   UNL     1      99.851 131.270  84.406  0.00  0.00    +0.000 A 
ATOM      7  C   UNL     1     101.201 131.065  84.668  0.00  0.00    +0.000 A 
ATOM      8  C   UNL     1     101.803 129.858  84.311  0.00  0.00    +0.000 A 
ATOM      9  C   UNL     1     101.060 128.837  83.697  0.00  0.00    +0.000 A 
ENDBRANCH   1   9
BRANCH   2  10
ATOM     10  C   UNL     1     103.056 126.211  81.717  0.00  0.00    +0.000 A 
ATOM     11  C   UNL     1     103.243 125.194  82.660  0.00  0.00    +0.000 A 
ATOM     12  C   UNL     1     103.927 124.023  82.321  0.00  0.00    +0.000 A 
ATOM     13  C   UNL     1     104.445 123.853  81.031  0.00  0.00    +0.000 A 
ATOM     14  C   UNL     1     104.283 124.874  80.090  0.00  0.00    +0.000 A 
ATOM     15  C   UNL     1     103.598 126.046  80.435  0.00  0.00    +0.000 A 
BRANCH  13  16
ATOM     16  C   UNL     1     105.159 122.580  80.712  0.00  0.00    +0.000 C 
ATOM     17  O   UNL     1     106.214 122.610  80.083  0.00  0.00    +0.000 OA
ATOM     18  C   UNL     1     104.563 121.276  81.172  0.00  0.00    +0.000 C 
ENDBRANCH  13  16
ENDBRANCH   2  10
TORSDOF 3
ENDMDL
