MODEL 1
REMARK VINA RESULT:      -4.6      0.000      0.000
REMARK  Name = *****
REMARK  4 active torsions:
REMARK  status: ('A' for Active; 'I' for Inactive)
REMARK    1  A    between atoms: C_1  and  C_2
REMARK    2  A    between atoms: C_3  and  C_9
REMARK    3  A    between atoms: C_9  and  C_10
REMARK    4  A    between atoms: C_10  and  C_11
REMARK                            x       y       z     vdW  Elec       q    Type
REMARK                         _______ _______ _______ _____ _____    ______ ____
ROOT
ATOM      1  C   UNL     1      86.891  67.597  88.124  0.00  0.00    +0.000 C 
ATOM      2  C   UNL     1      88.135  67.685  87.324  0.00  0.00    +0.000 C 
ATOM      3  C   UNL     1      88.862  68.741  86.915  0.00  0.00    +0.000 C 
ATOM      4  C   UNL     1      90.075  68.347  86.117  0.00  0.00    +0.000 C 
ATOM      5  C   UNL     1      90.015  66.859  86.081  0.00  0.00    +0.000 C 
ATOM      6  C   UNL     1      90.852  65.992  85.501  0.00  0.00    +0.000 C 
ATOM      7  C   UNL     1      88.804  66.455  86.840  0.00  0.00    +0.000 C 
ATOM      8  O   UNL     1      88.422  65.317  87.033  0.00  0.00    +0.000 OA
ENDROOT
BRANCH   3   9
ATOM      9  C   UNL     1      88.567  70.194  87.145  0.00  0.00    +0.000 C 
BRANCH   9  10
ATOM     10  C   UNL     1      87.676  70.786  86.048  0.00  0.00    +0.000 C 
BRANCH  10  11
ATOM     11  C   UNL     1      86.410  71.375  86.620  0.00  0.00    +0.000 A 
ATOM     12  C   UNL     1      85.420  71.888  85.771  0.00  0.00    +0.000 A 
ATOM     13  C   UNL     1      84.258  72.450  86.299  0.00  0.00    +0.000 A 
ATOM     14  C   UNL     1      84.076  72.510  87.679  0.00  0.00    +0.000 A 
ATOM     15  C   UNL     1      85.057  72.008  88.533  0.00  0.00    +0.000 A 
ATOM     16  C   UNL     1      86.220  71.445  88.006  0.00  0.00    +0.000 A 
ENDBRANCH  10  11
ENDBRANCH   9  10
ENDBRANCH   3   9
TORSDOF 3
ENDMDL
