MODEL 1
REMARK VINA RESULT:      -4.8      0.000      0.000
REMARK  Name = *****
REMARK  4 active torsions:
REMARK  status: ('A' for Active; 'I' for Inactive)
REMARK    1  A    between atoms: C_1  and  C_2
REMARK    2  A    between atoms: C_5  and  C_8
REMARK    3  A    between atoms: C_9  and  C_10
REMARK    4  A    between atoms: C_10  and  C_16
REMARK                            x       y       z     vdW  Elec       q    Type
REMARK                         _______ _______ _______ _____ _____    ______ ____
ROOT
ATOM      1  C   UNL     1     102.034 126.750  82.158  0.00  0.00    +0.000 C 
ATOM      2  C   UNL     1     101.171 126.585  83.177  0.00  0.00    +0.000 C 
ENDROOT
BRANCH   1   7
ATOM      3  C   UNL     1     105.820 122.711  80.464  0.00  0.00    +0.000 C 
ATOM      4  C   UNL     1     104.866 123.773  80.923  0.00  0.00    +0.000 A 
ATOM      5  C   UNL     1     104.376 123.771  82.234  0.00  0.00    +0.000 A 
ATOM      6  C   UNL     1     103.461 124.743  82.651  0.00  0.00    +0.000 A 
ATOM      7  C   UNL     1     103.019 125.732  81.764  0.00  0.00    +0.000 A 
ATOM      8  C   UNL     1     103.485 125.713  80.445  0.00  0.00    +0.000 A 
ATOM      9  C   UNL     1     104.401 124.742  80.027  0.00  0.00    +0.000 A 
ENDBRANCH   1   7
BRANCH   2  10
ATOM     10  C   UNL     1     100.112 127.570  83.676  0.00  0.00    +0.000 C 
ATOM     11  C   UNL     1      99.803 127.227  85.154  0.00  0.00    +0.000 C 
ATOM     12  C   UNL     1      98.829 128.205  85.819  0.00  0.00    +0.000 C 
ATOM     13  C   UNL     1      99.296 129.649  85.686  0.00  0.00    +0.000 C 
ATOM     14  C   UNL     1      99.552 130.022  84.231  0.00  0.00    +0.000 C 
ATOM     15  C   UNL     1     100.538 129.056  83.567  0.00  0.00    +0.000 C 
BRANCH  10  16
ATOM     16  C   UNL     1      98.896 127.344  82.844  0.00  0.00    +0.000 C 
ATOM     17  N   UNL     1      97.954 127.157  82.191  0.00  0.00    +0.000 NA
ENDBRANCH  10  16
ENDBRANCH   2  10
TORSDOF 3
ENDMDL
