MODEL 1
REMARK VINA RESULT:      -4.5      0.000      0.000
REMARK  Name = *****
REMARK  3 active torsions:
REMARK  status: ('A' for Active; 'I' for Inactive)
REMARK    1  A    between atoms: C_4  and  S_7
REMARK    2  A    between atoms: S_7  and  O_9
REMARK    3  A    between atoms: O_9  and  C_10
REMARK                            x       y       z     vdW  Elec       q    Type
REMARK                         _______ _______ _______ _____ _____    ______ ____
ROOT
ATOM      1  S   UNL     1      99.231 126.946  83.167  0.00  0.00    +0.000 S 
ATOM      2  O   UNL     1      98.230 126.950  82.047  0.00  0.00    +0.000 OA
ENDROOT
BRANCH   1   6
ATOM      3  C   UNL     1      98.697 130.955  85.386  0.00  0.00    +0.000 A 
ATOM      4  C   UNL     1      98.198 129.780  85.947  0.00  0.00    +0.000 A 
ATOM      5  C   UNL     1      98.352 128.565  85.277  0.00  0.00    +0.000 A 
ATOM      6  C   UNL     1      99.002 128.518  84.038  0.00  0.00    +0.000 A 
ATOM      7  C   UNL     1      99.507 129.702  83.484  0.00  0.00    +0.000 A 
ATOM      8  C   UNL     1      99.352 130.916  84.156  0.00  0.00    +0.000 A 
ENDBRANCH   1   6
BRANCH   1   9
ATOM      9  O   UNL     1     100.653 127.402  82.552  0.00  0.00    +0.000 OA
BRANCH   9  10
ATOM     10  C   UNL     1     101.676 126.511  82.755  0.00  0.00    +0.000 A 
ATOM     11  C   UNL     1     102.343 126.011  81.638  0.00  0.00    +0.000 A 
ATOM     12  C   UNL     1     103.358 125.072  81.814  0.00  0.00    +0.000 A 
ATOM     13  C   UNL     1     103.696 124.622  83.091  0.00  0.00    +0.000 A 
ATOM     14  C   UNL     1     103.006 125.107  84.204  0.00  0.00    +0.000 A 
ATOM     15  C   UNL     1     101.988 126.047  84.036  0.00  0.00    +0.000 A 
ATOM     16 CL   UNL     1     104.201 124.461  80.445  0.00  0.00    +0.000 Cl
ENDBRANCH   9  10
ENDBRANCH   1   9
TORSDOF 3
ENDMDL
