MODEL 1
REMARK VINA RESULT:      -4.5      0.000      0.000
REMARK  Name = *****
REMARK  4 active torsions:
REMARK  status: ('A' for Active; 'I' for Inactive)
REMARK    1  A    between atoms: C_1  and  C_2
REMARK    2  A    between atoms: C_5  and  S_8
REMARK    3  A    between atoms: S_8  and  C_10
REMARK    4  A    between atoms: C_10  and  C_12
REMARK                            x       y       z     vdW  Elec       q    Type
REMARK                         _______ _______ _______ _____ _____    ______ ____
ROOT
ATOM      1  S   UNL     1      88.946  70.518  86.901  0.00  0.00    +0.000 S 
ATOM      2  O   UNL     1      90.045  70.903  85.954  0.00  0.00    +0.000 OA
ENDROOT
BRANCH   1   7
ATOM      3  C   UNL     1      88.820  64.402  86.940  0.00  0.00    +0.000 C 
ATOM      4  C   UNL     1      88.868  65.902  86.950  0.00  0.00    +0.000 A 
ATOM      5  C   UNL     1      89.939  66.582  86.358  0.00  0.00    +0.000 A 
ATOM      6  C   UNL     1      89.970  67.978  86.344  0.00  0.00    +0.000 A 
ATOM      7  C   UNL     1      88.921  68.711  86.907  0.00  0.00    +0.000 A 
ATOM      8  C   UNL     1      87.846  68.037  87.493  0.00  0.00    +0.000 A 
ATOM      9  C   UNL     1      87.815  66.640  87.506  0.00  0.00    +0.000 A 
ENDBRANCH   1   7
BRANCH   1  10
ATOM     10  C   UNL     1      87.383  70.859  86.069  0.00  0.00    +0.000 C 
ATOM     11  C   UNL     1      87.290  70.597  84.755  0.00  0.00    +0.000 C 
BRANCH  10  12
ATOM     12  C   UNL     1      86.243  71.352  86.830  0.00  0.00    +0.000 C 
ATOM     13  C   UNL     1      86.293  71.477  88.171  0.00  0.00    +0.000 C 
ATOM     14  C   UNL     1      85.157  71.999  89.003  0.00  0.00    +0.000 C 
ATOM     15  C   UNL     1      83.844  72.131  88.231  0.00  0.00    +0.000 C 
ATOM     16  C   UNL     1      84.081  72.683  86.830  0.00  0.00    +0.000 C 
ATOM     17  C   UNL     1      85.023  71.771  86.039  0.00  0.00    +0.000 C 
ENDBRANCH  10  12
ENDBRANCH   1  10
TORSDOF 3
ENDMDL
