REMARK  Name = *****
REMARK  6 active torsions:
REMARK  status: ('A' for Active; 'I' for Inactive)
REMARK    1  A    between atoms: C_1  and  C_2
REMARK    2  A    between atoms: C_3  and  C_19
REMARK    3  A    between atoms: C_4  and  C_8
REMARK    4  A    between atoms: C_8  and  C_10
REMARK    5  A    between atoms: C_10  and  C_11
REMARK    6  A    between atoms: C_11  and  C_12
REMARK                            x       y       z     vdW  Elec       q    Type
REMARK                         _______ _______ _______ _____ _____    ______ ____
ROOT
ATOM      1  C   UNL     1      -0.525  -2.962  -0.242  0.00  0.00    +0.000 C 
ATOM      2  O   UNL     1       0.519  -3.578  -0.440  0.00  0.00    +0.000 OA
ENDROOT
BRANCH   1   6
ATOM      3  C   UNL     1       1.823   1.585   0.146  0.00  0.00    +0.000 C 
ATOM      4  C   UNL     1       0.595   0.718   0.030  0.00  0.00    +0.000 A 
ATOM      5  C   UNL     1       0.667  -0.701   0.014  0.00  0.00    +0.000 A 
ATOM      6  C   UNL     1      -0.529  -1.453  -0.140  0.00  0.00    +0.000 A 
ATOM      7  C   UNL     1      -1.759  -0.776  -0.229  0.00  0.00    +0.000 A 
ATOM      8  C   UNL     1      -1.820   0.614  -0.181  0.00  0.00    +0.000 A 
ATOM      9  C   UNL     1      -0.652   1.354  -0.057  0.00  0.00    +0.000 A 
ATOM     10  C   UNL     1       2.007  -1.388   0.143  0.00  0.00    +0.000 C 
ENDBRANCH   1   6
BRANCH   1  11
ATOM     11  C   UNL     1      -1.851  -3.702  -0.135  0.00  0.00    +0.000 C 
BRANCH  11  12
ATOM     12  C   UNL     1      -1.656  -5.218  -0.077  0.00  0.00    +0.000 C 
BRANCH  12  13
ATOM     13  C   UNL     1      -2.983  -5.940  -0.070  0.00  0.00    +0.000 A 
ATOM     14  C   UNL     1      -3.608  -6.277  -1.282  0.00  0.00    +0.000 A 
ATOM     15  C   UNL     1      -4.844  -6.923  -1.281  0.00  0.00    +0.000 A 
ATOM     16  C   UNL     1      -5.457  -7.228  -0.072  0.00  0.00    +0.000 A 
ATOM     17  C   UNL     1      -4.856  -6.899   1.137  0.00  0.00    +0.000 A 
ATOM     18  C   UNL     1      -3.619  -6.252   1.140  0.00  0.00    +0.000 A 
ATOM     19  F   UNL     1      -6.645  -7.846  -0.072  0.00  0.00    +0.000 F 
ENDBRANCH  12  13
ENDBRANCH  11  12
ENDBRANCH   1  11
TORSDOF 4
