MODEL 1
REMARK VINA RESULT:      -4.8      0.000      0.000
REMARK  Name = *****
REMARK  2 active torsions:
REMARK  status: ('A' for Active; 'I' for Inactive)
REMARK    1  A    between atoms: C_3  and  C_8
REMARK    2  A    between atoms: C_9  and  C_10
REMARK                            x       y       z     vdW  Elec       q    Type
REMARK                         _______ _______ _______ _____ _____    ______ ____
ROOT
ATOM      1  C   UNL     1     101.147 126.850  82.581  0.00  0.00    +0.000 C 
ATOM      2  C   UNL     1     102.480 126.790  82.719  0.00  0.00    +0.000 C 
ATOM      3  F   UNL     1     100.542 125.951  81.770  0.00  0.00    +0.000 F 
ENDROOT
BRANCH   1   6
ATOM      4  C   UNL     1      99.603 126.552  85.320  0.00  0.00    +0.000 C 
ATOM      5  C   UNL     1     100.331 127.784  84.783  0.00  0.00    +0.000 C 
ATOM      6  C   UNL     1     100.283 127.894  83.251  0.00  0.00    +0.000 C 
ATOM      7  C   UNL     1      98.846 127.820  82.733  0.00  0.00    +0.000 C 
ATOM      8  C   UNL     1      98.082 126.656  83.326  0.00  0.00    +0.000 C 
ATOM      9  O   UNL     1      97.295 125.996  82.648  0.00  0.00    +0.000 OA
ATOM     10  C   UNL     1      98.166 126.475  84.824  0.00  0.00    +0.000 C 
ENDBRANCH   1   6
BRANCH   2  11
ATOM     11  C   UNL     1     103.285 125.799  81.998  0.00  0.00    +0.000 A 
ATOM     12  C   UNL     1     103.572 124.579  82.626  0.00  0.00    +0.000 A 
ATOM     13  C   UNL     1     104.316 123.599  81.963  0.00  0.00    +0.000 A 
ATOM     14  C   UNL     1     104.776 123.826  80.668  0.00  0.00    +0.000 A 
ATOM     15  C   UNL     1     104.497 125.036  80.032  0.00  0.00    +0.000 A 
ATOM     16  C   UNL     1     103.756 126.020  80.693  0.00  0.00    +0.000 A 
ATOM     17 CL   UNL     1     103.454 127.505  79.855  0.00  0.00    +0.000 Cl
ENDBRANCH   2  11
TORSDOF 2
ENDMDL
