MODEL 1
REMARK VINA RESULT:      -4.3      0.000      0.000
REMARK  Name = *****
REMARK  4 active torsions:
REMARK  status: ('A' for Active; 'I' for Inactive)
REMARK    1  A    between atoms: C_4  and  C_8
REMARK    2  A    between atoms: C_8  and  O_9
REMARK    3  A    between atoms: O_9  and  C_10
REMARK    4  A    between atoms: C_10  and  C_12
REMARK                            x       y       z     vdW  Elec       q    Type
REMARK                         _______ _______ _______ _____ _____    ______ ____
ROOT
ATOM      1  O   UNL     1     104.589 125.102  79.630  0.00  0.00    +0.000 OA
ENDROOT
BRANCH   1   2
ATOM      2  C   UNL     1     105.762 124.489  79.341  0.00  0.00    +0.000 C 
ATOM      3  O   UNL     1     106.618 124.900  78.574  0.00  0.00    +0.000 OA
BRANCH   2   4
ATOM      4  C   UNL     1     105.881 123.211  80.093  0.00  0.00    +0.000 A 
ATOM      5  C   UNL     1     107.113 122.573  80.308  0.00  0.00    +0.000 A 
ATOM      6  C   UNL     1     107.168 121.371  81.021  0.00  0.00    +0.000 A 
ATOM      7  C   UNL     1     105.996 120.805  81.522  0.00  0.00    +0.000 A 
ATOM      8  C   UNL     1     104.768 121.430  81.315  0.00  0.00    +0.000 A 
ATOM      9  C   UNL     1     104.709 122.630  80.603  0.00  0.00    +0.000 A 
ATOM     10 CL   UNL     1     106.068 119.328  82.398  0.00  0.00    +0.000 Cl
ENDBRANCH   2   4
ENDBRANCH   1   2
BRANCH   1  11
ATOM     11  C   UNL     1     104.689 126.347  80.343  0.00  0.00    +0.000 C 
BRANCH  11  15
ATOM     12  C   UNL     1     101.476 126.603  82.317  0.00  0.00    +0.000 C 
ATOM     13  C   UNL     1     102.536 127.437  83.043  0.00  0.00    +0.000 C 
ATOM     14  C   UNL     1     103.375 127.970  81.860  0.00  0.00    +0.000 C 
ATOM     15  C   UNL     1     103.317 126.791  80.841  0.00  0.00    +0.000 C 
ATOM     16  C   UNL     1     102.513 125.714  81.618  0.00  0.00    +0.000 C 
ATOM     17  C   UNL     1     103.293 125.276  82.837  0.00  0.00    +0.000 C 
ATOM     18  C   UNL     1     103.314 126.313  83.689  0.00  0.00    +0.000 C 
ENDBRANCH  11  15
ENDBRANCH   1  11
TORSDOF 4
ENDMDL
