REMARK  Name = *****
REMARK  6 active torsions:
REMARK  status: ('A' for Active; 'I' for Inactive)
REMARK    1  A    between atoms: C_1  and  C_2
REMARK    2  A    between atoms: C_2  and  C_3
REMARK    3  A    between atoms: C_2  and  C_11
REMARK    4  A    between atoms: C_2  and  O_17
REMARK    5  A    between atoms: C_3  and  C_4
REMARK    6  A    between atoms: O_17  and  O_18
REMARK                            x       y       z     vdW  Elec       q    Type
REMARK                         _______ _______ _______ _____ _____    ______ ____
ROOT
ATOM      1  C   UNL     1       0.883  -0.071  -0.053  0.00  0.00    +0.000 C 
ATOM      2  C   UNL     1       2.418   0.060  -0.119  0.00  0.00    +0.000 C 
ENDROOT
BRANCH   2   3
ATOM      3  C   UNL     1       2.891   1.260  -0.960  0.00  0.00    +0.000 A 
ATOM      4  C   UNL     1       4.194   1.768  -0.779  0.00  0.00    +0.000 A 
ATOM      5  C   UNL     1       4.671   2.839  -1.540  0.00  0.00    +0.000 A 
ATOM      6  C   UNL     1       3.857   3.423  -2.504  0.00  0.00    +0.000 A 
ATOM      7  C   UNL     1       2.570   2.936  -2.707  0.00  0.00    +0.000 A 
ATOM      8  C   UNL     1       2.091   1.865  -1.945  0.00  0.00    +0.000 A 
ENDBRANCH   2   3
BRANCH   2   9
ATOM      9  C   UNL     1       3.097  -1.254  -0.614  0.00  0.00    +0.000 C 
BRANCH   9  10
ATOM     10  C   UNL     1       2.715  -1.731  -2.000  0.00  0.00    +0.000 A 
ATOM     11  C   UNL     1       3.389  -1.252  -3.133  0.00  0.00    +0.000 A 
ATOM     12  C   UNL     1       3.027  -1.687  -4.410  0.00  0.00    +0.000 A 
ATOM     13  C   UNL     1       1.994  -2.609  -4.561  0.00  0.00    +0.000 A 
ATOM     14  C   UNL     1       1.321  -3.101  -3.446  0.00  0.00    +0.000 A 
ATOM     15  C   UNL     1       1.681  -2.665  -2.169  0.00  0.00    +0.000 A 
ATOM     16 CL   UNL     1       1.547  -3.143  -6.134  0.00  0.00    +0.000 Cl
ENDBRANCH   9  10
ENDBRANCH   2   9
BRANCH   2  17
ATOM     17  O   UNL     1       2.885   0.354   1.232  0.00  0.00    +0.000 OA
BRANCH  17  18
ATOM     18  O   UNL     1       2.507  -0.749   2.108  0.00  0.00    +0.000 OA
ATOM     19  H   UNL     1       2.812  -0.565   3.010  0.00  0.00    +0.000 HD
ENDBRANCH  17  18
ENDBRANCH   2  17
TORSDOF 5
