REMARK  Name = *****
REMARK  1 active torsions:
REMARK  status: ('A' for Active; 'I' for Inactive)
REMARK    1  A    between atoms: C_6  and  C_7
REMARK                            x       y       z     vdW  Elec       q    Type
REMARK                         _______ _______ _______ _____ _____    ______ ____
ROOT
ATOM      1  C   UNL     1       0.710   1.230  -0.248  0.00  0.00    +0.000 C 
ATOM      2  C   UNL     1       1.445  -0.024   0.226  0.00  0.00    +0.000 C 
ATOM      3  C   UNL     1       0.709  -1.301  -0.182  0.00  0.00    +0.000 C 
ATOM      4  C   UNL     1      -0.731  -1.258   0.264  0.00  0.00    +0.000 C 
ATOM      5  C   UNL     1      -1.265  -2.186   1.010  0.00  0.00    +0.000 C 
ATOM      6  C   UNL     1      -1.788  -3.109   1.765  0.00  0.00    +0.000 C 
ATOM      7  C   UNL     1      -1.487  -0.028  -0.175  0.00  0.00    +0.000 C 
ATOM      8  C   UNL     1      -0.743   1.244   0.230  0.00  0.00    +0.000 C 
ENDROOT
BRANCH   6   9
ATOM      9  C   UNL     1      -1.336  -3.360   3.092  0.00  0.00    +0.000 A 
ATOM     10  C   UNL     1      -0.335  -2.743   3.827  0.00  0.00    +0.000 A 
ATOM     11  C   UNL     1      -0.182  -3.287   5.135  0.00  0.00    +0.000 A 
ATOM     12  C   UNL     1      -1.070  -4.309   5.371  0.00  0.00    +0.000 A 
ATOM     13  S   UNL     1      -2.078  -4.606   4.025  0.00  0.00    +0.000 S 
ENDBRANCH   6   9
TORSDOF 1
