MODEL 1
REMARK VINA RESULT:      -5.0      0.000      0.000
REMARK  Name = *****
REMARK  1 active torsions:
REMARK  status: ('A' for Active; 'I' for Inactive)
REMARK    1  A    between atoms: C_9  and  C_11
REMARK                            x       y       z     vdW  Elec       q    Type
REMARK                         _______ _______ _______ _____ _____    ______ ____
ROOT
ATOM      1  C   UNL     1     102.768 128.118  83.395  0.00  0.00    +0.000 C 
ATOM      2  C   UNL     1     101.285 128.092  83.233  0.00  0.00    +0.000 A 
ATOM      3  C   UNL     1     100.482 129.157  83.667  0.00  0.00    +0.000 A 
ATOM      4  C   UNL     1      99.100 129.110  83.483  0.00  0.00    +0.000 A 
ATOM      5  C   UNL     1      98.521 128.007  82.862  0.00  0.00    +0.000 A 
ATOM      6  C   UNL     1      99.325 126.953  82.426  0.00  0.00    +0.000 A 
ATOM      7  C   UNL     1     100.708 126.991  82.610  0.00  0.00    +0.000 A 
ATOM      8  N   UNL     1     101.482 125.917  82.174  0.00  0.00    +0.000 NA
ATOM      9  C   UNL     1     102.747 125.912  82.437  0.00  0.00    +0.000 C 
ATOM     10  O   UNL     1     103.433 126.884  83.077  0.00  0.00    +0.000 OA
ENDROOT
BRANCH   9  11
ATOM     11  C   UNL     1     103.645 124.793  82.050  0.00  0.00    +0.000 A 
ATOM     12  C   UNL     1     104.106 123.919  83.047  0.00  0.00    +0.000 A 
ATOM     13  C   UNL     1     104.958 122.860  82.720  0.00  0.00    +0.000 A 
ATOM     14  C   UNL     1     105.355 122.672  81.397  0.00  0.00    +0.000 A 
ATOM     15  C   UNL     1     104.906 123.535  80.398  0.00  0.00    +0.000 A 
ATOM     16  C   UNL     1     104.052 124.594  80.723  0.00  0.00    +0.000 A 
ATOM     17 CL   UNL     1     106.405 121.371  80.995  0.00  0.00    +0.000 Cl
ENDBRANCH   9  11
TORSDOF 1
ENDMDL
