MODEL 1
REMARK VINA RESULT:      -4.4      0.000      0.000
REMARK  Name = *****
REMARK  4 active torsions:
REMARK  status: ('A' for Active; 'I' for Inactive)
REMARK    1  A    between atoms: C_4  and  C_6
REMARK    2  A    between atoms: C_6  and  O_7
REMARK    3  A    between atoms: O_7  and  C_8
REMARK    4  A    between atoms: C_8  and  C_10
REMARK                            x       y       z     vdW  Elec       q    Type
REMARK                         _______ _______ _______ _____ _____    ______ ____
ROOT
ATOM      1  C   UNL     1      99.092 127.418  82.977  0.00  0.00    +0.000 C 
ATOM      2  O   UNL     1      98.304 127.131  82.091  0.00  0.00    +0.000 OA
ENDROOT
BRANCH   1   3
ATOM      3  C   UNL     1      98.946 128.615  83.850  0.00  0.00    +0.000 A 
ATOM      4  C   UNL     1      99.493 129.828  83.408  0.00  0.00    +0.000 A 
ATOM      5  C   UNL     1      99.387 130.977  84.193  0.00  0.00    +0.000 A 
ATOM      6  C   UNL     1      98.735 130.923  85.424  0.00  0.00    +0.000 A 
ATOM      7  C   UNL     1      98.189 129.721  85.873  0.00  0.00    +0.000 A 
ATOM      8  C   UNL     1      98.292 128.568  85.090  0.00  0.00    +0.000 A 
ENDBRANCH   1   3
BRANCH   1   9
ATOM      9  O   UNL     1     100.209 126.723  83.307  0.00  0.00    +0.000 OA
BRANCH   9  10
ATOM     10  C   UNL     1     101.018 126.275  82.206  0.00  0.00    +0.000 C 
BRANCH  10  14
ATOM     11  C   UNL     1     103.702 124.844  81.420  0.00  0.00    +0.000 C 
ATOM     12  C   UNL     1     103.644 125.981  80.400  0.00  0.00    +0.000 C 
ATOM     13  C   UNL     1     103.130 127.209  81.150  0.00  0.00    +0.000 C 
ATOM     14  C   UNL     1     102.484 126.671  82.424  0.00  0.00    +0.000 C 
ATOM     15  C   UNL     1     103.380 125.479  82.766  0.00  0.00    +0.000 C 
ENDBRANCH  10  14
ENDBRANCH   9  10
ENDBRANCH   1   9
TORSDOF 4
ENDMDL
