MODEL 1
REMARK VINA RESULT:      -4.4      0.000      0.000
REMARK  Name = *****
REMARK  3 active torsions:
REMARK  status: ('A' for Active; 'I' for Inactive)
REMARK    1  A    between atoms: C_4  and  C_7
REMARK    2  A    between atoms: C_7  and  P_8
REMARK    3  A    between atoms: P_8  and  C_9
REMARK                            x       y       z     vdW  Elec       q    Type
REMARK                         _______ _______ _______ _____ _____    ______ ____
ROOT
ATOM      1  P   UNL     1      88.830  70.484  86.492  0.00  0.00    +0.000 P 
ATOM      2 CL   UNL     1      90.337  70.808  85.055  0.00  0.00    +0.000 Cl
ENDROOT
BRANCH   1   3
ATOM      3  C   UNL     1      88.892  68.665  86.652  0.00  0.00    +0.000 A 
ATOM      4  C   UNL     1      87.883  67.919  87.279  0.00  0.00    +0.000 A 
ATOM      5  C   UNL     1      87.984  66.530  87.389  0.00  0.00    +0.000 A 
ATOM      6  C   UNL     1      89.096  65.867  86.875  0.00  0.00    +0.000 A 
ATOM      7  C   UNL     1      90.107  66.592  86.249  0.00  0.00    +0.000 A 
ATOM      8  C   UNL     1      90.005  67.981  86.138  0.00  0.00    +0.000 A 
ENDBRANCH   1   3
BRANCH   1   9
ATOM      9  C   UNL     1      87.315  70.677  85.474  0.00  0.00    +0.000 C 
BRANCH   9  13
ATOM     10  C   UNL     1      84.416  72.435  88.150  0.00  0.00    +0.000 A 
ATOM     11  C   UNL     1      84.221  72.498  86.772  0.00  0.00    +0.000 A 
ATOM     12  C   UNL     1      85.158  71.932  85.907  0.00  0.00    +0.000 A 
ATOM     13  C   UNL     1      86.310  71.302  86.407  0.00  0.00    +0.000 A 
ATOM     14  C   UNL     1      86.488  71.241  87.801  0.00  0.00    +0.000 A 
ATOM     15  C   UNL     1      85.548  71.807  88.664  0.00  0.00    +0.000 A 
ENDBRANCH   9  13
ENDBRANCH   1   9
TORSDOF 3
ENDMDL
