REMARK  Name = *****
REMARK  5 active torsions:
REMARK  status: ('A' for Active; 'I' for Inactive)
REMARK    1  A    between atoms: C_1  and  C_2
REMARK    2  A    between atoms: C_2  and  C_3
REMARK    3  A    between atoms: C_2  and  C_10
REMARK    4  A    between atoms: C_3  and  C_4
REMARK    5  A    between atoms: C_4  and  C_5
REMARK                            x       y       z     vdW  Elec       q    Type
REMARK                         _______ _______ _______ _____ _____    ______ ____
ROOT
ATOM      1  C   UNL     1       0.856   0.062  -0.157  0.00  0.00    +0.000 C 
ATOM      2  C   UNL     1       2.385   0.146  -0.105  0.00  0.00    +0.000 C 
ENDROOT
BRANCH   2   3
ATOM      3  C   UNL     1       2.930   0.649  -1.413  0.00  0.00    +0.000 C 
ATOM      4  C   UNL     1       3.631   1.779  -1.620  0.00  0.00    +0.000 C 
ATOM      5  C   UNL     1       3.967   1.889  -3.016  0.00  0.00    +0.000 C 
ATOM      6  C   UNL     1       3.477   0.831  -3.677  0.00  0.00    +0.000 C 
ATOM      7  C   UNL     1       2.758  -0.079  -2.723  0.00  0.00    +0.000 C 
ENDBRANCH   2   3
BRANCH   2   8
ATOM      8  C   UNL     1       3.034  -1.202   0.277  0.00  0.00    +0.000 C 
BRANCH   8   9
ATOM      9  C   UNL     1       2.692  -1.651   1.674  0.00  0.00    +0.000 C 
BRANCH   9  10
ATOM     10  C   UNL     1       3.477  -1.557   2.754  0.00  0.00    +0.000 C 
ATOM     11  C   UNL     1       4.806  -0.987   2.840  0.00  0.00    +0.000 C 
ATOM     12  C   UNL     1       5.198  -1.105   4.121  0.00  0.00    +0.000 C 
ATOM     13  C   UNL     1       4.144  -1.744   4.888  0.00  0.00    +0.000 C 
ATOM     14  C   UNL     1       3.108  -2.017   4.079  0.00  0.00    +0.000 C 
ENDBRANCH   9  10
ENDBRANCH   8   9
ENDBRANCH   2   8
TORSDOF 4
