MODEL 1
REMARK VINA RESULT:      -4.3      0.000      0.000
REMARK  Name = *****
REMARK  3 active torsions:
REMARK  status: ('A' for Active; 'I' for Inactive)
REMARK    1  A    between atoms: C_4  and  C_14
REMARK    2  A    between atoms: C_5  and  C_7
REMARK    3  A    between atoms: C_8  and  C_9
REMARK                            x       y       z     vdW  Elec       q    Type
REMARK                         _______ _______ _______ _____ _____    ______ ____
ROOT
ATOM      1  C   UNL     1     101.171 130.777  84.749  0.00  0.00    +0.000 A 
ATOM      2  C   UNL     1      99.786 130.878  84.630  0.00  0.00    +0.000 A 
ATOM      3  C   UNL     1      99.070 129.882  83.965  0.00  0.00    +0.000 A 
ATOM      4  C   UNL     1      99.736 128.777  83.412  0.00  0.00    +0.000 A 
ATOM      5  C   UNL     1     101.130 128.678  83.533  0.00  0.00    +0.000 A 
ATOM      6  C   UNL     1     101.843 129.681  84.202  0.00  0.00    +0.000 A 
ENDROOT
BRANCH   5   7
ATOM      7  C   UNL     1     101.856 127.568  82.988  0.00  0.00    +0.000 C 
ATOM      8  C   UNL     1     102.481 126.649  82.532  0.00  0.00    +0.000 C 
BRANCH   8   9
ATOM      9  C   UNL     1     103.243 125.569  81.990  0.00  0.00    +0.000 A 
ATOM     10  C   UNL     1     103.736 124.543  82.764  0.00  0.00    +0.000 A 
ATOM     11  S   UNL     1     104.608 123.399  81.834  0.00  0.00    +0.000 S 
ATOM     12  C   UNL     1     104.327 124.278  80.392  0.00  0.00    +0.000 A 
ATOM     13  C   UNL     1     103.585 125.417  80.617  0.00  0.00    +0.000 A 
ENDBRANCH   8   9
ENDBRANCH   5   7
BRANCH   4  14
ATOM     14  C   UNL     1      98.968 127.773  82.734  0.00  0.00    +0.000 C 
ATOM     15  N   UNL     1      98.345 126.971  82.171  0.00  0.00    +0.000 NA
ENDBRANCH   4  14
TORSDOF 3
ENDMDL
