REMARK  Name = *****
REMARK  4 active torsions:
REMARK  status: ('A' for Active; 'I' for Inactive)
REMARK    1  A    between atoms: C_4  and  C_7
REMARK    2  A    between atoms: N_8  and  O_9
REMARK    3  A    between atoms: O_9  and  C_10
REMARK    4  A    between atoms: C_10  and  C_11
REMARK                            x       y       z     vdW  Elec       q    Type
REMARK                         _______ _______ _______ _____ _____    ______ ____
ROOT
ATOM      1  C   UNL     1       2.779  -0.736  -0.209  0.00  0.00    +0.000 C 
ATOM      2  N   UNL     1       3.532  -1.729   0.154  0.00  0.00    +0.000 NA
ENDROOT
BRANCH   1   6
ATOM      3  C   UNL     1      -0.977   1.360   0.160  0.00  0.00    +0.000 C 
ATOM      4  C   UNL     1      -0.981   0.010  -0.551  0.00  0.00    +0.000 C 
ATOM      5  C   UNL     1       0.430  -0.424  -0.943  0.00  0.00    +0.000 C 
ATOM      6  C   UNL     1       1.373  -0.432   0.265  0.00  0.00    +0.000 C 
ATOM      7  C   UNL     1       1.374   0.927   0.973  0.00  0.00    +0.000 C 
ATOM      8  C   UNL     1      -0.037   1.360   1.362  0.00  0.00    +0.000 C 
ENDBRANCH   1   6
BRANCH   2   9
ATOM      9  O   UNL     1       2.877  -2.558   1.079  0.00  0.00    +0.000 OA
BRANCH   9  10
ATOM     10  C   UNL     1       3.701  -3.686   1.380  0.00  0.00    +0.000 C 
BRANCH  10  11
ATOM     11  C   UNL     1       3.313  -4.862   0.519  0.00  0.00    +0.000 A 
ATOM     12  C   UNL     1       3.937  -5.070  -0.719  0.00  0.00    +0.000 A 
ATOM     13  C   UNL     1       3.577  -6.153  -1.522  0.00  0.00    +0.000 A 
ATOM     14  C   UNL     1       2.583  -7.034  -1.099  0.00  0.00    +0.000 A 
ATOM     15  C   UNL     1       1.944  -6.829   0.123  0.00  0.00    +0.000 A 
ATOM     16  C   UNL     1       2.304  -5.746   0.927  0.00  0.00    +0.000 A 
ENDBRANCH  10  11
ENDBRANCH   9  10
ENDBRANCH   2   9
TORSDOF 4
