REMARK  Name = *****
REMARK  4 active torsions:
REMARK  status: ('A' for Active; 'I' for Inactive)
REMARK    1  A    between atoms: C_1  and  C_2
REMARK    2  A    between atoms: C_5  and  C_7
REMARK    3  A    between atoms: C_7  and  C_8
REMARK    4  A    between atoms: C_8  and  C_9
REMARK                            x       y       z     vdW  Elec       q    Type
REMARK                         _______ _______ _______ _____ _____    ______ ____
ROOT
ATOM      1  C   UNL     1       5.634   0.752  -0.041  0.00  0.00    +0.000 C 
ENDROOT
BRANCH   1   6
ATOM      2  C   UNL     1       0.806  -0.272  -0.175  0.00  0.00    +0.000 C 
ATOM      3  C   UNL     1       2.311  -0.386   0.018  0.00  0.00    +0.000 C 
ATOM      4  C   UNL     1       2.671  -1.417   1.077  0.00  0.00    +0.000 C 
ATOM      5  S   UNL     1       4.436  -1.258   1.478  0.00  0.00    +0.000 S 
ATOM      6  C   UNL     1       4.623   0.521   1.089  0.00  0.00    +0.000 C 
ATOM      7  S   UNL     1       2.997   1.190   0.603  0.00  0.00    +0.000 S 
ENDBRANCH   1   6
BRANCH   1   8
ATOM      8  C   UNL     1       7.074   0.419   0.372  0.00  0.00    +0.000 C 
BRANCH   8   9
ATOM      9  C   UNL     1       8.049   0.728  -0.738  0.00  0.00    +0.000 A 
ATOM     10  C   UNL     1       8.640   1.995  -0.834  0.00  0.00    +0.000 A 
ATOM     11  C   UNL     1       9.526   2.284  -1.873  0.00  0.00    +0.000 A 
ATOM     12  C   UNL     1       9.826   1.312  -2.826  0.00  0.00    +0.000 A 
ATOM     13  C   UNL     1       9.240   0.051  -2.742  0.00  0.00    +0.000 A 
ATOM     14  C   UNL     1       8.353  -0.240  -1.704  0.00  0.00    +0.000 A 
ENDBRANCH   8   9
ENDBRANCH   1   8
TORSDOF 3
