MODEL 1
REMARK VINA RESULT:      -4.7      0.000      0.000
REMARK  Name = *****
REMARK  3 active torsions:
REMARK  status: ('A' for Active; 'I' for Inactive)
REMARK    1  A    between atoms: C_4  and  N_7
REMARK    2  A    between atoms: N_7  and  O_8
REMARK    3  A    between atoms: O_8  and  C_9
REMARK                            x       y       z     vdW  Elec       q    Type
REMARK                         _______ _______ _______ _____ _____    ______ ____
ROOT
ATOM      1  O   UNL     1      88.838  64.525  86.648  0.00  0.00    +0.000 OA
ENDROOT
BRANCH   1   2
ATOM      2  C   UNL     1      88.883  65.899  86.751  0.00  0.00    +0.000 A 
ATOM      3  C   UNL     1      89.994  66.558  86.205  0.00  0.00    +0.000 A 
ATOM      4  C   UNL     1      90.088  67.950  86.253  0.00  0.00    +0.000 A 
ATOM      5  C   UNL     1      89.062  68.688  86.840  0.00  0.00    +0.000 A 
ATOM      6  C   UNL     1      87.943  68.048  87.370  0.00  0.00    +0.000 A 
ATOM      7  C   UNL     1      87.850  66.655  87.320  0.00  0.00    +0.000 A 
ATOM      8 CL   UNL     1      89.172  70.404  86.902  0.00  0.00    +0.000 Cl
ATOM      9 CL   UNL     1      91.286  65.679  85.466  0.00  0.00    +0.000 Cl
ENDBRANCH   1   2
BRANCH   1  10
ATOM     10  N   UNL     1      89.226  63.911  87.841  0.00  0.00    +0.000 N 
ATOM     11  H   UNL     1      90.179  63.775  88.049  0.00  0.00    +0.000 HD
BRANCH  10  15
ATOM     12  C   UNL     1      86.155  62.810  90.523  0.00  0.00    +0.000 A 
ATOM     13  C   UNL     1      86.200  62.240  89.253  0.00  0.00    +0.000 A 
ATOM     14  C   UNL     1      87.221  62.589  88.366  0.00  0.00    +0.000 A 
ATOM     15  C   UNL     1      88.225  63.488  88.745  0.00  0.00    +0.000 A 
ATOM     16  C   UNL     1      88.147  64.080  90.013  0.00  0.00    +0.000 A 
ATOM     17  C   UNL     1      87.125  63.736  90.901  0.00  0.00    +0.000 A 
ENDBRANCH  10  15
ENDBRANCH   1  10
TORSDOF 3
ENDMDL
