MODEL 1
REMARK VINA RESULT:      -4.7      0.000      0.000
REMARK  Name = *****
REMARK  4 active torsions:
REMARK  status: ('A' for Active; 'I' for Inactive)
REMARK    1  A    between atoms: C_1  and  O_2
REMARK    2  A    between atoms: O_2  and  C_3
REMARK    3  A    between atoms: C_3  and  C_11
REMARK    4  A    between atoms: C_4  and  C_5
REMARK                            x       y       z     vdW  Elec       q    Type
REMARK                         _______ _______ _______ _____ _____    ______ ____
ROOT
ATOM      1  C   UNL     1     102.764 125.963  81.619  0.00  0.00    +0.000 C 
ATOM      2  C   UNL     1     101.807 125.974  82.566  0.00  0.00    +0.000 C 
ENDROOT
BRANCH   2   3
ATOM      3  C   UNL     1     100.846 127.060  82.809  0.00  0.00    +0.000 A 
ATOM      4  C   UNL     1      99.502 126.964  82.433  0.00  0.00    +0.000 A 
ATOM      5  C   UNL     1      98.608 127.999  82.718  0.00  0.00    +0.000 A 
ATOM      6  C   UNL     1      99.049 129.137  83.391  0.00  0.00    +0.000 A 
ATOM      7  C   UNL     1     100.383 129.238  83.783  0.00  0.00    +0.000 A 
ATOM      8  C   UNL     1     101.276 128.202  83.498  0.00  0.00    +0.000 A 
ENDBRANCH   2   3
BRANCH   1   9
ATOM      9  C   UNL     1     103.714 124.837  81.547  0.00  0.00    +0.000 A 
ATOM     10  C   UNL     1     104.281 124.446  80.326  0.00  0.00    +0.000 A 
ATOM     11  C   UNL     1     105.182 123.381  80.273  0.00  0.00    +0.000 A 
ATOM     12  C   UNL     1     105.524 122.697  81.439  0.00  0.00    +0.000 A 
ATOM     13  C   UNL     1     104.967 123.077  82.659  0.00  0.00    +0.000 A 
ATOM     14  C   UNL     1     104.067 124.143  82.713  0.00  0.00    +0.000 A 
ENDBRANCH   1   9
BRANCH   1  16
ATOM     15  C   UNL     1     104.090 127.858  81.238  0.00  0.00    +0.000 C 
ATOM     16  O   UNL     1     102.998 127.051  80.798  0.00  0.00    +0.000 OA
ENDBRANCH   1  16
TORSDOF 3
ENDMDL
