MODEL 1
REMARK VINA RESULT:      -4.4      0.000      0.000
REMARK  Name = *****
REMARK  3 active torsions:
REMARK  status: ('A' for Active; 'I' for Inactive)
REMARK    1  A    between atoms: C_1  and  C_2
REMARK    2  A    between atoms: C_5  and  C_8
REMARK    3  A    between atoms: C_9  and  C_10
REMARK                            x       y       z     vdW  Elec       q    Type
REMARK                         _______ _______ _______ _____ _____    ______ ____
ROOT
ATOM      1  C   UNL     1     102.686 126.140  81.914  0.00  0.00    +0.000 C 
ATOM      2  C   UNL     1     103.495 125.407  81.410  0.00  0.00    +0.000 C 
ENDROOT
BRANCH   1   7
ATOM      3  C   UNL     1      98.833 129.621  84.351  0.00  0.00    +0.000 C 
ATOM      4  C   UNL     1      99.837 128.725  83.688  0.00  0.00    +0.000 A 
ATOM      5  C   UNL     1      99.424 127.569  83.014  0.00  0.00    +0.000 A 
ATOM      6  C   UNL     1     100.363 126.719  82.426  0.00  0.00    +0.000 A 
ATOM      7  C   UNL     1     101.725 127.011  82.515  0.00  0.00    +0.000 A 
ATOM      8  C   UNL     1     102.146 128.153  83.198  0.00  0.00    +0.000 A 
ATOM      9  C   UNL     1     101.206 129.003  83.786  0.00  0.00    +0.000 A 
ENDBRANCH   1   7
BRANCH   2  10
ATOM     10  C   UNL     1     104.454 124.539  80.815  0.00  0.00    +0.000 A 
ATOM     11  C   UNL     1     104.729 123.254  81.216  0.00  0.00    +0.000 A 
ATOM     12  C   UNL     1     105.727 122.642  80.437  0.00  0.00    +0.000 A 
ATOM     13  C   UNL     1     106.209 123.459  79.445  0.00  0.00    +0.000 A 
ATOM     14  S   UNL     1     105.429 124.988  79.474  0.00  0.00    +0.000 S 
ATOM     15  F   UNL     1     106.155 121.424  80.629  0.00  0.00    +0.000 F 
ATOM     16  F   UNL     1     104.131 122.659  82.215  0.00  0.00    +0.000 F 
ENDBRANCH   2  10
TORSDOF 2
ENDMDL
