REMARK  Name = *****
REMARK  2 active torsions:
REMARK  status: ('A' for Active; 'I' for Inactive)
REMARK    1  A    between atoms: C_6  and  C_7
REMARK    2  A    between atoms: C_8  and  C_9
REMARK                            x       y       z     vdW  Elec       q    Type
REMARK                         _______ _______ _______ _____ _____    ______ ____
ROOT
ATOM      1  C   UNL     1       5.103   1.285  -0.043  0.00  0.00    +0.000 A 
ATOM      2  C   UNL     1       5.915   0.302  -0.624  0.00  0.00    +0.000 A 
ATOM      3  C   UNL     1       7.307   0.405  -0.598  0.00  0.00    +0.000 A 
ATOM      4  C   UNL     1       7.923   1.499  -0.001  0.00  0.00    +0.000 A 
ATOM      5  C   UNL     1       7.133   2.493   0.564  0.00  0.00    +0.000 A 
ATOM      6  C   UNL     1       5.743   2.389   0.537  0.00  0.00    +0.000 A 
ATOM      7  F   UNL     1       5.011   3.371   1.088  0.00  0.00    +0.000 F 
ATOM      8  F   UNL     1       7.697   3.566   1.140  0.00  0.00    +0.000 F 
ATOM      9 CL   UNL     1       9.639   1.625   0.030  0.00  0.00    +0.000 Cl
ATOM     10  F   UNL     1       8.042  -0.564  -1.164  0.00  0.00    +0.000 F 
ATOM     11  F   UNL     1       5.368  -0.760  -1.236  0.00  0.00    +0.000 F 
ENDROOT
BRANCH   1  13
ATOM     12  C   UNL     1       2.894   0.125   0.003  0.00  0.00    +0.000 C 
ATOM     13  C   UNL     1       3.630   1.246  -0.063  0.00  0.00    +0.000 C 
BRANCH  12  19
ATOM     14  C   UNL     1       0.657   1.068   0.652  0.00  0.00    +0.000 A 
ATOM     15  C   UNL     1      -0.725   0.957   0.611  0.00  0.00    +0.000 A 
ATOM     16  N   UNL     1      -1.380  -0.032  -0.030  0.00  0.00    +0.000 NA
ATOM     17  C   UNL     1      -0.620  -0.957  -0.653  0.00  0.00    +0.000 A 
ATOM     18  C   UNL     1       0.766  -0.933  -0.667  0.00  0.00    +0.000 A 
ATOM     19  C   UNL     1       1.424   0.110  -0.013  0.00  0.00    +0.000 A 
ENDBRANCH  12  19
ENDBRANCH   1  13
TORSDOF 2
