MODEL 1
REMARK VINA RESULT:      -4.8      0.000      0.000
REMARK  Name = *****
REMARK  3 active torsions:
REMARK  status: ('A' for Active; 'I' for Inactive)
REMARK    1  A    between atoms: C_1  and  C_2
REMARK    2  A    between atoms: C_5  and  C_8
REMARK    3  A    between atoms: C_9  and  C_10
REMARK                            x       y       z     vdW  Elec       q    Type
REMARK                         _______ _______ _______ _____ _____    ______ ____
ROOT
ATOM      1  C   UNL     1     101.878 125.953  82.224  0.00  0.00    +0.000 C 
ATOM      2  C   UNL     1     103.144 125.661  82.562  0.00  0.00    +0.000 C 
ENDROOT
BRANCH   1   7
ATOM      3  C   UNL     1      99.120 130.586  84.336  0.00  0.00    +0.000 C 
ATOM      4  C   UNL     1      99.826 129.397  83.755  0.00  0.00    +0.000 A 
ATOM      5  C   UNL     1      99.103 128.368  83.143  0.00  0.00    +0.000 A 
ATOM      6  C   UNL     1      99.761 127.245  82.630  0.00  0.00    +0.000 A 
ATOM      7  C   UNL     1     101.153 127.131  82.721  0.00  0.00    +0.000 A 
ATOM      8  C   UNL     1     101.871 128.148  83.363  0.00  0.00    +0.000 A 
ATOM      9  C   UNL     1     101.214 129.271  83.875  0.00  0.00    +0.000 A 
ENDBRANCH   1   7
BRANCH   2  10
ATOM     10  C   UNL     1     103.864 124.472  82.081  0.00  0.00    +0.000 A 
ATOM     11  C   UNL     1     104.246 124.324  80.739  0.00  0.00    +0.000 A 
ATOM     12  C   UNL     1     104.956 123.195  80.327  0.00  0.00    +0.000 A 
ATOM     13  C   UNL     1     105.295 122.219  81.257  0.00  0.00    +0.000 A 
ATOM     14  C   UNL     1     104.941 122.355  82.593  0.00  0.00    +0.000 A 
ATOM     15  C   UNL     1     104.231 123.484  83.006  0.00  0.00    +0.000 A 
ATOM     16  F   UNL     1     105.978 121.138  80.860  0.00  0.00    +0.000 F 
ENDBRANCH   2  10
TORSDOF 2
ENDMDL
