REMARK  Name = *****
REMARK  4 active torsions:
REMARK  status: ('A' for Active; 'I' for Inactive)
REMARK    1  A    between atoms: N_2  and  C_3
REMARK    2  A    between atoms: C_6  and  C_9
REMARK    3  A    between atoms: C_9  and  O_11
REMARK    4  A    between atoms: O_11  and  C_12
REMARK                            x       y       z     vdW  Elec       q    Type
REMARK                         _______ _______ _______ _____ _____    ______ ____
ROOT
ATOM      1  C   UNL     1       3.780  -1.717  -0.817  0.00  0.00    +0.000 C 
ATOM      2  O   UNL     1       4.305  -2.194  -1.810  0.00  0.00    +0.000 OA
ENDROOT
BRANCH   1   6
ATOM      3  C   UNL     1      -0.466  -1.616  -0.338  0.00  0.00    +0.000 A 
ATOM      4  C   UNL     1       0.331  -1.120   0.692  0.00  0.00    +0.000 A 
ATOM      5  C   UNL     1       1.722  -1.145   0.551  0.00  0.00    +0.000 A 
ATOM      6  C   UNL     1       2.305  -1.665  -0.616  0.00  0.00    +0.000 A 
ATOM      7  C   UNL     1       1.481  -2.161  -1.640  0.00  0.00    +0.000 A 
ATOM      8  C   UNL     1       0.091  -2.137  -1.503  0.00  0.00    +0.000 A 
BRANCH   3  10
ATOM      9  C   UNL     1      -3.013  -1.569  -0.079  0.00  0.00    +0.000 C 
ATOM     10  N   UNL     1      -1.847  -1.591  -0.198  0.00  0.00    +0.000 NA
ENDBRANCH   3  10
ENDBRANCH   1   6
BRANCH   1  11
ATOM     11  O   UNL     1       4.422  -1.166   0.241  0.00  0.00    +0.000 OA
BRANCH  11  12
ATOM     12  C   UNL     1       5.860  -1.154   0.174  0.00  0.00    +0.000 C 
ATOM     13  C   UNL     1       6.412  -2.499   0.655  0.00  0.00    +0.000 C 
ATOM     14  C   UNL     1       7.934  -2.480   0.756  0.00  0.00    +0.000 C 
ATOM     15  C   UNL     1       8.426  -1.333   1.635  0.00  0.00    +0.000 C 
ATOM     16  C   UNL     1       7.873   0.011   1.170  0.00  0.00    +0.000 C 
ATOM     17  C   UNL     1       6.351  -0.014   1.070  0.00  0.00    +0.000 C 
ENDBRANCH  11  12
ENDBRANCH   1  11
TORSDOF 4
