MODEL 1
REMARK VINA RESULT:      -4.4      0.000      0.000
REMARK  Name = *****
REMARK  2 active torsions:
REMARK  status: ('A' for Active; 'I' for Inactive)
REMARK    1  A    between atoms: C_4  and  C_7
REMARK    2  A    between atoms: C_8  and  C_9
REMARK                            x       y       z     vdW  Elec       q    Type
REMARK                         _______ _______ _______ _____ _____    ______ ____
ROOT
ATOM      1  C   UNL     1     102.896 126.568  82.264  0.00  0.00    +0.000 C 
ATOM      2  C   UNL     1     102.850 125.652  81.278  0.00  0.00    +0.000 C 
ATOM      3  I   UNL     1     104.628 127.122  83.274  0.00  0.00    +0.000 I 
ENDROOT
BRANCH   1   7
ATOM      4  C   UNL     1      99.220 128.448  83.380  0.00  0.00    +0.000 A 
ATOM      5  C   UNL     1      99.201 127.238  82.687  0.00  0.00    +0.000 A 
ATOM      6  C   UNL     1     100.402 126.622  82.326  0.00  0.00    +0.000 A 
ATOM      7  C   UNL     1     101.628 127.213  82.656  0.00  0.00    +0.000 A 
ATOM      8  C   UNL     1     101.637 128.430  83.351  0.00  0.00    +0.000 A 
ATOM      9  C   UNL     1     100.436 129.044  83.712  0.00  0.00    +0.000 A 
ENDBRANCH   1   7
BRANCH   2  10
ATOM     10  C   UNL     1     103.985 124.897  80.741  0.00  0.00    +0.000 A 
ATOM     11  C   UNL     1     104.755 125.431  79.709  0.00  0.00    +0.000 A 
ATOM     12  C   UNL     1     105.822 124.685  79.236  0.00  0.00    +0.000 A 
ATOM     13  N   UNL     1     106.162 123.470  79.718  0.00  0.00    +0.000 NA
ATOM     14  C   UNL     1     105.398 122.976  80.715  0.00  0.00    +0.000 A 
ATOM     15  C   UNL     1     104.313 123.644  81.258  0.00  0.00    +0.000 A 
ENDBRANCH   2  10
TORSDOF 2
ENDMDL
