REMARK  Name = *****
REMARK  4 active torsions:
REMARK  status: ('A' for Active; 'I' for Inactive)
REMARK    1  A    between atoms: C_1  and  C_2
REMARK    2  A    between atoms: C_2  and  C_11
REMARK    3  A    between atoms: N_3  and  C_4
REMARK    4  A    between atoms: C_4  and  C_5
REMARK                            x       y       z     vdW  Elec       q    Type
REMARK                         _______ _______ _______ _____ _____    ______ ____
ROOT
ATOM      1  C   UNL     1       1.231  -0.523  -0.446  0.00  0.00    +0.000 C 
ATOM      2  C   UNL     1       2.650  -0.234  -0.021  0.00  0.00    +0.000 C 
ATOM      3  N   UNL     1       3.368  -0.957   0.769  0.00  0.00    +0.000 NA
ENDROOT
BRANCH   2   4
ATOM      4  C   UNL     1       3.243   1.011  -0.546  0.00  0.00    +0.000 A 
ATOM      5  C   UNL     1       3.253   2.131   0.293  0.00  0.00    +0.000 A 
ATOM      6  C   UNL     1       3.797   3.330  -0.165  0.00  0.00    +0.000 A 
ATOM      7  C   UNL     1       4.337   3.406  -1.450  0.00  0.00    +0.000 A 
ATOM      8  C   UNL     1       4.332   2.282  -2.282  0.00  0.00    +0.000 A 
ATOM      9  C   UNL     1       3.782   1.079  -1.833  0.00  0.00    +0.000 A 
ATOM     10 CL   UNL     1       3.798  -0.278  -2.899  0.00  0.00    +0.000 Cl
ENDBRANCH   2   4
BRANCH   3  11
ATOM     11  C   UNL     1       2.823  -2.196   1.324  0.00  0.00    +0.000 C 
BRANCH  11  12
ATOM     12  C   UNL     1       2.171  -1.998   2.671  0.00  0.00    +0.000 A 
ATOM     13  C   UNL     1       0.934  -2.587   2.962  0.00  0.00    +0.000 A 
ATOM     14  C   UNL     1       0.350  -2.425   4.220  0.00  0.00    +0.000 A 
ATOM     15  C   UNL     1       1.001  -1.679   5.202  0.00  0.00    +0.000 A 
ATOM     16  C   UNL     1       2.236  -1.096   4.928  0.00  0.00    +0.000 A 
ATOM     17  C   UNL     1       2.819  -1.257   3.671  0.00  0.00    +0.000 A 
ENDBRANCH  11  12
ENDBRANCH   3  11
TORSDOF 3
