MODEL 1
REMARK VINA RESULT:      -4.9      0.000      0.000
REMARK  Name = *****
REMARK  2 active torsions:
REMARK  status: ('A' for Active; 'I' for Inactive)
REMARK    1  A    between atoms: C_3  and  C_8
REMARK    2  A    between atoms: C_9  and  C_10
REMARK                            x       y       z     vdW  Elec       q    Type
REMARK                         _______ _______ _______ _____ _____    ______ ____
ROOT
ATOM      1  C   UNL     1     102.126 126.353  82.000  0.00  0.00    +0.000 C 
ATOM      2  C   UNL     1     102.976 125.659  81.512  0.00  0.00    +0.000 C 
ENDROOT
BRANCH   1   5
ATOM      3  C   UNL     1     100.492 129.135  83.875  0.00  0.00    +0.000 A 
ATOM      4  C   UNL     1     101.477 128.323  83.305  0.00  0.00    +0.000 A 
ATOM      5  C   UNL     1     101.116 127.181  82.581  0.00  0.00    +0.000 A 
ATOM      6  C   UNL     1      99.769 126.852  82.427  0.00  0.00    +0.000 A 
ATOM      7  C   UNL     1      98.798 127.667  82.998  0.00  0.00    +0.000 A 
ATOM      8  C   UNL     1      99.147 128.805  83.721  0.00  0.00    +0.000 A 
ATOM      9  F   UNL     1      97.504 127.353  82.852  0.00  0.00    +0.000 F 
ENDBRANCH   1   5
BRANCH   2  10
ATOM     10  C   UNL     1     103.991 124.835  80.931  0.00  0.00    +0.000 A 
ATOM     11  C   UNL     1     104.715 125.291  79.829  0.00  0.00    +0.000 A 
ATOM     12  C   UNL     1     105.697 124.477  79.275  0.00  0.00    +0.000 A 
ATOM     13  C   UNL     1     105.970 123.218  79.800  0.00  0.00    +0.000 A 
ATOM     14  C   UNL     1     105.247 122.760  80.901  0.00  0.00    +0.000 A 
ATOM     15  C   UNL     1     104.257 123.570  81.467  0.00  0.00    +0.000 A 
ATOM     16  F   UNL     1     106.393 124.912  78.218  0.00  0.00    +0.000 F 
ENDBRANCH   2  10
TORSDOF 2
ENDMDL
