MODEL 1
REMARK VINA RESULT:      -4.7      0.000      0.000
REMARK  Name = *****
REMARK  5 active torsions:
REMARK  status: ('A' for Active; 'I' for Inactive)
REMARK    1  A    between atoms: C_1  and  C_2
REMARK    2  A    between atoms: C_3  and  C_19
REMARK    3  A    between atoms: C_4  and  C_8
REMARK    4  A    between atoms: C_8  and  C_10
REMARK    5  A    between atoms: C_10  and  C_11
REMARK                            x       y       z     vdW  Elec       q    Type
REMARK                         _______ _______ _______ _____ _____    ______ ____
ROOT
ATOM      1  C   UNL     1      88.560  70.679  85.217  0.00  0.00    +0.000 C 
ATOM      2  O   UNL     1      89.585  71.355  85.290  0.00  0.00    +0.000 OA
ENDROOT
BRANCH   1   6
ATOM      3  C   UNL     1      85.860  71.550  89.432  0.00  0.00    +0.000 C 
ATOM      4  C   UNL     1      86.048  71.566  87.938  0.00  0.00    +0.000 A 
ATOM      5  C   UNL     1      87.214  71.055  87.323  0.00  0.00    +0.000 A 
ATOM      6  C   UNL     1      87.330  71.137  85.917  0.00  0.00    +0.000 A 
ATOM      7  C   UNL     1      86.298  71.681  85.142  0.00  0.00    +0.000 A 
ATOM      8  C   UNL     1      85.140  72.150  85.753  0.00  0.00    +0.000 A 
ATOM      9  C   UNL     1      85.017  72.093  87.139  0.00  0.00    +0.000 A 
ATOM     10  C   UNL     1      88.335  70.479  88.153  0.00  0.00    +0.000 C 
ENDBRANCH   1   6
BRANCH   1  11
ATOM     11  C   UNL     1      88.503  69.360  84.470  0.00  0.00    +0.000 C 
BRANCH  11  12
ATOM     12  C   UNL     1      88.625  68.159  85.374  0.00  0.00    +0.000 A 
ATOM     13  C   UNL     1      87.484  67.551  85.911  0.00  0.00    +0.000 A 
ATOM     14  C   UNL     1      87.574  66.443  86.744  0.00  0.00    +0.000 A 
ATOM     15  C   UNL     1      88.827  65.929  87.044  0.00  0.00    +0.000 A 
ATOM     16  C   UNL     1      89.982  66.507  86.524  0.00  0.00    +0.000 A 
ATOM     17  C   UNL     1      89.881  67.622  85.689  0.00  0.00    +0.000 A 
ATOM     18  F   UNL     1      88.928  64.861  87.844  0.00  0.00    +0.000 F 
ATOM     19  F   UNL     1      86.270  68.039  85.619  0.00  0.00    +0.000 F 
ENDBRANCH  11  12
ENDBRANCH   1  11
TORSDOF 3
ENDMDL
