MODEL 1
REMARK VINA RESULT:      -4.0      0.000      0.000
REMARK  Name = *****
REMARK  4 active torsions:
REMARK  status: ('A' for Active; 'I' for Inactive)
REMARK    1  A    between atoms: C_4  and  S_7
REMARK    2  A    between atoms: S_7  and  C_8
REMARK    3  A    between atoms: C_8  and  C_10
REMARK    4  A    between atoms: C_10  and  C_11
REMARK                            x       y       z     vdW  Elec       q    Type
REMARK                         _______ _______ _______ _____ _____    ______ ____
ROOT
ATOM      1  C   UNL     1      89.691  67.836  86.040  0.00  0.00    +0.000 C 
ATOM      2  O   UNL     1      90.710  67.309  86.475  0.00  0.00    +0.000 OA
ENDROOT
BRANCH   1   3
ATOM      3  S   UNL     1      89.674  69.519  85.515  0.00  0.00    +0.000 S 
BRANCH   3   7
ATOM      4  C   UNL     1      86.835  71.288  88.651  0.00  0.00    +0.000 A 
ATOM      5  C   UNL     1      86.456  71.276  87.311  0.00  0.00    +0.000 A 
ATOM      6  C   UNL     1      87.313  70.741  86.346  0.00  0.00    +0.000 A 
ATOM      7  C   UNL     1      88.559  70.225  86.715  0.00  0.00    +0.000 A 
ATOM      8  C   UNL     1      88.927  70.229  88.065  0.00  0.00    +0.000 A 
ATOM      9  C   UNL     1      88.069  70.762  89.030  0.00  0.00    +0.000 A 
ENDBRANCH   3   7
ENDBRANCH   1   3
BRANCH   1  10
ATOM     10  C   UNL     1      88.384  67.094  85.862  0.00  0.00    +0.000 C 
BRANCH  10  11
ATOM     11  C   UNL     1      87.840  66.532  87.153  0.00  0.00    +0.000 A 
ATOM     12  C   UNL     1      88.339  65.323  87.668  0.00  0.00    +0.000 A 
ATOM     13  C   UNL     1      87.836  64.803  88.862  0.00  0.00    +0.000 A 
ATOM     14  C   UNL     1      86.842  65.491  89.544  0.00  0.00    +0.000 A 
ATOM     15  C   UNL     1      86.339  66.691  89.055  0.00  0.00    +0.000 A 
ATOM     16  C   UNL     1      86.837  67.212  87.860  0.00  0.00    +0.000 A 
ATOM     17  F   UNL     1      86.360  64.993  90.691  0.00  0.00    +0.000 F 
ENDBRANCH  10  11
ENDBRANCH   1  10
TORSDOF 4
ENDMDL
