MODEL 1
REMARK VINA RESULT:      -4.8      0.000      0.000
REMARK  Name = *****
REMARK  2 active torsions:
REMARK  status: ('A' for Active; 'I' for Inactive)
REMARK    1  A    between atoms: C_1  and  C_2
REMARK    2  A    between atoms: C_10  and  C_13
REMARK                            x       y       z     vdW  Elec       q    Type
REMARK                         _______ _______ _______ _____ _____    ______ ____
ROOT
ATOM      1  C   UNL     1      88.987  64.378  85.815  0.00  0.00    +0.000 C 
ATOM      2  C   UNL     1      89.223  65.434  86.900  0.00  0.00    +0.000 C 
ATOM      3  C   UNL     1      87.903  65.893  87.536  0.00  0.00    +0.000 C 
ATOM      4  C   UNL     1      87.084  66.801  86.618  0.00  0.00    +0.000 C 
ATOM      5  C   UNL     1      87.887  68.010  86.113  0.00  0.00    +0.000 C 
ATOM      6  C   UNL     1      89.185  67.532  85.441  0.00  0.00    +0.000 C 
ATOM      7  C   UNL     1      90.014  66.633  86.358  0.00  0.00    +0.000 C 
ATOM      8  O   UNL     1      87.032  68.695  85.180  0.00  0.00    +0.000 OA
ATOM      9  O   UNL     1      87.719  69.918  84.740  0.00  0.00    +0.000 OA
ATOM     10  C   UNL     1      87.935  70.743  85.900  0.00  0.00    +0.000 C 
ATOM     11  O   UNL     1      88.820  70.063  86.808  0.00  0.00    +0.000 OA
ATOM     12  O   UNL     1      88.146  68.837  87.263  0.00  0.00    +0.000 OA
ENDROOT
BRANCH  10  13
ATOM     13  C   UNL     1      86.661  71.283  86.537  0.00  0.00    +0.000 A 
ATOM     14  C   UNL     1      86.524  71.346  87.934  0.00  0.00    +0.000 A 
ATOM     15  C   UNL     1      85.374  71.882  88.516  0.00  0.00    +0.000 A 
ATOM     16  C   UNL     1      84.350  72.377  87.712  0.00  0.00    +0.000 A 
ATOM     17  C   UNL     1      84.476  72.339  86.325  0.00  0.00    +0.000 A 
ATOM     18  C   UNL     1      85.625  71.801  85.742  0.00  0.00    +0.000 A 
ENDBRANCH  10  13
TORSDOF 1
ENDMDL
