MODEL 1
REMARK VINA RESULT:      -3.9      0.000      0.000
REMARK  Name = *****
REMARK  3 active torsions:
REMARK  status: ('A' for Active; 'I' for Inactive)
REMARK    1  A    between atoms: C_1  and  C_2
REMARK    2  A    between atoms: C_2  and  C_7
REMARK    3  A    between atoms: C_8  and  C_9
REMARK                            x       y       z     vdW  Elec       q    Type
REMARK                         _______ _______ _______ _____ _____    ______ ____
ROOT
ATOM      1  C   UNL     1     102.073 125.932  82.335  0.00  0.00    +0.000 C 
ATOM      2  C   UNL     1     102.990 126.219  81.392  0.00  0.00    +0.000 C 
ENDROOT
BRANCH   1   4
ATOM      3  C   UNL     1     101.836 128.346  83.223  0.00  0.00    +0.000 C 
ATOM      4  C   UNL     1     101.320 126.903  83.216  0.00  0.00    +0.000 C 
ATOM      5  S   UNL     1     101.392 126.265  84.940  0.00  0.00    +0.000 S 
ATOM      6  C   UNL     1      99.639 125.838  85.104  0.00  0.00    +0.000 C 
ATOM      7  C   UNL     1      98.832 126.837  84.303  0.00  0.00    +0.000 C 
ATOM      8  S   UNL     1      99.571 126.918  82.656  0.00  0.00    +0.000 S 
ENDBRANCH   1   4
BRANCH   2   9
ATOM      9  C   UNL     1     103.689 125.169  80.561  0.00  0.00    +0.000 C 
ATOM     10  C   UNL     1     104.106 123.981  81.442  0.00  0.00    +0.000 C 
ATOM     11  C   UNL     1     104.874 122.931  80.641  0.00  0.00    +0.000 C 
ATOM     12  C   UNL     1     106.077 123.539  79.926  0.00  0.00    +0.000 C 
ATOM     13  C   UNL     1     105.675 124.723  79.053  0.00  0.00    +0.000 C 
ATOM     14  C   UNL     1     104.908 125.776  79.851  0.00  0.00    +0.000 C 
ENDBRANCH   2   9
TORSDOF 2
ENDMDL
