MODEL 1
REMARK VINA RESULT:      -4.5      0.000      0.000
REMARK  Name = *****
REMARK  3 active torsions:
REMARK  status: ('A' for Active; 'I' for Inactive)
REMARK    1  A    between atoms: C_6  and  C_7
REMARK    2  A    between atoms: N_9  and  C_10
REMARK    3  A    between atoms: N_9  and  O_17
REMARK                            x       y       z     vdW  Elec       q    Type
REMARK                         _______ _______ _______ _____ _____    ______ ____
ROOT
ATOM      1  C   UNL     1     102.322 127.457  82.935  0.00  0.00    +0.000 C 
ATOM      2  O   UNL     1     103.061 128.422  83.114  0.00  0.00    +0.000 OA
ATOM      3  N   UNL     1     100.963 127.394  83.232  0.00  0.00    +0.000 N 
ENDROOT
BRANCH   1   9
ATOM      4  C   UNL     1     103.173 126.271  80.926  0.00  0.00    +0.000 A 
ATOM      5  C   UNL     1     103.794 125.182  80.309  0.00  0.00    +0.000 A 
ATOM      6  C   UNL     1     104.210 124.096  81.078  0.00  0.00    +0.000 A 
ATOM      7  C   UNL     1     104.019 124.091  82.459  0.00  0.00    +0.000 A 
ATOM      8  C   UNL     1     103.399 125.180  83.079  0.00  0.00    +0.000 A 
ATOM      9  C   UNL     1     102.954 126.263  82.310  0.00  0.00    +0.000 A 
ATOM     10 CL   UNL     1     104.974 122.756  80.318  0.00  0.00    +0.000 Cl
ENDBRANCH   1   9
BRANCH   3  11
ATOM     11  C   UNL     1     100.185 128.339  83.961  0.00  0.00    +0.000 A 
ATOM     12  C   UNL     1      99.892 129.617  83.467  0.00  0.00    +0.000 A 
ATOM     13  C   UNL     1      99.120 130.523  84.208  0.00  0.00    +0.000 A 
ATOM     14  C   UNL     1      98.634 130.162  85.459  0.00  0.00    +0.000 A 
ATOM     15  C   UNL     1      98.914 128.903  85.977  0.00  0.00    +0.000 A 
ATOM     16  C   UNL     1      99.684 128.001  85.233  0.00  0.00    +0.000 A 
ATOM     17 CL   UNL     1      97.687 131.273  86.367  0.00  0.00    +0.000 Cl
ENDBRANCH   3  11
BRANCH   3  18
ATOM     18  O   UNL     1     100.249 126.256  82.787  0.00  0.00    +0.000 OA
ATOM     19  H   UNL     1      99.303 126.465  82.740  0.00  0.00    +0.000 HD
ENDBRANCH   3  18
TORSDOF 3
ENDMDL
