REMARK  Name = *****
REMARK  4 active torsions:
REMARK  status: ('A' for Active; 'I' for Inactive)
REMARK    1  A    between atoms: C_1  and  C_2
REMARK    2  A    between atoms: C_3  and  C_15
REMARK    3  A    between atoms: C_5  and  N_8
REMARK    4  A    between atoms: C_9  and  C_10
REMARK                            x       y       z     vdW  Elec       q    Type
REMARK                         _______ _______ _______ _____ _____    ______ ____
ROOT
ATOM      1  C   UNL     1       1.830   1.484  -0.111  0.00  0.00    +0.000 C 
ATOM      2  C   UNL     1       0.526   0.753   0.063  0.00  0.00    +0.000 A 
ATOM      3  C   UNL     1       0.454  -0.652  -0.023  0.00  0.00    +0.000 A 
ATOM      4  C   UNL     1      -0.788  -1.287   0.152  0.00  0.00    +0.000 A 
ATOM      5  C   UNL     1      -1.947  -0.551   0.409  0.00  0.00    +0.000 A 
ATOM      6  C   UNL     1      -1.862   0.836   0.520  0.00  0.00    +0.000 A 
ATOM      7  C   UNL     1      -0.638   1.484   0.344  0.00  0.00    +0.000 A 
ATOM      8  C   UNL     1       1.673  -1.487  -0.301  0.00  0.00    +0.000 C 
ENDROOT
BRANCH   5   9
ATOM      9  N   UNL     1      -3.172  -1.206   0.590  0.00  0.00    +0.000 NA
ATOM     10  C   UNL     1      -3.918  -1.301  -0.467  0.00  0.00    +0.000 C 
BRANCH  10  11
ATOM     11  C   UNL     1      -5.202  -1.953  -0.402  0.00  0.00    +0.000 A 
ATOM     12  C   UNL     1      -5.817  -2.553   0.678  0.00  0.00    +0.000 A 
ATOM     13  C   UNL     1      -7.093  -3.092   0.343  0.00  0.00    +0.000 A 
ATOM     14  C   UNL     1      -7.407  -2.883  -0.982  0.00  0.00    +0.000 A 
ATOM     15  S   UNL     1      -6.167  -2.045  -1.811  0.00  0.00    +0.000 S 
ENDBRANCH  10  11
ENDBRANCH   5   9
TORSDOF 2
