MODEL 1
REMARK VINA RESULT:      -5.0      0.000      0.000
REMARK  Name = *****
REMARK  3 active torsions:
REMARK  status: ('A' for Active; 'I' for Inactive)
REMARK    1  A    between atoms: C_1  and  C_2
REMARK    2  A    between atoms: C_3  and  C_12
REMARK    3  A    between atoms: N_13  and  C_14
REMARK                            x       y       z     vdW  Elec       q    Type
REMARK                         _______ _______ _______ _____ _____    ______ ____
ROOT
ATOM      1  C   UNL     1     103.948 123.845  83.978  0.00  0.00    +0.000 C 
ATOM      2  C   UNL     1     104.338 124.052  82.541  0.00  0.00    +0.000 A 
ATOM      3  C   UNL     1     103.824 125.092  81.739  0.00  0.00    +0.000 A 
ATOM      4  C   UNL     1     104.245 125.218  80.408  0.00  0.00    +0.000 A 
ATOM      5  C   UNL     1     105.161 124.328  79.863  0.00  0.00    +0.000 A 
ATOM      6  C   UNL     1     105.668 123.300  80.638  0.00  0.00    +0.000 A 
ATOM      7  C   UNL     1     105.261 123.165  81.960  0.00  0.00    +0.000 A 
ATOM      8  F   UNL     1     105.769 122.161  82.690  0.00  0.00    +0.000 F 
ATOM      9  F   UNL     1     106.550 122.436  80.116  0.00  0.00    +0.000 F 
ATOM     10  F   UNL     1     105.550 124.463  78.588  0.00  0.00    +0.000 F 
ATOM     11  F   UNL     1     103.766 126.204  79.634  0.00  0.00    +0.000 F 
ENDROOT
BRANCH   3  12
ATOM     12  C   UNL     1     102.842 126.101  82.198  0.00  0.00    +0.000 C 
ATOM     13  N   UNL     1     101.561 125.926  82.115  0.00  0.00    +0.000 NA
BRANCH  13  14
ATOM     14  C   UNL     1     100.765 126.978  82.590  0.00  0.00    +0.000 A 
ATOM     15  C   UNL     1      99.375 126.942  82.444  0.00  0.00    +0.000 A 
ATOM     16  C   UNL     1      98.588 127.986  82.933  0.00  0.00    +0.000 A 
ATOM     17  C   UNL     1      99.186 129.067  83.579  0.00  0.00    +0.000 A 
ATOM     18  C   UNL     1     100.570 129.100  83.744  0.00  0.00    +0.000 A 
ATOM     19  C   UNL     1     101.355 128.055  83.254  0.00  0.00    +0.000 A 
ENDBRANCH  13  14
ENDBRANCH   3  12
TORSDOF 2
ENDMDL
