MODEL 1
REMARK VINA RESULT:      -4.9      0.000      0.000
REMARK  Name = *****
REMARK  2 active torsions:
REMARK  status: ('A' for Active; 'I' for Inactive)
REMARK    1  A    between atoms: C_1  and  C_2
REMARK    2  A    between atoms: C_5  and  C_8
REMARK                            x       y       z     vdW  Elec       q    Type
REMARK                         _______ _______ _______ _____ _____    ______ ____
ROOT
ATOM      1  C   UNL     1     101.988 126.436  83.365  0.00  0.00    +0.000 C 
ATOM      2  N   UNL     1     101.593 127.612  83.024  0.00  0.00    +0.000 NA
ATOM      3  C   UNL     1     100.913 128.427  84.031  0.00  0.00    +0.000 C 
ATOM      4  C   UNL     1      99.776 129.255  83.372  0.00  0.00    +0.000 C 
ATOM      5  C   UNL     1      98.603 128.272  83.425  0.00  0.00    +0.000 C 
ATOM      6  C   UNL     1      98.694 128.094  84.947  0.00  0.00    +0.000 C 
ATOM      7  C   UNL     1     100.160 127.624  85.121  0.00  0.00    +0.000 C 
ATOM      8  C   UNL     1     100.327 126.132  84.944  0.00  0.00    +0.000 C 
ATOM      9  O   UNL     1     101.651 125.820  84.521  0.00  0.00    +0.000 OA
ATOM     10  C   UNL     1      98.630 129.554  85.345  0.00  0.00    +0.000 C 
ATOM     11  C   UNL     1      99.277 130.252  84.399  0.00  0.00    +0.000 C 
ENDROOT
BRANCH   1  16
ATOM     12  C   UNL     1     105.442 123.056  80.160  0.00  0.00    +0.000 C 
ATOM     13  C   UNL     1     104.526 123.923  80.973  0.00  0.00    +0.000 A 
ATOM     14  C   UNL     1     103.823 124.975  80.376  0.00  0.00    +0.000 A 
ATOM     15  C   UNL     1     102.991 125.798  81.141  0.00  0.00    +0.000 A 
ATOM     16  C   UNL     1     102.859 125.585  82.518  0.00  0.00    +0.000 A 
ATOM     17  C   UNL     1     103.573 124.541  83.120  0.00  0.00    +0.000 A 
ATOM     18  C   UNL     1     104.404 123.718  82.353  0.00  0.00    +0.000 A 
ENDBRANCH   1  16
TORSDOF 1
ENDMDL
