REMARK  Name = *****
REMARK  4 active torsions:
REMARK  status: ('A' for Active; 'I' for Inactive)
REMARK    1  A    between atoms: C_5  and  C_7
REMARK    2  A    between atoms: C_7  and  O_9
REMARK    3  A    between atoms: O_9  and  C_10
REMARK    4  A    between atoms: C_10  and  C_11
REMARK                            x       y       z     vdW  Elec       q    Type
REMARK                         _______ _______ _______ _____ _____    ______ ____
ROOT
ATOM      1  C   UNL     1       0.976  -2.604  -0.234  0.00  0.00    +0.000 C 
ATOM      2  O   UNL     1       0.412  -3.606  -0.647  0.00  0.00    +0.000 OA
ENDROOT
BRANCH   1   7
ATOM      3  C   UNL     1      -1.781  -0.042  -0.107  0.00  0.00    +0.000 A 
ATOM      4  C   UNL     1      -1.070   1.154  -0.016  0.00  0.00    +0.000 A 
ATOM      5  C   UNL     1       0.324   1.134  -0.001  0.00  0.00    +0.000 A 
ATOM      6  C   UNL     1       1.007  -0.081  -0.071  0.00  0.00    +0.000 A 
ATOM      7  C   UNL     1       0.307  -1.287  -0.151  0.00  0.00    +0.000 A 
ATOM      8  C   UNL     1      -1.097  -1.259  -0.178  0.00  0.00    +0.000 A 
ATOM      9  F   UNL     1       2.347  -0.042  -0.080  0.00  0.00    +0.000 F 
ENDBRANCH   1   7
BRANCH   1  10
ATOM     10  O   UNL     1       2.235  -2.543   0.255  0.00  0.00    +0.000 OA
BRANCH  10  11
ATOM     11  C   UNL     1       2.987  -3.760   0.200  0.00  0.00    +0.000 C 
BRANCH  11  12
ATOM     12  C   UNL     1       3.826  -3.776  -1.053  0.00  0.00    +0.000 A 
ATOM     13  C   UNL     1       5.024  -3.049  -1.115  0.00  0.00    +0.000 A 
ATOM     14  C   UNL     1       5.790  -3.047  -2.282  0.00  0.00    +0.000 A 
ATOM     15  C   UNL     1       5.357  -3.763  -3.396  0.00  0.00    +0.000 A 
ATOM     16  C   UNL     1       4.162  -4.478  -3.354  0.00  0.00    +0.000 A 
ATOM     17  C   UNL     1       3.396  -4.481  -2.186  0.00  0.00    +0.000 A 
ATOM     18 CL   UNL     1       6.300  -3.757  -4.835  0.00  0.00    +0.000 Cl
ENDBRANCH  11  12
ENDBRANCH  10  11
ENDBRANCH   1  10
TORSDOF 4
