MODEL 1
REMARK VINA RESULT:      -4.3      0.000      0.000
REMARK  Name = *****
REMARK  3 active torsions:
REMARK  status: ('A' for Active; 'I' for Inactive)
REMARK    1  A    between atoms: C_1  and  C_2
REMARK    2  A    between atoms: C_5  and  S_8
REMARK    3  A    between atoms: S_8  and  C_9
REMARK                            x       y       z     vdW  Elec       q    Type
REMARK                         _______ _______ _______ _____ _____    ______ ____
ROOT
ATOM      1  S   UNL     1     102.563 127.692  82.487  0.00  0.00    +0.000 S 
ENDROOT
BRANCH   1   6
ATOM      2  C   UNL     1     105.001 122.449  80.562  0.00  0.00    +0.000 C 
ATOM      3  C   UNL     1     104.429 123.752  81.036  0.00  0.00    +0.000 A 
ATOM      4  C   UNL     1     104.188 124.792  80.129  0.00  0.00    +0.000 A 
ATOM      5  C   UNL     1     103.626 125.995  80.565  0.00  0.00    +0.000 A 
ATOM      6  C   UNL     1     103.281 126.168  81.908  0.00  0.00    +0.000 A 
ATOM      7  C   UNL     1     103.519 125.132  82.814  0.00  0.00    +0.000 A 
ATOM      8  C   UNL     1     104.080 123.927  82.379  0.00  0.00    +0.000 A 
ENDBRANCH   1   6
BRANCH   1   9
ATOM      9  C   UNL     1     101.106 127.030  83.373  0.00  0.00    +0.000 C 
ATOM     10  C   UNL     1      99.898 126.768  82.419  0.00  0.00    +0.000 C 
ATOM     11  C   UNL     1      98.738 127.502  83.130  0.00  0.00    +0.000 C 
ATOM     12  C   UNL     1      99.106 127.309  84.603  0.00  0.00    +0.000 C 
ATOM     13  C   UNL     1     100.484 127.968  84.446  0.00  0.00    +0.000 C 
ATOM     14  C   UNL     1     100.035 129.269  83.815  0.00  0.00    +0.000 C 
ATOM     15  C   UNL     1      98.993 128.986  83.020  0.00  0.00    +0.000 C 
ENDBRANCH   1   9
TORSDOF 2
ENDMDL
