REMARK  Name = *****
REMARK  4 active torsions:
REMARK  status: ('A' for Active; 'I' for Inactive)
REMARK    1  A    between atoms: C_4  and  C_7
REMARK    2  A    between atoms: C_7  and  C_9
REMARK    3  A    between atoms: C_9  and  S_10
REMARK    4  A    between atoms: S_10  and  C_11
REMARK                            x       y       z     vdW  Elec       q    Type
REMARK                         _______ _______ _______ _____ _____    ______ ____
ROOT
ATOM      1  C   UNL     1      -3.903  -0.562  -0.630  0.00  0.00    +0.000 C 
ENDROOT
BRANCH   1   2
ATOM      2  C   UNL     1      -2.866   0.549  -0.578  0.00  0.00    +0.000 C 
ATOM      3  O   UNL     1      -3.083   1.710  -0.922  0.00  0.00    +0.000 OA
BRANCH   2   7
ATOM      4  C   UNL     1       1.067  -0.328   0.916  0.00  0.00    +0.000 A 
ATOM      5  C   UNL     1       0.033  -1.234   1.143  0.00  0.00    +0.000 A 
ATOM      6  C   UNL     1      -1.254  -0.967   0.667  0.00  0.00    +0.000 A 
ATOM      7  C   UNL     1      -1.510   0.213  -0.044  0.00  0.00    +0.000 A 
ATOM      8  C   UNL     1      -0.464   1.122  -0.260  0.00  0.00    +0.000 A 
ATOM      9  C   UNL     1       0.820   0.851   0.216  0.00  0.00    +0.000 A 
ENDBRANCH   2   7
ENDBRANCH   1   2
BRANCH   1  10
ATOM     10  S   UNL     1      -5.298  -0.144  -1.726  0.00  0.00    +0.000 S 
BRANCH  10  11
ATOM     11  C   UNL     1      -6.369  -1.525  -1.382  0.00  0.00    +0.000 A 
ATOM     12  C   UNL     1      -6.001  -2.831  -1.724  0.00  0.00    +0.000 A 
ATOM     13  C   UNL     1      -6.861  -3.899  -1.451  0.00  0.00    +0.000 A 
ATOM     14  C   UNL     1      -8.091  -3.660  -0.843  0.00  0.00    +0.000 A 
ATOM     15  C   UNL     1      -8.472  -2.361  -0.510  0.00  0.00    +0.000 A 
ATOM     16  C   UNL     1      -7.612  -1.294  -0.784  0.00  0.00    +0.000 A 
ATOM     17 CL   UNL     1      -9.148  -4.974  -0.506  0.00  0.00    +0.000 Cl
ENDBRANCH  10  11
ENDBRANCH   1  10
TORSDOF 4
