MODEL 1
REMARK VINA RESULT:      -4.9      0.000      0.000
REMARK  Name = *****
REMARK  2 active torsions:
REMARK  status: ('A' for Active; 'I' for Inactive)
REMARK    1  A    between atoms: C_5  and  N_7
REMARK    2  A    between atoms: C_8  and  C_10
REMARK                            x       y       z     vdW  Elec       q    Type
REMARK                         _______ _______ _______ _____ _____    ______ ____
ROOT
ATOM      1  N   UNL     1     102.029 126.193  81.883  0.00  0.00    +0.000 N 
ATOM      2  C   UNL     1     102.835 125.282  82.540  0.00  0.00    +0.000 C 
ATOM      3  O   UNL     1     102.781 124.981  83.725  0.00  0.00    +0.000 OA
ATOM      4  H   UNL     1     102.136 126.272  80.908  0.00  0.00    +0.000 HD
ENDROOT
BRANCH   1   9
ATOM      5  C   UNL     1      98.673 127.392  82.840  0.00  0.00    +0.000 A 
ATOM      6  C   UNL     1      98.948 128.485  83.653  0.00  0.00    +0.000 A 
ATOM      7  C   UNL     1     100.270 128.878  83.859  0.00  0.00    +0.000 A 
ATOM      8  C   UNL     1     101.326 128.166  83.275  0.00  0.00    +0.000 A 
ATOM      9  C   UNL     1     101.060 127.024  82.499  0.00  0.00    +0.000 A 
ATOM     10  C   UNL     1      99.720 126.675  82.256  0.00  0.00    +0.000 A 
ATOM     11 CL   UNL     1     102.887 128.908  83.387  0.00  0.00    +0.000 Cl
ENDBRANCH   1   9
BRANCH   2  12
ATOM     12  C   UNL     1     103.824 124.571  81.687  0.00  0.00    +0.000 A 
ATOM     13  C   UNL     1     104.229 125.065  80.444  0.00  0.00    +0.000 A 
ATOM     14  C   UNL     1     105.154 124.343  79.696  0.00  0.00    +0.000 A 
ATOM     15  C   UNL     1     105.676 123.139  80.156  0.00  0.00    +0.000 A 
ATOM     16  C   UNL     1     105.260 122.634  81.386  0.00  0.00    +0.000 A 
ATOM     17  C   UNL     1     104.331 123.346  82.149  0.00  0.00    +0.000 A 
ATOM     18  F   UNL     1     105.543 124.816  78.505  0.00  0.00    +0.000 F 
ENDBRANCH   2  12
TORSDOF 2
ENDMDL
