MODEL 1
REMARK VINA RESULT:      -4.7      0.000      0.000
REMARK  Name = *****
REMARK  2 active torsions:
REMARK  status: ('A' for Active; 'I' for Inactive)
REMARK    1  A    between atoms: C_6  and  C_7
REMARK    2  A    between atoms: N_8  and  C_9
REMARK                            x       y       z     vdW  Elec       q    Type
REMARK                         _______ _______ _______ _____ _____    ______ ____
ROOT
ATOM      1  C   UNL     1     102.837 125.913  82.410  0.00  0.00    +0.000 C 
ATOM      2  N   UNL     1     101.554 125.923  82.227  0.00  0.00    +0.000 NA
ENDROOT
BRANCH   2   3
ATOM      3  C   UNL     1     100.870 127.049  82.699  0.00  0.00    +0.000 A 
ATOM      4  C   UNL     1     101.566 128.106  83.290  0.00  0.00    +0.000 A 
ATOM      5  C   UNL     1     100.870 129.226  83.734  0.00  0.00    +0.000 A 
ATOM      6  C   UNL     1      99.490 129.305  83.583  0.00  0.00    +0.000 A 
ATOM      7  C   UNL     1      98.788 128.268  82.982  0.00  0.00    +0.000 A 
ATOM      8  C   UNL     1      99.482 127.140  82.535  0.00  0.00    +0.000 A 
ATOM      9  F   UNL     1      98.826 130.387  84.013  0.00  0.00    +0.000 F 
ATOM     10  F   UNL     1     101.544 130.232  84.309  0.00  0.00    +0.000 F 
ENDBRANCH   2   3
BRANCH   1  16
ATOM     11  C   UNL     1     104.052 124.720  80.613  0.00  0.00    +0.000 A 
ATOM     12  C   UNL     1     104.850 123.663  80.171  0.00  0.00    +0.000 A 
ATOM     13  C   UNL     1     105.267 122.689  81.074  0.00  0.00    +0.000 A 
ATOM     14  C   UNL     1     104.901 122.751  82.415  0.00  0.00    +0.000 A 
ATOM     15  C   UNL     1     104.103 123.805  82.863  0.00  0.00    +0.000 A 
ATOM     16  C   UNL     1     103.680 124.788  81.960  0.00  0.00    +0.000 A 
ATOM     17  F   UNL     1     106.032 121.679  80.645  0.00  0.00    +0.000 F 
ENDBRANCH   1  16
TORSDOF 2
ENDMDL
