MODEL 1
REMARK VINA RESULT:      -4.4      0.000      0.000
REMARK  Name = *****
REMARK  4 active torsions:
REMARK  status: ('A' for Active; 'I' for Inactive)
REMARK    1  A    between atoms: C_4  and  S_7
REMARK    2  A    between atoms: S_7  and  C_8
REMARK    3  A    between atoms: C_8  and  C_9
REMARK    4  A    between atoms: C_14  and  C_15
REMARK                            x       y       z     vdW  Elec       q    Type
REMARK                         _______ _______ _______ _____ _____    ______ ____
ROOT
ATOM      1  C   UNL     1     102.868 125.453  83.621  0.00  0.00    +0.000 C 
ENDROOT
BRANCH   1   2
ATOM      2  C   UNL     1     103.610 124.748  82.512  0.00  0.00    +0.000 A 
ATOM      3  C   UNL     1     103.596 125.325  81.227  0.00  0.00    +0.000 A 
ATOM      4  C   UNL     1     104.267 124.727  80.159  0.00  0.00    +0.000 A 
ATOM      5  C   UNL     1     104.962 123.539  80.351  0.00  0.00    +0.000 A 
ATOM      6  C   UNL     1     104.980 122.942  81.611  0.00  0.00    +0.000 A 
ATOM      7  C   UNL     1     104.304 123.535  82.690  0.00  0.00    +0.000 A 
BRANCH   7   8
ATOM      8  C   UNL     1     104.352 122.830  83.995  0.00  0.00    +0.000 C 
ATOM      9  O   UNL     1     103.888 121.705  84.147  0.00  0.00    +0.000 OA
ENDBRANCH   7   8
ENDBRANCH   1   2
BRANCH   1  10
ATOM     10  S   UNL     1     102.941 127.264  83.427  0.00  0.00    +0.000 S 
BRANCH  10  14
ATOM     11  C   UNL     1      98.479 128.095  82.809  0.00  0.00    +0.000 A 
ATOM     12  C   UNL     1      99.281 129.056  83.421  0.00  0.00    +0.000 A 
ATOM     13  C   UNL     1     100.643 128.812  83.612  0.00  0.00    +0.000 A 
ATOM     14  C   UNL     1     101.207 127.601  83.199  0.00  0.00    +0.000 A 
ATOM     15  C   UNL     1     100.400 126.647  82.571  0.00  0.00    +0.000 A 
ATOM     16  C   UNL     1      99.038 126.892  82.381  0.00  0.00    +0.000 A 
ENDBRANCH  10  14
ENDBRANCH   1  10
TORSDOF 4
ENDMDL
