MODEL 1
REMARK VINA RESULT:      -5.2      0.000      0.000
REMARK  Name = *****
REMARK  6 active torsions:
REMARK  status: ('A' for Active; 'I' for Inactive)
REMARK    1  A    between atoms: C_1  and  C_2
REMARK    2  A    between atoms: C_2  and  O_4
REMARK    3  A    between atoms: O_4  and  C_5
REMARK    4  A    between atoms: C_7  and  C_12
REMARK    5  A    between atoms: C_9  and  O_11
REMARK    6  A    between atoms: C_13  and  C_14
REMARK                            x       y       z     vdW  Elec       q    Type
REMARK                         _______ _______ _______ _____ _____    ______ ____
ROOT
ATOM      1  C   UNL     1     105.064 122.869  81.942  0.00  0.00    +0.000 A 
ATOM      2  C   UNL     1     104.247 123.936  82.321  0.00  0.00    +0.000 A 
ATOM      3  C   UNL     1     103.909 124.921  81.384  0.00  0.00    +0.000 A 
ATOM      4  C   UNL     1     104.440 124.844  80.088  0.00  0.00    +0.000 A 
ATOM      5  C   UNL     1     105.274 123.782  79.739  0.00  0.00    +0.000 A 
ATOM      6  C   UNL     1     105.596 122.792  80.658  0.00  0.00    +0.000 A 
ENDROOT
BRANCH   5   7
ATOM      7  O   UNL     1     105.805 123.679  78.487  0.00  0.00    +0.000 OA
ATOM      8  H   UNL     1     105.517 124.256  77.807  0.00  0.00    +0.000 HD
ENDBRANCH   5   7
BRANCH   3   9
ATOM      9  C   UNL     1     103.056 126.065  81.738  0.00  0.00    +0.000 C 
ATOM     10  C   UNL     1     101.892 125.935  82.394  0.00  0.00    +0.000 C 
BRANCH  10  11
ATOM     11  C   UNL     1     101.025 127.065  82.762  0.00  0.00    +0.000 A 
ATOM     12  C   UNL     1      99.643 127.056  82.523  0.00  0.00    +0.000 A 
ATOM     13  C   UNL     1      98.849 128.137  82.916  0.00  0.00    +0.000 A 
ATOM     14  C   UNL     1      99.437 129.221  83.557  0.00  0.00    +0.000 A 
ATOM     15  C   UNL     1     100.800 129.243  83.818  0.00  0.00    +0.000 A 
ATOM     16  C   UNL     1     101.593 128.162  83.426  0.00  0.00    +0.000 A 
ATOM     17  F   UNL     1      98.675 130.257  83.934  0.00  0.00    +0.000 F 
ENDBRANCH  10  11
ENDBRANCH   3   9
BRANCH   1  18
ATOM     18  O   UNL     1     105.465 121.883  82.856  0.00  0.00    +0.000 OA
BRANCH  18  20
ATOM     19  C   UNL     1     105.219 119.611  82.306  0.00  0.00    +0.000 C 
ATOM     20  C   UNL     1     104.621 120.787  83.019  0.00  0.00    +0.000 C 
ATOM     21  O   UNL     1     103.557 120.760  83.622  0.00  0.00    +0.000 OA
ENDBRANCH  18  20
ENDBRANCH   1  18
TORSDOF 5
ENDMDL
