MODEL 1
REMARK VINA RESULT:      -4.8      0.000      0.000
REMARK  Name = *****
REMARK  4 active torsions:
REMARK  status: ('A' for Active; 'I' for Inactive)
REMARK    1  A    between atoms: C_4  and  C_7
REMARK    2  A    between atoms: C_7  and  C_8
REMARK    3  A    between atoms: C_8  and  C_9
REMARK    4  A    between atoms: C_8  and  C_11
REMARK                            x       y       z     vdW  Elec       q    Type
REMARK                         _______ _______ _______ _____ _____    ______ ____
ROOT
ATOM      1  C   UNL     1     102.916 126.288  81.477  0.00  0.00    +0.000 C 
ENDROOT
BRANCH   1   2
ATOM      2  C   UNL     1     103.706 124.985  81.486  0.00  0.00    +0.000 A 
ATOM      3  C   UNL     1     103.869 124.276  82.687  0.00  0.00    +0.000 A 
ATOM      4  C   UNL     1     104.597 123.086  82.718  0.00  0.00    +0.000 A 
ATOM      5  C   UNL     1     105.176 122.590  81.552  0.00  0.00    +0.000 A 
ATOM      6  C   UNL     1     105.029 123.285  80.355  0.00  0.00    +0.000 A 
ATOM      7  C   UNL     1     104.301 124.476  80.321  0.00  0.00    +0.000 A 
ENDBRANCH   1   2
BRANCH   1   8
ATOM      8  C   UNL     1     103.692 127.422  80.793  0.00  0.00    +0.000 C 
ATOM      9  F   UNL     1     103.219 127.632  79.533  0.00  0.00    +0.000 F 
ENDBRANCH   1   8
BRANCH   1  10
ATOM     10  C   UNL     1     102.474 126.658  82.907  0.00  0.00    +0.000 C 
BRANCH  10  14
ATOM     11  C   UNL     1      98.674 128.695  83.073  0.00  0.00    +0.000 A 
ATOM     12  C   UNL     1      99.817 129.309  83.583  0.00  0.00    +0.000 A 
ATOM     13  C   UNL     1     101.047 128.654  83.525  0.00  0.00    +0.000 A 
ATOM     14  C   UNL     1     101.145 127.376  82.954  0.00  0.00    +0.000 A 
ATOM     15  C   UNL     1      99.990 126.769  82.444  0.00  0.00    +0.000 A 
ATOM     16  C   UNL     1      98.760 127.426  82.505  0.00  0.00    +0.000 A 
ENDBRANCH  10  14
ENDBRANCH   1  10
TORSDOF 4
ENDMDL
