MODEL 1
REMARK VINA RESULT:      -4.1      0.000      0.000
REMARK  Name = *****
REMARK  5 active torsions:
REMARK  status: ('A' for Active; 'I' for Inactive)
REMARK    1  A    between atoms: C_1  and  O_2
REMARK    2  A    between atoms: O_2  and  C_3
REMARK    3  A    between atoms: C_8  and  S_9
REMARK    4  A    between atoms: S_9  and  C_10
REMARK    5  A    between atoms: C_10  and  C_12
REMARK                            x       y       z     vdW  Elec       q    Type
REMARK                         _______ _______ _______ _____ _____    ______ ____
ROOT
ATOM      1  C   UNL     1      89.280  66.678  86.950  0.00  0.00    +0.000 A 
ATOM      2  C   UNL     1      88.804  65.433  87.377  0.00  0.00    +0.000 A 
ATOM      3  C   UNL     1      87.513  65.308  87.898  0.00  0.00    +0.000 A 
ATOM      4  C   UNL     1      86.688  66.424  88.003  0.00  0.00    +0.000 A 
ATOM      5  C   UNL     1      87.152  67.671  87.587  0.00  0.00    +0.000 A 
ATOM      6  C   UNL     1      88.443  67.808  87.056  0.00  0.00    +0.000 A 
ENDROOT
BRANCH   1   8
ATOM      7  C   UNL     1      91.005  65.983  85.457  0.00  0.00    +0.000 C 
ATOM      8  O   UNL     1      90.543  66.887  86.453  0.00  0.00    +0.000 OA
ENDBRANCH   1   8
BRANCH   6   9
ATOM      9  S   UNL     1      88.964  69.448  86.555  0.00  0.00    +0.000 S 
BRANCH   9  10
ATOM     10  C   UNL     1      88.197  70.405  87.812  0.00  0.00    +0.000 C 
ATOM     11  O   UNL     1      88.686  70.522  88.930  0.00  0.00    +0.000 OA
BRANCH  10  12
ATOM     12  C   UNL     1      86.953  71.090  87.420  0.00  0.00    +0.000 C 
ATOM     13  C   UNL     1      86.050  71.542  88.310  0.00  0.00    +0.000 C 
ATOM     14  C   UNL     1      84.946  72.142  87.604  0.00  0.00    +0.000 C 
ATOM     15  C   UNL     1      85.164  72.057  86.284  0.00  0.00    +0.000 C 
ATOM     16  C   UNL     1      86.478  71.371  86.027  0.00  0.00    +0.000 C 
ENDBRANCH  10  12
ENDBRANCH   9  10
ENDBRANCH   6   9
TORSDOF 4
ENDMDL
