REMARK  Name = *****
REMARK  1 active torsions:
REMARK  status: ('A' for Active; 'I' for Inactive)
REMARK    1  A    between atoms: C_5  and  C_7
REMARK                            x       y       z     vdW  Elec       q    Type
REMARK                         _______ _______ _______ _____ _____    ______ ____
ROOT
ATOM      1  C   UNL     1      -0.417  -2.524   0.020  0.00  0.00    +0.000 A 
ATOM      2  N   UNL     1      -0.269  -3.481   0.922  0.00  0.00    +0.000 NA
ATOM      3  C   UNL     1      -1.110  -4.473   0.486  0.00  0.00    +0.000 A 
ATOM      4  C   UNL     1      -1.426  -5.723   1.034  0.00  0.00    +0.000 A 
ATOM      5  C   UNL     1      -2.350  -6.529   0.351  0.00  0.00    +0.000 A 
ATOM      6  C   UNL     1      -2.937  -6.103  -0.848  0.00  0.00    +0.000 A 
ATOM      7  C   UNL     1      -2.624  -4.860  -1.412  0.00  0.00    +0.000 A 
ATOM      8  C   UNL     1      -1.711  -4.091  -0.700  0.00  0.00    +0.000 A 
ATOM      9  O   UNL     1      -1.250  -2.849  -1.019  0.00  0.00    +0.000 OA
ENDROOT
BRANCH   1  14
ATOM     10  C   UNL     1       2.226   0.091   0.554  0.00  0.00    +0.000 A 
ATOM     11  C   UNL     1       1.651   1.228  -0.003  0.00  0.00    +0.000 A 
ATOM     12  C   UNL     1       0.378   1.153  -0.566  0.00  0.00    +0.000 A 
ATOM     13  C   UNL     1      -0.328  -0.059  -0.580  0.00  0.00    +0.000 A 
ATOM     14  C   UNL     1       0.243  -1.220  -0.032  0.00  0.00    +0.000 A 
ATOM     15  C   UNL     1       1.527  -1.119   0.541  0.00  0.00    +0.000 A 
ATOM     16 CL   UNL     1      -1.926  -0.001  -1.244  0.00  0.00    +0.000 Cl
ENDBRANCH   1  14
TORSDOF 1
