REMARK  Name = *****
REMARK  5 active torsions:
REMARK  status: ('A' for Active; 'I' for Inactive)
REMARK    1  A    between atoms: C_1  and  O_2
REMARK    2  A    between atoms: O_2  and  C_3
REMARK    3  A    between atoms: C_6  and  S_9
REMARK    4  A    between atoms: S_9  and  S_10
REMARK    5  A    between atoms: S_10  and  C_11
REMARK                            x       y       z     vdW  Elec       q    Type
REMARK                         _______ _______ _______ _____ _____    ______ ____
ROOT
ATOM      1  C   UNL     1       2.810  -0.632  -0.883  0.00  0.00    +0.000 A 
ATOM      2  C   UNL     1       2.206  -1.450  -1.838  0.00  0.00    +0.000 A 
ATOM      3  C   UNL     1       2.991  -2.253  -2.675  0.00  0.00    +0.000 A 
ATOM      4  C   UNL     1       4.385  -2.241  -2.567  0.00  0.00    +0.000 A 
ATOM      5  C   UNL     1       4.988  -1.428  -1.605  0.00  0.00    +0.000 A 
ATOM      6  C   UNL     1       4.203  -0.628  -0.771  0.00  0.00    +0.000 A 
ENDROOT
BRANCH   1   8
ATOM      7  C   UNL     1       0.746   0.243  -0.094  0.00  0.00    +0.000 C 
ATOM      8  O   UNL     1       2.165   0.199  -0.010  0.00  0.00    +0.000 OA
ENDBRANCH   1   8
BRANCH   4   9
ATOM      9  S   UNL     1       5.394  -3.251  -3.634  0.00  0.00    +0.000 S 
BRANCH   9  10
ATOM     10  S   UNL     1       5.273  -2.226  -5.415  0.00  0.00    +0.000 S 
BRANCH  10  11
ATOM     11  C   UNL     1       6.459  -0.920  -5.158  0.00  0.00    +0.000 A 
ATOM     12  C   UNL     1       7.829  -1.163  -5.296  0.00  0.00    +0.000 A 
ATOM     13  C   UNL     1       8.749  -0.132  -5.092  0.00  0.00    +0.000 A 
ATOM     14  C   UNL     1       8.304   1.145  -4.752  0.00  0.00    +0.000 A 
ATOM     15  C   UNL     1       6.939   1.394  -4.618  0.00  0.00    +0.000 A 
ATOM     16  C   UNL     1       6.018   0.365  -4.823  0.00  0.00    +0.000 A 
ENDBRANCH  10  11
ENDBRANCH   9  10
ENDBRANCH   4   9
TORSDOF 4
