MODEL 1
REMARK VINA RESULT:      -3.7      0.000      0.000
REMARK  Name = *****
REMARK  2 active torsions:
REMARK  status: ('A' for Active; 'I' for Inactive)
REMARK    1  A    between atoms: N_4  and  C_5
REMARK    2  A    between atoms: C_5  and  C_6
REMARK                            x       y       z     vdW  Elec       q    Type
REMARK                         _______ _______ _______ _____ _____    ______ ____
ROOT
ATOM      1  C   UNL     1     102.987 125.798  81.836  0.00  0.00    +0.000 A 
ATOM      2  C   UNL     1     103.409 124.819  82.749  0.00  0.00    +0.000 A 
ATOM      3  C   UNL     1     104.249 123.783  82.338  0.00  0.00    +0.000 A 
ATOM      4  C   UNL     1     104.681 123.726  81.015  0.00  0.00    +0.000 A 
ATOM      5  C   UNL     1     104.285 124.700  80.100  0.00  0.00    +0.000 A 
ATOM      6  C   UNL     1     103.444 125.736  80.512  0.00  0.00    +0.000 A 
ATOM      7 CL   UNL     1     105.717 122.449  80.508  0.00  0.00    +0.000 Cl
ENDROOT
BRANCH   1   8
ATOM      8  C   UNL     1     102.094 126.931  82.288  0.00  0.00    +0.000 C 
BRANCH   8  12
ATOM      9  C   UNL     1      98.491 128.137  84.490  0.00  0.00    +0.000 C 
ATOM     10  S   UNL     1      99.984 128.789  83.684  0.00  0.00    +0.000 S 
ATOM     11  C   UNL     1      99.873 127.279  82.895  0.00  0.00    +0.000 C 
ATOM     12  N   UNL     1     100.698 126.505  82.312  0.00  0.00    +0.000 NA
ATOM     13  S   UNL     1      98.182 127.075  83.053  0.00  0.00    +0.000 S 
ENDBRANCH   8  12
ENDBRANCH   1   8
TORSDOF 2
ENDMDL
