REMARK  Name = *****
REMARK  3 active torsions:
REMARK  status: ('A' for Active; 'I' for Inactive)
REMARK    1  A    between atoms: C_6  and  C_7
REMARK    2  A    between atoms: C_7  and  N_8
REMARK    3  A    between atoms: N_8  and  C_9
REMARK                            x       y       z     vdW  Elec       q    Type
REMARK                         _______ _______ _______ _____ _____    ______ ____
ROOT
ATOM      1  N   UNL     1       4.494   1.237   0.006  0.00  0.00    +0.000 N 
ATOM      2  O   UNL     1       5.768   1.209  -0.013  0.00  0.00    +0.000 OA
ENDROOT
BRANCH   1   3
ATOM      3  C   UNL     1       3.830   2.511   0.208  0.00  0.00    +0.000 A 
ATOM      4  C   UNL     1       4.086   3.221   1.387  0.00  0.00    +0.000 A 
ATOM      5  C   UNL     1       3.474   4.458   1.590  0.00  0.00    +0.000 A 
ATOM      6  C   UNL     1       2.628   4.982   0.610  0.00  0.00    +0.000 A 
ATOM      7  C   UNL     1       2.395   4.285  -0.577  0.00  0.00    +0.000 A 
ATOM      8  C   UNL     1       3.006   3.047  -0.788  0.00  0.00    +0.000 A 
ATOM      9 CL   UNL     1       1.872   6.506   0.865  0.00  0.00    +0.000 Cl
ENDBRANCH   1   3
BRANCH   1  10
ATOM     10  C   UNL     1       3.825   0.122  -0.173  0.00  0.00    +0.000 C 
BRANCH  10  16
ATOM     11  C   UNL     1       1.587   0.438   0.914  0.00  0.00    +0.000 A 
ATOM     12  C   UNL     1       0.211   0.198   0.917  0.00  0.00    +0.000 A 
ATOM     13  C   UNL     1      -0.366  -0.556  -0.104  0.00  0.00    +0.000 A 
ATOM     14  C   UNL     1       0.423  -1.083  -1.126  0.00  0.00    +0.000 A 
ATOM     15  C   UNL     1       1.799  -0.843  -1.133  0.00  0.00    +0.000 A 
ATOM     16  C   UNL     1       2.373  -0.062  -0.126  0.00  0.00    +0.000 A 
ATOM     17 CL   UNL     1      -2.060  -0.852  -0.096  0.00  0.00    +0.000 Cl
ENDBRANCH  10  16
ENDBRANCH   1  10
TORSDOF 3
