MODEL 1
REMARK VINA RESULT:      -4.6      0.000      0.000
REMARK  Name = *****
REMARK  2 active torsions:
REMARK  status: ('A' for Active; 'I' for Inactive)
REMARK    1  A    between atoms: C_3  and  C_8
REMARK    2  A    between atoms: C_9  and  C_10
REMARK                            x       y       z     vdW  Elec       q    Type
REMARK                         _______ _______ _______ _____ _____    ______ ____
ROOT
ATOM      1  C   UNL     1     102.072 126.117  82.269  0.00  0.00    +0.000 C 
ATOM      2  C   UNL     1     102.949 125.592  81.637  0.00  0.00    +0.000 C 
ENDROOT
BRANCH   1   5
ATOM      3  C   UNL     1      98.561 127.451  83.021  0.00  0.00    +0.000 C 
ATOM      4  C   UNL     1      99.680 126.741  82.262  0.00  0.00    +0.000 C 
ATOM      5  C   UNL     1     100.999 126.759  83.048  0.00  0.00    +0.000 C 
ATOM      6  C   UNL     1     101.393 128.195  83.423  0.00  0.00    +0.000 C 
ATOM      7  C   UNL     1     100.267 128.887  84.183  0.00  0.00    +0.000 C 
ATOM      8  C   UNL     1      98.956 128.875  83.405  0.00  0.00    +0.000 C 
ATOM      9 BR   UNL     1     100.778 130.737  84.553  0.00  0.00    +0.000 Br
ENDBRANCH   1   5
BRANCH   2  10
ATOM     10  C   UNL     1     103.994 124.965  80.887  0.00  0.00    +0.000 A 
ATOM     11  C   UNL     1     104.698 125.693  79.926  0.00  0.00    +0.000 A 
ATOM     12  C   UNL     1     105.717 125.080  79.194  0.00  0.00    +0.000 A 
ATOM     13  C   UNL     1     106.033 123.742  79.423  0.00  0.00    +0.000 A 
ATOM     14  C   UNL     1     105.331 123.013  80.384  0.00  0.00    +0.000 A 
ATOM     15  C   UNL     1     104.311 123.625  81.116  0.00  0.00    +0.000 A 
ENDBRANCH   2  10
TORSDOF 2
ENDMDL
