REMARK  Name = *****
REMARK  2 active torsions:
REMARK  status: ('A' for Active; 'I' for Inactive)
REMARK    1  A    between atoms: C_2  and  C_3
REMARK    2  A    between atoms: C_2  and  P_9
REMARK                            x       y       z     vdW  Elec       q    Type
REMARK                         _______ _______ _______ _____ _____    ______ ____
ROOT
ATOM      1  P   UNL     1       3.185  -0.224  -2.417  0.00  0.00    +0.000 P 
ATOM      2  O   UNL     1       2.607   1.140  -3.126  0.00  0.00    +0.000 OA
ATOM      3  C   UNL     1       3.605   2.074  -3.203  0.00  0.00    +0.000 A 
ATOM      4  C   UNL     1       3.487   3.338  -3.739  0.00  0.00    +0.000 A 
ATOM      5  C   UNL     1       4.620   4.157  -3.721  0.00  0.00    +0.000 A 
ATOM      6  C   UNL     1       5.832   3.697  -3.171  0.00  0.00    +0.000 A 
ATOM      7  C   UNL     1       5.929   2.411  -2.631  0.00  0.00    +0.000 A 
ATOM      8  C   UNL     1       4.801   1.620  -2.661  0.00  0.00    +0.000 A 
ATOM      9  O   UNL     1       4.706   0.343  -2.177  0.00  0.00    +0.000 OA
ENDROOT
BRANCH   1  11
ATOM     10  C   UNL     1       1.230   0.367  -0.553  0.00  0.00    +0.000 C 
ATOM     11  C   UNL     1       2.499  -0.022  -0.743  0.00  0.00    +0.000 C 
BRANCH  11  12
ATOM     12  C   UNL     1       3.338  -0.349   0.420  0.00  0.00    +0.000 A 
ATOM     13  C   UNL     1       3.490  -1.677   0.838  0.00  0.00    +0.000 A 
ATOM     14  C   UNL     1       4.273  -1.980   1.954  0.00  0.00    +0.000 A 
ATOM     15  C   UNL     1       4.906  -0.958   2.661  0.00  0.00    +0.000 A 
ATOM     16  C   UNL     1       4.755   0.368   2.256  0.00  0.00    +0.000 A 
ATOM     17  C   UNL     1       3.971   0.673   1.141  0.00  0.00    +0.000 A 
ENDBRANCH  11  12
ENDBRANCH   1  11
TORSDOF 2
