MODEL 1
REMARK VINA RESULT:      -4.1      0.000      0.000
REMARK  Name = *****
REMARK  3 active torsions:
REMARK  status: ('A' for Active; 'I' for Inactive)
REMARK    1  A    between atoms: C_4  and  S_6
REMARK    2  A    between atoms: S_6  and  C_7
REMARK    3  A    between atoms: C_8  and  C_9
REMARK                            x       y       z     vdW  Elec       q    Type
REMARK                         _______ _______ _______ _____ _____    ______ ____
ROOT
ATOM      1  C   UNL     1     103.402 126.264  82.913  0.00  0.00    +0.000 C 
ATOM      2  C   UNL     1     102.137 126.028  82.536  0.00  0.00    +0.000 C 
ENDROOT
BRANCH   2   3
ATOM      3  C   UNL     1     101.028 126.958  82.780  0.00  0.00    +0.000 A 
ATOM      4  C   UNL     1     101.297 128.187  83.396  0.00  0.00    +0.000 A 
ATOM      5  C   UNL     1     100.272 129.108  83.622  0.00  0.00    +0.000 A 
ATOM      6  C   UNL     1      98.969 128.814  83.223  0.00  0.00    +0.000 A 
ATOM      7  C   UNL     1      98.693 127.603  82.593  0.00  0.00    +0.000 A 
ATOM      8  C   UNL     1      99.718 126.681  82.368  0.00  0.00    +0.000 A 
ENDBRANCH   2   3
BRANCH   1   9
ATOM      9  S   UNL     1     104.659 125.122  82.575  0.00  0.00    +0.000 S 
BRANCH   9  13
ATOM     10  C   UNL     1     105.891 124.851  79.484  0.00  0.00    +0.000 C 
ATOM     11  C   UNL     1     106.071 123.443  80.053  0.00  0.00    +0.000 C 
ATOM     12  C   UNL     1     104.731 123.067  80.680  0.00  0.00    +0.000 C 
ATOM     13  C   UNL     1     104.050 124.395  81.007  0.00  0.00    +0.000 C 
ATOM     14  C   UNL     1     104.459 125.263  79.818  0.00  0.00    +0.000 C 
ENDBRANCH   9  13
ENDBRANCH   1   9
TORSDOF 3
ENDMDL
