MODEL 1
REMARK VINA RESULT:      -4.2      0.000      0.000
REMARK  Name = *****
REMARK  3 active torsions:
REMARK  status: ('A' for Active; 'I' for Inactive)
REMARK    1  A    between atoms: C_4  and  C_7
REMARK    2  A    between atoms: C_7  and  S_8
REMARK    3  A    between atoms: S_8  and  C_9
REMARK                            x       y       z     vdW  Elec       q    Type
REMARK                         _______ _______ _______ _____ _____    ______ ____
ROOT
ATOM      1  S   UNL     1     102.977 125.596  83.912  0.00  0.00    +0.000 S 
ENDROOT
BRANCH   1   2
ATOM      2  C   UNL     1     103.721 124.796  82.493  0.00  0.00    +0.000 A 
ATOM      3  C   UNL     1     103.709 125.504  81.282  0.00  0.00    +0.000 A 
ATOM      4  C   UNL     1     104.270 124.954  80.127  0.00  0.00    +0.000 A 
ATOM      5  C   UNL     1     104.855 123.691  80.170  0.00  0.00    +0.000 A 
ATOM      6  C   UNL     1     104.884 122.979  81.370  0.00  0.00    +0.000 A 
ATOM      7  C   UNL     1     104.324 123.528  82.530  0.00  0.00    +0.000 A 
ATOM      8 CL   UNL     1     104.420 122.584  83.976  0.00  0.00    +0.000 Cl
ENDBRANCH   1   2
BRANCH   1   9
ATOM      9  C   UNL     1     102.679 127.241  83.185  0.00  0.00    +0.000 C 
BRANCH   9  13
ATOM     10  C   UNL     1      98.466 128.108  82.867  0.00  0.00    +0.000 A 
ATOM     11  C   UNL     1      98.960 126.881  82.428  0.00  0.00    +0.000 A 
ATOM     12  C   UNL     1     100.323 126.598  82.530  0.00  0.00    +0.000 A 
ATOM     13  C   UNL     1     101.205 127.539  83.080  0.00  0.00    +0.000 A 
ATOM     14  C   UNL     1     100.698 128.774  83.510  0.00  0.00    +0.000 A 
ATOM     15  C   UNL     1      99.335 129.055  83.406  0.00  0.00    +0.000 A 
ENDBRANCH   9  13
ENDBRANCH   1   9
TORSDOF 3
ENDMDL
