MODEL 1
REMARK VINA RESULT:      -4.5      0.000      0.000
REMARK  Name = *****
REMARK  6 active torsions:
REMARK  status: ('A' for Active; 'I' for Inactive)
REMARK    1  A    between atoms: C_1  and  C_2
REMARK    2  A    between atoms: C_3  and  C_10
REMARK    3  A    between atoms: C_4  and  C_8
REMARK    4  A    between atoms: C_4  and  C_9
REMARK    5  A    between atoms: C_10  and  S_12
REMARK    6  A    between atoms: S_12  and  C_13
REMARK                            x       y       z     vdW  Elec       q    Type
REMARK                         _______ _______ _______ _____ _____    ______ ____
ROOT
ATOM      1  C   UNL     1      85.508  71.779  88.943  0.00  0.00    +0.000 C 
ATOM      2  C   UNL     1      85.675  71.688  87.446  0.00  0.00    +0.000 C 
ATOM      3  C   UNL     1      86.674  71.028  86.810  0.00  0.00    +0.000 C 
ATOM      4  C   UNL     1      86.882  71.049  85.291  0.00  0.00    +0.000 C 
ATOM      5  C   UNL     1      85.995  72.141  84.630  0.00  0.00    +0.000 C 
ATOM      6  C   UNL     1      84.581  72.155  85.190  0.00  0.00    +0.000 C 
ATOM      7  C   UNL     1      84.605  72.442  86.688  0.00  0.00    +0.000 C 
ATOM      8  C   UNL     1      88.342  71.370  84.904  0.00  0.00    +0.000 C 
ATOM      9  C   UNL     1      86.517  69.672  84.696  0.00  0.00    +0.000 C 
ENDROOT
BRANCH   3  10
ATOM     10  C   UNL     1      87.662  70.240  87.614  0.00  0.00    +0.000 C 
ATOM     11  O   UNL     1      88.740  70.704  87.958  0.00  0.00    +0.000 OA
BRANCH  10  12
ATOM     12  S   UNL     1      87.147  68.591  87.932  0.00  0.00    +0.000 S 
BRANCH  12  13
ATOM     13  C   UNL     1      88.333  67.544  87.107  0.00  0.00    +0.000 A 
ATOM     14  C   UNL     1      89.436  68.007  86.383  0.00  0.00    +0.000 A 
ATOM     15  C   UNL     1      90.344  67.111  85.809  0.00  0.00    +0.000 A 
ATOM     16  C   UNL     1      90.169  65.740  85.965  0.00  0.00    +0.000 A 
ATOM     17  C   UNL     1      89.083  65.262  86.691  0.00  0.00    +0.000 A 
ATOM     18  C   UNL     1      88.173  66.158  87.259  0.00  0.00    +0.000 A 
ENDBRANCH  12  13
ENDBRANCH  10  12
ENDBRANCH   3  10
TORSDOF 3
ENDMDL
