MODEL 1
REMARK VINA RESULT:      -4.2      0.000      0.000
REMARK  Name = *****
REMARK  2 active torsions:
REMARK  status: ('A' for Active; 'I' for Inactive)
REMARK    1  A    between atoms: C_4  and  O_7
REMARK    2  A    between atoms: O_7  and  C_8
REMARK                            x       y       z     vdW  Elec       q    Type
REMARK                         _______ _______ _______ _____ _____    ______ ____
ROOT
ATOM      1  O   UNL     1     102.823 126.621  81.171  0.00  0.00    +0.000 OA
ENDROOT
BRANCH   1   2
ATOM      2  C   UNL     1     102.604 127.499  82.197  0.00  0.00    +0.000 C 
ATOM      3  C   UNL     1     101.432 127.579  82.844  0.00  0.00    +0.000 C 
ATOM      4  C   UNL     1     101.214 128.547  83.980  0.00  0.00    +0.000 C 
ATOM      5  C   UNL     1     100.015 129.464  83.709  0.00  0.00    +0.000 C 
ATOM      6  C   UNL     1      98.831 128.735  83.137  0.00  0.00    +0.000 C 
ATOM      7  C   UNL     1      98.931 127.507  82.604  0.00  0.00    +0.000 C 
ATOM      8  C   UNL     1     100.224 126.742  82.486  0.00  0.00    +0.000 C 
ENDBRANCH   1   2
BRANCH   1  12
ATOM      9  C   UNL     1     104.718 122.847  81.583  0.00  0.00    +0.000 C 
ATOM     10  C   UNL     1     105.158 123.733  80.422  0.00  0.00    +0.000 C 
ATOM     11  C   UNL     1     104.154 124.849  80.154  0.00  0.00    +0.000 C 
ATOM     12  C   UNL     1     103.881 125.683  81.412  0.00  0.00    +0.000 C 
ATOM     13  C   UNL     1     103.432 124.781  82.566  0.00  0.00    +0.000 C 
ATOM     14  C   UNL     1     104.434 123.666  82.840  0.00  0.00    +0.000 C 
ENDBRANCH   1  12
TORSDOF 2
ENDMDL
