MODEL 1
REMARK VINA RESULT:      -4.2      0.000      0.000
REMARK  Name = *****
REMARK  5 active torsions:
REMARK  status: ('A' for Active; 'I' for Inactive)
REMARK    1  A    between atoms: C_1  and  O_2
REMARK    2  A    between atoms: O_2  and  P_3
REMARK    3  A    between atoms: P_3  and  C_5
REMARK    4  A    between atoms: P_3  and  O_11
REMARK    5  A    between atoms: O_11  and  C_12
REMARK                            x       y       z     vdW  Elec       q    Type
REMARK                         _______ _______ _______ _____ _____    ______ ____
ROOT
ATOM      1  P   UNL     1     102.824 125.621  84.060  0.00  0.00    +0.000 P 
ATOM      2  S   UNL     1     103.975 126.706  85.323  0.00  0.00    +0.000 S 
ENDROOT
BRANCH   1   3
ATOM      3  C   UNL     1     103.626 124.781  82.611  0.00  0.00    +0.000 A 
ATOM      4  C   UNL     1     104.256 123.541  82.809  0.00  0.00    +0.000 A 
ATOM      5  C   UNL     1     104.855 122.882  81.737  0.00  0.00    +0.000 A 
ATOM      6  C   UNL     1     104.832 123.453  80.465  0.00  0.00    +0.000 A 
ATOM      7  C   UNL     1     104.209 124.684  80.261  0.00  0.00    +0.000 A 
ATOM      8  C   UNL     1     103.607 125.349  81.330  0.00  0.00    +0.000 A 
ENDBRANCH   1   3
BRANCH   1  10
ATOM      9  C   UNL     1     103.421 124.491  86.372  0.00  0.00    +0.000 C 
ATOM     10  O   UNL     1     103.106 124.210  85.020  0.00  0.00    +0.000 OA
ENDBRANCH   1  10
BRANCH   1  11
ATOM     11  O   UNL     1     102.543 127.033  83.100  0.00  0.00    +0.000 OA
BRANCH  11  12
ATOM     12  C   UNL     1     101.246 127.466  83.049  0.00  0.00    +0.000 A 
ATOM     13  C   UNL     1     100.245 126.679  82.485  0.00  0.00    +0.000 A 
ATOM     14  C   UNL     1      98.939 127.166  82.436  0.00  0.00    +0.000 A 
ATOM     15  C   UNL     1      98.643 128.427  82.958  0.00  0.00    +0.000 A 
ATOM     16  C   UNL     1      99.649 129.199  83.541  0.00  0.00    +0.000 A 
ATOM     17  C   UNL     1     100.956 128.714  83.593  0.00  0.00    +0.000 A 
ENDBRANCH  11  12
ENDBRANCH   1  11
TORSDOF 4
ENDMDL
