MODEL 1
REMARK VINA RESULT:      -4.5      0.000      0.000
REMARK  Name = *****
REMARK  5 active torsions:
REMARK  status: ('A' for Active; 'I' for Inactive)
REMARK    1  A    between atoms: C_1  and  C_2
REMARK    2  A    between atoms: C_4  and  O_8
REMARK    3  A    between atoms: O_8  and  C_9
REMARK    4  A    between atoms: C_9  and  C_11
REMARK    5  A    between atoms: C_11  and  C_12
REMARK                            x       y       z     vdW  Elec       q    Type
REMARK                         _______ _______ _______ _____ _____    ______ ____
ROOT
ATOM      1  C   UNL     1      87.641  69.730  88.437  0.00  0.00    +0.000 C 
ATOM      2  O   UNL     1      86.916  68.743  88.365  0.00  0.00    +0.000 OA
ENDROOT
BRANCH   1   3
ATOM      3  O   UNL     1      89.018  69.770  88.239  0.00  0.00    +0.000 OA
BRANCH   3   7
ATOM      4  C   UNL     1      90.282  71.818  83.927  0.00  0.00    +0.000 C 
ATOM      5  C   UNL     1      90.020  70.614  84.782  0.00  0.00    +0.000 A 
ATOM      6  C   UNL     1      89.669  70.766  86.128  0.00  0.00    +0.000 A 
ATOM      7  C   UNL     1      89.415  69.636  86.907  0.00  0.00    +0.000 A 
ATOM      8  C   UNL     1      89.454  68.356  86.360  0.00  0.00    +0.000 A 
ATOM      9  C   UNL     1      89.785  68.203  85.016  0.00  0.00    +0.000 A 
ATOM     10  C   UNL     1      90.065  69.325  84.231  0.00  0.00    +0.000 A 
ENDBRANCH   3   7
ENDBRANCH   1   3
BRANCH   1  11
ATOM     11  C   UNL     1      87.139  71.120  88.748  0.00  0.00    +0.000 C 
BRANCH  11  12
ATOM     12  C   UNL     1      86.072  71.583  87.791  0.00  0.00    +0.000 A 
ATOM     13  C   UNL     1      86.274  71.511  86.406  0.00  0.00    +0.000 A 
ATOM     14  C   UNL     1      85.289  71.960  85.524  0.00  0.00    +0.000 A 
ATOM     15  C   UNL     1      84.097  72.487  86.018  0.00  0.00    +0.000 A 
ATOM     16  C   UNL     1      83.888  72.567  87.393  0.00  0.00    +0.000 A 
ATOM     17  C   UNL     1      84.871  72.119  88.276  0.00  0.00    +0.000 A 
ENDBRANCH  11  12
ENDBRANCH   1  11
TORSDOF 4
ENDMDL
