MODEL 1
REMARK VINA RESULT:      -4.4      0.000      0.000
REMARK  Name = *****
REMARK  7 active torsions:
REMARK  status: ('A' for Active; 'I' for Inactive)
REMARK    1  A    between atoms: C_1  and  C_2
REMARK    2  A    between atoms: C_5  and  S_8
REMARK    3  A    between atoms: S_8  and  C_9
REMARK    4  A    between atoms: C_9  and  C_10
REMARK    5  A    between atoms: C_10  and  C_18
REMARK    6  A    between atoms: C_14  and  O_16
REMARK    7  A    between atoms: O_16  and  C_17
REMARK                            x       y       z     vdW  Elec       q    Type
REMARK                         _______ _______ _______ _____ _____    ______ ____
ROOT
ATOM      1  C   UNL     1      87.456  69.920  86.187  0.00  0.00    +0.000 C 
ENDROOT
BRANCH   1   2
ATOM      2  C   UNL     1      89.010  69.882  86.321  0.00  0.00    +0.000 C 
ATOM      3  C   UNL     1      89.724  70.932  85.429  0.00  0.00    +0.000 C 
ATOM      4  C   UNL     1      90.133  70.450  84.067  0.00  0.00    +0.000 C 
ATOM      5  C   UNL     1      90.097  69.163  83.691  0.00  0.00    +0.000 C 
ATOM      6  C   UNL     1      89.645  68.045  84.585  0.00  0.00    +0.000 C 
ATOM      7  C   UNL     1      89.598  68.472  86.059  0.00  0.00    +0.000 C 
ATOM      8  C   UNL     1      89.309  70.236  87.802  0.00  0.00    +0.000 C 
BRANCH   6   9
ATOM      9  O   UNL     1      90.586  66.967  84.494  0.00  0.00    +0.000 OA
ATOM     10  C   UNL     1      90.641  66.176  85.674  0.00  0.00    +0.000 C 
ENDBRANCH   6   9
ENDBRANCH   1   2
BRANCH   1  11
ATOM     11  S   UNL     1      86.684  71.337  85.330  0.00  0.00    +0.000 S 
BRANCH  11  16
ATOM     12  C   UNL     1      82.760  73.009  89.679  0.00  0.00    +0.000 C 
ATOM     13  C   UNL     1      83.737  72.626  88.609  0.00  0.00    +0.000 A 
ATOM     14  C   UNL     1      83.434  72.847  87.260  0.00  0.00    +0.000 A 
ATOM     15  C   UNL     1      84.330  72.458  86.260  0.00  0.00    +0.000 A 
ATOM     16  C   UNL     1      85.536  71.841  86.597  0.00  0.00    +0.000 A 
ATOM     17  C   UNL     1      85.832  71.596  87.939  0.00  0.00    +0.000 A 
ATOM     18  C   UNL     1      84.936  71.984  88.940  0.00  0.00    +0.000 A 
ENDBRANCH  11  16
ENDBRANCH   1  11
TORSDOF 4
ENDMDL
