MODEL 1
REMARK VINA RESULT:      -4.5      0.000      0.000
REMARK  Name = *****
REMARK  2 active torsions:
REMARK  status: ('A' for Active; 'I' for Inactive)
REMARK    1  A    between atoms: C_5  and  C_7
REMARK    2  A    between atoms: C_8  and  C_10
REMARK                            x       y       z     vdW  Elec       q    Type
REMARK                         _______ _______ _______ _____ _____    ______ ____
ROOT
ATOM      1  C   UNL     1      88.049  64.395  88.781  0.00  0.00    +0.000 C 
ATOM      2  C   UNL     1      87.640  65.163  87.533  0.00  0.00    +0.000 C 
ATOM      3  O   UNL     1      88.575  64.073  87.483  0.00  0.00    +0.000 OA
ENDROOT
BRANCH   1   8
ATOM      4  C   UNL     1      85.976  61.217  89.324  0.00  0.00    +0.000 A 
ATOM      5  C   UNL     1      85.354  61.470  90.542  0.00  0.00    +0.000 A 
ATOM      6  C   UNL     1      85.597  62.671  91.202  0.00  0.00    +0.000 A 
ATOM      7  C   UNL     1      86.462  63.619  90.643  0.00  0.00    +0.000 A 
ATOM      8  C   UNL     1      87.100  63.397  89.408  0.00  0.00    +0.000 A 
ATOM      9  C   UNL     1      86.838  62.167  88.770  0.00  0.00    +0.000 A 
ATOM     10 CL   UNL     1      86.730  65.079  91.528  0.00  0.00    +0.000 Cl
ENDBRANCH   1   8
BRANCH   2  11
ATOM     11  C   UNL     1      88.184  66.548  87.283  0.00  0.00    +0.000 A 
ATOM     12  C   UNL     1      89.366  66.751  86.550  0.00  0.00    +0.000 A 
ATOM     13  C   UNL     1      89.868  68.034  86.311  0.00  0.00    +0.000 A 
ATOM     14  C   UNL     1      89.188  69.143  86.804  0.00  0.00    +0.000 A 
ATOM     15  C   UNL     1      88.012  68.976  87.527  0.00  0.00    +0.000 A 
ATOM     16  C   UNL     1      87.517  67.689  87.761  0.00  0.00    +0.000 A 
ATOM     17 CL   UNL     1      89.801  70.723  86.515  0.00  0.00    +0.000 Cl
ENDBRANCH   2  11
TORSDOF 2
ENDMDL
