REMARK  Name = *****
REMARK  5 active torsions:
REMARK  status: ('A' for Active; 'I' for Inactive)
REMARK    1  A    between atoms: C_1  and  C_2
REMARK    2  A    between atoms: C_4  and  O_9
REMARK    3  A    between atoms: C_5  and  C_8
REMARK    4  A    between atoms: O_9  and  C_10
REMARK    5  A    between atoms: C_10  and  C_12
REMARK                            x       y       z     vdW  Elec       q    Type
REMARK                         _______ _______ _______ _____ _____    ______ ____
ROOT
ATOM      1  O   UNL     1      -1.205   2.543   0.126  0.00  0.00    +0.000 OA
ENDROOT
BRANCH   1   5
ATOM      2  C   UNL     1       2.923  -0.225   0.247  0.00  0.00    +0.000 C 
ATOM      3  C   UNL     1       1.439  -0.079   0.084  0.00  0.00    +0.000 A 
ATOM      4  C   UNL     1       0.830   1.178   0.166  0.00  0.00    +0.000 A 
ATOM      5  C   UNL     1      -0.553   1.297   0.005  0.00  0.00    +0.000 A 
ATOM      6  C   UNL     1      -1.361   0.168  -0.191  0.00  0.00    +0.000 A 
ATOM      7  C   UNL     1      -0.747  -1.090  -0.238  0.00  0.00    +0.000 A 
ATOM      8  C   UNL     1       0.639  -1.212  -0.108  0.00  0.00    +0.000 A 
ATOM      9  C   UNL     1      -2.854   0.276  -0.287  0.00  0.00    +0.000 C 
ENDBRANCH   1   5
BRANCH   1  10
ATOM     10  C   UNL     1      -0.678   3.664  -0.495  0.00  0.00    +0.000 C 
ATOM     11  O   UNL     1       0.344   3.739  -1.159  0.00  0.00    +0.000 OA
BRANCH  10  12
ATOM     12  C   UNL     1      -1.544   4.836  -0.206  0.00  0.00    +0.000 A 
ATOM     13  C   UNL     1      -2.887   4.700   0.173  0.00  0.00    +0.000 A 
ATOM     14  C   UNL     1      -3.662   5.836   0.418  0.00  0.00    +0.000 A 
ATOM     15  C   UNL     1      -3.103   7.107   0.289  0.00  0.00    +0.000 A 
ATOM     16  C   UNL     1      -1.769   7.249  -0.091  0.00  0.00    +0.000 A 
ATOM     17  C   UNL     1      -0.991   6.117  -0.344  0.00  0.00    +0.000 A 
ENDBRANCH  10  12
ENDBRANCH   1  10
TORSDOF 3
