MODEL 1
REMARK VINA RESULT:      -4.5      0.000      0.000
REMARK  Name = *****
REMARK  3 active torsions:
REMARK  status: ('A' for Active; 'I' for Inactive)
REMARK    1  A    between atoms: C_1  and  C_2
REMARK    2  A    between atoms: C_2  and  C_11
REMARK    3  A    between atoms: N_3  and  C_4
REMARK                            x       y       z     vdW  Elec       q    Type
REMARK                         _______ _______ _______ _____ _____    ______ ____
ROOT
ATOM      1  C   UNL     1     100.510 126.628  82.424  0.00  0.00    +0.000 C 
ATOM      2  C   UNL     1     101.568 127.578  82.956  0.00  0.00    +0.000 C 
ATOM      3  N   UNL     1     102.849 127.353  82.890  0.00  0.00    +0.000 NA
ENDROOT
BRANCH   3   4
ATOM      4  C   UNL     1     103.334 126.179  82.290  0.00  0.00    +0.000 A 
ATOM      5  C   UNL     1     103.540 125.048  83.091  0.00  0.00    +0.000 A 
ATOM      6  C   UNL     1     104.046 123.866  82.544  0.00  0.00    +0.000 A 
ATOM      7  C   UNL     1     104.367 123.806  81.190  0.00  0.00    +0.000 A 
ATOM      8  C   UNL     1     104.188 124.930  80.382  0.00  0.00    +0.000 A 
ATOM      9  C   UNL     1     103.680 126.112  80.930  0.00  0.00    +0.000 A 
ATOM     10 CL   UNL     1     103.483 127.476  79.886  0.00  0.00    +0.000 Cl
ENDBRANCH   3   4
BRANCH   2  11
ATOM     11  C   UNL     1     101.106 128.841  83.609  0.00  0.00    +0.000 A 
ATOM     12  C   UNL     1     101.995 129.678  84.293  0.00  0.00    +0.000 A 
ATOM     13  C   UNL     1     101.530 130.853  84.888  0.00  0.00    +0.000 A 
ATOM     14  C   UNL     1     100.183 131.200  84.796  0.00  0.00    +0.000 A 
ATOM     15  C   UNL     1      99.297 130.376  84.103  0.00  0.00    +0.000 A 
ATOM     16  C   UNL     1      99.756 129.201  83.507  0.00  0.00    +0.000 A 
ENDBRANCH   2  11
TORSDOF 2
ENDMDL
