MODEL 1
REMARK VINA RESULT:      -4.4      0.000      0.000
REMARK  Name = *****
REMARK  2 active torsions:
REMARK  status: ('A' for Active; 'I' for Inactive)
REMARK    1  A    between atoms: C_5  and  C_7
REMARK    2  A    between atoms: C_8  and  C_10
REMARK                            x       y       z     vdW  Elec       q    Type
REMARK                         _______ _______ _______ _____ _____    ______ ____
ROOT
ATOM      1  C   UNL     1      88.108  64.425  88.771  0.00  0.00    +0.000 C 
ATOM      2  C   UNL     1      87.713  65.203  87.522  0.00  0.00    +0.000 C 
ATOM      3  O   UNL     1      88.645  64.109  87.479  0.00  0.00    +0.000 OA
ENDROOT
BRANCH   1   8
ATOM      4  C   UNL     1      85.995  61.270  89.281  0.00  0.00    +0.000 A 
ATOM      5  C   UNL     1      85.359  61.529  90.490  0.00  0.00    +0.000 A 
ATOM      6  C   UNL     1      85.605  62.727  91.156  0.00  0.00    +0.000 A 
ATOM      7  C   UNL     1      86.486  63.667  90.608  0.00  0.00    +0.000 A 
ATOM      8  C   UNL     1      87.141  63.436  89.384  0.00  0.00    +0.000 A 
ATOM      9  C   UNL     1      86.875  62.212  88.740  0.00  0.00    +0.000 A 
ATOM     10 CL   UNL     1      86.753  65.126  91.495  0.00  0.00    +0.000 Cl
ENDBRANCH   1   8
BRANCH   2  11
ATOM     11  C   UNL     1      88.269  66.582  87.246  0.00  0.00    +0.000 A 
ATOM     12  C   UNL     1      89.449  66.747  86.494  0.00  0.00    +0.000 A 
ATOM     13  C   UNL     1      89.987  68.010  86.231  0.00  0.00    +0.000 A 
ATOM     14  C   UNL     1      89.361  69.150  86.723  0.00  0.00    +0.000 A 
ATOM     15  C   UNL     1      88.201  69.023  87.483  0.00  0.00    +0.000 A 
ATOM     16  C   UNL     1      87.666  67.755  87.744  0.00  0.00    +0.000 A 
ATOM     17 CL   UNL     1      86.244  67.680  88.727  0.00  0.00    +0.000 Cl
ENDBRANCH   2  11
TORSDOF 2
ENDMDL
