MODEL 1
REMARK VINA RESULT:      -4.5      0.000      0.000
REMARK  Name = *****
REMARK  4 active torsions:
REMARK  status: ('A' for Active; 'I' for Inactive)
REMARK    1  A    between atoms: C_1  and  C_2
REMARK    2  A    between atoms: C_6  and  C_7
REMARK    3  A    between atoms: C_7  and  S_9
REMARK    4  A    between atoms: S_9  and  C_10
REMARK                            x       y       z     vdW  Elec       q    Type
REMARK                         _______ _______ _______ _____ _____    ______ ____
ROOT
ATOM      1  C   UNL     1      89.420  67.308  86.225  0.00  0.00    +0.000 C 
ATOM      2  O   UNL     1      90.582  67.175  86.591  0.00  0.00    +0.000 OA
ENDROOT
BRANCH   1   8
ATOM      3  C   UNL     1      88.848  70.230  88.220  0.00  0.00    +0.000 C 
ATOM      4  C   UNL     1      89.480  69.798  86.900  0.00  0.00    +0.000 C 
ATOM      5  C   UNL     1      89.433  70.913  85.822  0.00  0.00    +0.000 C 
ATOM      6  C   UNL     1      88.072  70.673  85.161  0.00  0.00    +0.000 C 
ATOM      7  C   UNL     1      88.388  69.216  84.805  0.00  0.00    +0.000 C 
ATOM      8  C   UNL     1      88.674  68.633  86.216  0.00  0.00    +0.000 C 
ATOM      9  C   UNL     1      89.691  69.442  84.071  0.00  0.00    +0.000 C 
ATOM     10  C   UNL     1      90.317  70.460  84.681  0.00  0.00    +0.000 C 
ENDBRANCH   1   8
BRANCH   1  11
ATOM     11  S   UNL     1      88.452  65.884  85.822  0.00  0.00    +0.000 S 
BRANCH  11  12
ATOM     12  C   UNL     1      88.072  65.285  87.458  0.00  0.00    +0.000 A 
ATOM     13  C   UNL     1      87.129  65.926  88.269  0.00  0.00    +0.000 A 
ATOM     14  C   UNL     1      86.852  65.439  89.548  0.00  0.00    +0.000 A 
ATOM     15  C   UNL     1      87.524  64.315  90.027  0.00  0.00    +0.000 A 
ATOM     16  C   UNL     1      88.474  63.680  89.230  0.00  0.00    +0.000 A 
ATOM     17  C   UNL     1      88.750  64.166  87.950  0.00  0.00    +0.000 A 
ENDBRANCH  11  12
ENDBRANCH   1  11
TORSDOF 3
ENDMDL
