MODEL 1
REMARK VINA RESULT:      -4.4      0.000      0.000
REMARK  Name = *****
REMARK  3 active torsions:
REMARK  status: ('A' for Active; 'I' for Inactive)
REMARK    1  A    between atoms: C_6  and  C_7
REMARK    2  A    between atoms: C_7  and  S_8
REMARK    3  A    between atoms: S_8  and  C_10
REMARK                            x       y       z     vdW  Elec       q    Type
REMARK                         _______ _______ _______ _____ _____    ______ ____
ROOT
ATOM      1  S   UNL     1     103.338 127.535  82.727  0.00  0.00    +0.000 S 
ATOM      2  O   UNL     1     103.808 128.951  82.900  0.00  0.00    +0.000 OA
ENDROOT
BRANCH   1   3
ATOM      3  C   UNL     1     101.530 127.611  82.836  0.00  0.00    +0.000 A 
ATOM      4  C   UNL     1     100.748 126.575  82.307  0.00  0.00    +0.000 A 
ATOM      5  C   UNL     1      99.355 126.629  82.404  0.00  0.00    +0.000 A 
ATOM      6  C   UNL     1      98.751 127.706  83.040  0.00  0.00    +0.000 A 
ATOM      7  C   UNL     1      99.512 128.732  83.584  0.00  0.00    +0.000 A 
ATOM      8  C   UNL     1     100.903 128.685  83.484  0.00  0.00    +0.000 A 
ATOM      9  F   UNL     1      97.415 127.751  83.134  0.00  0.00    +0.000 F 
ENDBRANCH   1   3
BRANCH   1  10
ATOM     10  C   UNL     1     103.456 127.119  80.953  0.00  0.00    +0.000 C 
BRANCH  10  16
ATOM     11  C   UNL     1     105.029 125.594  79.696  0.00  0.00    +0.000 A 
ATOM     12  C   UNL     1     105.641 124.356  79.499  0.00  0.00    +0.000 A 
ATOM     13  C   UNL     1     105.336 123.298  80.345  0.00  0.00    +0.000 A 
ATOM     14  C   UNL     1     104.430 123.455  81.387  0.00  0.00    +0.000 A 
ATOM     15  C   UNL     1     103.813 124.692  81.586  0.00  0.00    +0.000 A 
ATOM     16  C   UNL     1     104.103 125.772  80.737  0.00  0.00    +0.000 A 
ATOM     17  F   UNL     1     105.925 122.110  80.158  0.00  0.00    +0.000 F 
ENDBRANCH  10  16
ENDBRANCH   1  10
TORSDOF 3
ENDMDL
