MODEL 1
REMARK VINA RESULT:      -4.4      0.000      0.000
REMARK  Name = *****
REMARK  3 active torsions:
REMARK  status: ('A' for Active; 'I' for Inactive)
REMARK    1  A    between atoms: C_1  and  C_2
REMARK    2  A    between atoms: C_5  and  O_8
REMARK    3  A    between atoms: O_8  and  C_9
REMARK                            x       y       z     vdW  Elec       q    Type
REMARK                         _______ _______ _______ _____ _____    ______ ____
ROOT
ATOM      1  O   UNL     1      88.794  69.845  87.894  0.00  0.00    +0.000 OA
ENDROOT
BRANCH   1   6
ATOM      2  C   UNL     1      84.015  72.670  86.740  0.00  0.00    +0.000 C 
ATOM      3  C   UNL     1      85.302  71.956  87.036  0.00  0.00    +0.000 A 
ATOM      4  C   UNL     1      86.161  71.583  85.994  0.00  0.00    +0.000 A 
ATOM      5  C   UNL     1      87.340  70.886  86.265  0.00  0.00    +0.000 A 
ATOM      6  C   UNL     1      87.666  70.564  87.583  0.00  0.00    +0.000 A 
ATOM      7  C   UNL     1      86.803  70.897  88.623  0.00  0.00    +0.000 A 
ATOM      8  C   UNL     1      85.623  71.594  88.351  0.00  0.00    +0.000 A 
ENDBRANCH   1   6
BRANCH   1   9
ATOM      9  C   UNL     1      89.498  69.303  86.843  0.00  0.00    +0.000 C 
ATOM     10  C   UNL     1      89.274  68.066  86.373  0.00  0.00    +0.000 C 
ATOM     11  C   UNL     1      88.228  67.134  86.934  0.00  0.00    +0.000 C 
ATOM     12  C   UNL     1      88.850  65.791  87.318  0.00  0.00    +0.000 C 
ATOM     13  C   UNL     1      89.639  65.177  86.160  0.00  0.00    +0.000 C 
ATOM     14  C   UNL     1      90.692  66.148  85.622  0.00  0.00    +0.000 C 
ATOM     15  C   UNL     1      90.078  67.493  85.233  0.00  0.00    +0.000 C 
ENDBRANCH   1   9
TORSDOF 2
ENDMDL
