MODEL 1
REMARK VINA RESULT:      -4.6      0.000      0.000
REMARK  Name = *****
REMARK  5 active torsions:
REMARK  status: ('A' for Active; 'I' for Inactive)
REMARK    1  A    between atoms: C_1  and  C_2
REMARK    2  A    between atoms: C_4  and  C_8
REMARK    3  A    between atoms: C_8  and  C_9
REMARK    4  A    between atoms: C_9  and  C_10
REMARK    5  A    between atoms: C_10  and  C_12
REMARK                            x       y       z     vdW  Elec       q    Type
REMARK                         _______ _______ _______ _____ _____    ______ ____
ROOT
ATOM      1  C   UNL     1      89.873  68.346  86.055  0.00  0.00    +0.000 C 
ENDROOT
BRANCH   1   2
ATOM      2  C   UNL     1      88.624  67.504  85.877  0.00  0.00    +0.000 C 
ATOM      3  O   UNL     1      87.999  67.471  84.818  0.00  0.00    +0.000 OA
BRANCH   2   4
ATOM      4  C   UNL     1      88.139  66.688  87.033  0.00  0.00    +0.000 A 
ATOM      5  C   UNL     1      88.796  65.480  87.320  0.00  0.00    +0.000 A 
ATOM      6  C   UNL     1      88.378  64.681  88.388  0.00  0.00    +0.000 A 
ATOM      7  C   UNL     1      87.303  65.086  89.175  0.00  0.00    +0.000 A 
ATOM      8  C   UNL     1      86.643  66.284  88.903  0.00  0.00    +0.000 A 
ATOM      9  C   UNL     1      87.060  67.085  87.832  0.00  0.00    +0.000 A 
ATOM     10 CL   UNL     1      86.787  64.106  90.490  0.00  0.00    +0.000 Cl
ENDBRANCH   2   4
ENDBRANCH   1   2
BRANCH   1  11
ATOM     11  C   UNL     1      89.594  69.830  85.818  0.00  0.00    +0.000 C 
BRANCH  11  15
ATOM     12  C   UNL     1      85.144  71.961  86.862  0.00  0.00    +0.000 C 
ATOM     13  C   UNL     1      86.437  71.361  87.329  0.00  0.00    +0.000 A 
ATOM     14  C   UNL     1      87.377  70.893  86.401  0.00  0.00    +0.000 A 
ATOM     15  C   UNL     1      88.605  70.365  86.824  0.00  0.00    +0.000 A 
ATOM     16  C   UNL     1      88.888  70.314  88.194  0.00  0.00    +0.000 A 
ATOM     17  C   UNL     1      87.965  70.793  89.123  0.00  0.00    +0.000 A 
ATOM     18  C   UNL     1      86.747  71.319  88.693  0.00  0.00    +0.000 A 
ENDBRANCH  11  15
ENDBRANCH   1  11
TORSDOF 4
ENDMDL
