MODEL 1
REMARK VINA RESULT:      -4.6      0.000      0.000
REMARK  Name = *****
REMARK  2 active torsions:
REMARK  status: ('A' for Active; 'I' for Inactive)
REMARK    1  A    between atoms: C_2  and  C_9
REMARK    2  A    between atoms: C_3  and  C_4
REMARK                            x       y       z     vdW  Elec       q    Type
REMARK                         _______ _______ _______ _____ _____    ______ ____
ROOT
ATOM      1  C   UNL     1     103.611 127.192  80.135  0.00  0.00    +0.000 C 
ATOM      2  C   UNL     1     103.429 126.780  81.565  0.00  0.00    +0.000 C 
ATOM      3  C   UNL     1     103.309 125.746  80.447  0.00  0.00    +0.000 C 
ENDROOT
BRANCH   2   4
ATOM      4  C   UNL     1     102.193 127.202  82.326  0.00  0.00    +0.000 A 
ATOM      5  C   UNL     1     102.181 128.368  83.110  0.00  0.00    +0.000 A 
ATOM      6  C   UNL     1     101.035 128.770  83.802  0.00  0.00    +0.000 A 
ATOM      7  C   UNL     1      99.873 128.010  83.712  0.00  0.00    +0.000 A 
ATOM      8  C   UNL     1      99.849 126.857  82.934  0.00  0.00    +0.000 A 
ATOM      9  C   UNL     1     101.001 126.462  82.247  0.00  0.00    +0.000 A 
ATOM     10 CL   UNL     1      98.460 128.501  84.560  0.00  0.00    +0.000 Cl
ENDBRANCH   2   4
BRANCH   3  11
ATOM     11  C   UNL     1     104.406 124.700  80.284  0.00  0.00    +0.000 A 
ATOM     12  C   UNL     1     104.486 123.502  80.957  0.00  0.00    +0.000 A 
ATOM     13  S   UNL     1     105.869 122.602  80.495  0.00  0.00    +0.000 S 
ATOM     14  C   UNL     1     106.361 123.819  79.396  0.00  0.00    +0.000 A 
ATOM     15  C   UNL     1     105.489 124.887  79.381  0.00  0.00    +0.000 A 
ENDBRANCH   3  11
TORSDOF 2
ENDMDL
