MODEL 1
REMARK VINA RESULT:      -4.0      0.000      0.000
REMARK  Name = *****
REMARK  5 active torsions:
REMARK  status: ('A' for Active; 'I' for Inactive)
REMARK    1  A    between atoms: C_1  and  O_2
REMARK    2  A    between atoms: O_2  and  C_3
REMARK    3  A    between atoms: C_3  and  C_11
REMARK    4  A    between atoms: N_4  and  C_5
REMARK    5  A    between atoms: C_12  and  C_17
REMARK                            x       y       z     vdW  Elec       q    Type
REMARK                         _______ _______ _______ _____ _____    ______ ____
ROOT
ATOM      1  C   UNL     1      88.918  69.510  86.138  0.00  0.00    +0.000 C 
ATOM      2  N   UNL     1      88.226  68.456  85.854  0.00  0.00    +0.000 NA
ENDROOT
BRANCH   2   3
ATOM      3  C   UNL     1      87.935  67.483  86.815  0.00  0.00    +0.000 A 
ATOM      4  C   UNL     1      86.823  67.597  87.654  0.00  0.00    +0.000 A 
ATOM      5  C   UNL     1      86.530  66.597  88.584  0.00  0.00    +0.000 A 
ATOM      6  C   UNL     1      87.338  65.464  88.666  0.00  0.00    +0.000 A 
ATOM      7  C   UNL     1      88.433  65.328  87.813  0.00  0.00    +0.000 A 
ATOM      8  C   UNL     1      88.723  66.331  86.885  0.00  0.00    +0.000 A 
ENDBRANCH   2   3
BRANCH   1   9
ATOM      9  C   UNL     1      89.107  70.651  85.204  0.00  0.00    +0.000 C 
ATOM     10  C   UNL     1      88.093  71.494  84.913  0.00  0.00    +0.000 C 
ATOM     11  C   UNL     1      88.287  72.652  83.958  0.00  0.00    +0.000 C 
ATOM     12  C   UNL     1      89.752  72.967  83.650  0.00  0.00    +0.000 C 
ATOM     13  C   UNL     1      90.541  71.689  83.394  0.00  0.00    +0.000 C 
ATOM     14  C   UNL     1      90.486  70.768  84.612  0.00  0.00    +0.000 C 
BRANCH  10  15
ATOM     15  C   UNL     1      86.801  71.350  85.509  0.00  0.00    +0.000 C 
ATOM     16  C   UNL     1      85.715  71.238  86.008  0.00  0.00    +0.000 C 
ENDBRANCH  10  15
ENDBRANCH   1   9
BRANCH   1  18
ATOM     17  C   UNL     1      88.888  70.543  88.296  0.00  0.00    +0.000 C 
ATOM     18  O   UNL     1      89.585  69.805  87.286  0.00  0.00    +0.000 OA
ENDBRANCH   1  18
TORSDOF 4
ENDMDL
