REMARK  Name = *****
REMARK  4 active torsions:
REMARK  status: ('A' for Active; 'I' for Inactive)
REMARK    1  A    between atoms: C_1  and  O_2
REMARK    2  A    between atoms: O_2  and  C_3
REMARK    3  A    between atoms: C_6  and  C_9
REMARK    4  A    between atoms: C_10  and  C_11
REMARK                            x       y       z     vdW  Elec       q    Type
REMARK                         _______ _______ _______ _____ _____    ______ ____
ROOT
ATOM      1  C   UNL     1       3.038  -1.192  -0.104  0.00  0.00    +0.000 A 
ATOM      2  C   UNL     1       2.411  -2.433  -0.200  0.00  0.00    +0.000 A 
ATOM      3  C   UNL     1       3.173  -3.597  -0.367  0.00  0.00    +0.000 A 
ATOM      4  C   UNL     1       4.569  -3.537  -0.452  0.00  0.00    +0.000 A 
ATOM      5  C   UNL     1       5.192  -2.290  -0.338  0.00  0.00    +0.000 A 
ATOM      6  C   UNL     1       4.431  -1.128  -0.171  0.00  0.00    +0.000 A 
ENDROOT
BRANCH   1   8
ATOM      7  C   UNL     1       0.996   0.005   0.100  0.00  0.00    +0.000 C 
ATOM      8  O   UNL     1       2.417   0.015   0.061  0.00  0.00    +0.000 OA
ENDBRANCH   1   8
BRANCH   4   9
ATOM      9  C   UNL     1       5.404  -4.738  -0.594  0.00  0.00    +0.000 C 
ATOM     10  C   UNL     1       5.059  -5.823  -1.309  0.00  0.00    +0.000 C 
BRANCH  10  11
ATOM     11  C   UNL     1       5.927  -7.048  -1.453  0.00  0.00    +0.000 C 
ATOM     12  C   UNL     1       5.244  -8.254  -0.860  0.00  0.00    +0.000 C 
ATOM     13  C   UNL     1       5.330  -9.503  -1.339  0.00  0.00    +0.000 C 
ATOM     14  C   UNL     1       6.128  -9.834  -2.492  0.00  0.00    +0.000 C 
ATOM     15  C   UNL     1       6.602  -8.934  -3.362  0.00  0.00    +0.000 C 
ATOM     16  S   UNL     1       6.308  -7.236  -3.233  0.00  0.00    +0.000 S 
ENDBRANCH  10  11
ENDBRANCH   4   9
TORSDOF 3
