REMARK  Name = *****
REMARK  2 active torsions:
REMARK  status: ('A' for Active; 'I' for Inactive)
REMARK    1  A    between atoms: C_1  and  C_2
REMARK    2  A    between atoms: C_4  and  C_8
REMARK                            x       y       z     vdW  Elec       q    Type
REMARK                         _______ _______ _______ _____ _____    ______ ____
ROOT
ATOM      1  C   UNL     1      -1.806   2.567  -0.079  0.00  0.00    +0.000 A 
ATOM      2  N   UNL     1      -1.285   3.778  -0.185  0.00  0.00    +0.000 NA
ATOM      3  C   UNL     1      -2.376   4.607  -0.187  0.00  0.00    +0.000 A 
ATOM      4  C   UNL     1      -3.536   3.858  -0.079  0.00  0.00    +0.000 A 
ATOM      5  O   UNL     1      -3.178   2.544  -0.010  0.00  0.00    +0.000 OA
ATOM      6  C   UNL     1      -4.822   4.382  -0.050  0.00  0.00    +0.000 A 
ATOM      7  C   UNL     1      -4.899   5.776  -0.138  0.00  0.00    +0.000 A 
ATOM      8  C   UNL     1      -3.754   6.576  -0.249  0.00  0.00    +0.000 A 
ATOM      9  C   UNL     1      -2.473   6.002  -0.276  0.00  0.00    +0.000 A 
ATOM     10 CL   UNL     1      -6.449   6.529  -0.109  0.00  0.00    +0.000 Cl
ENDROOT
BRANCH   1  14
ATOM     11  C   UNL     1       2.470  -0.024  -0.042  0.00  0.00    +0.000 C 
ATOM     12  C   UNL     1       0.972   0.013   0.009  0.00  0.00    +0.000 A 
ATOM     13  C   UNL     1       0.280   1.232  -0.053  0.00  0.00    +0.000 A 
ATOM     14  C   UNL     1      -1.124   1.276  -0.020  0.00  0.00    +0.000 A 
ATOM     15  C   UNL     1      -1.829   0.067   0.067  0.00  0.00    +0.000 A 
ATOM     16  C   UNL     1      -1.150  -1.152   0.120  0.00  0.00    +0.000 A 
ATOM     17  C   UNL     1       0.244  -1.179   0.088  0.00  0.00    +0.000 A 
ENDBRANCH   1  14
TORSDOF 1
