MODEL 1
REMARK VINA RESULT:      -5.0      0.000      0.000
REMARK  Name = *****
REMARK  2 active torsions:
REMARK  status: ('A' for Active; 'I' for Inactive)
REMARK    1  A    between atoms: C_4  and  C_7
REMARK    2  A    between atoms: C_8  and  C_9
REMARK                            x       y       z     vdW  Elec       q    Type
REMARK                         _______ _______ _______ _____ _____    ______ ____
ROOT
ATOM      1  C   UNL     1     103.923 124.627  81.398  0.00  0.00    +0.000 A 
ATOM      2  C   UNL     1     104.377 123.611  82.242  0.00  0.00    +0.000 A 
ATOM      3  C   UNL     1     105.394 122.761  81.809  0.00  0.00    +0.000 A 
ATOM      4  C   UNL     1     105.956 122.912  80.550  0.00  0.00    +0.000 A 
ATOM      5  C   UNL     1     105.500 123.924  79.716  0.00  0.00    +0.000 A 
ATOM      6  C   UNL     1     104.487 124.785  80.129  0.00  0.00    +0.000 A 
ATOM      7  F   UNL     1     106.035 124.083  78.496  0.00  0.00    +0.000 F 
ATOM      8  F   UNL     1     106.933 122.089  80.142  0.00  0.00    +0.000 F 
ATOM      9  F   UNL     1     105.823 121.788  82.626  0.00  0.00    +0.000 F 
ENDROOT
BRANCH   1  11
ATOM     10  C   UNL     1     102.004 126.241  82.193  0.00  0.00    +0.000 C 
ATOM     11  C   UNL     1     102.880 125.503  81.831  0.00  0.00    +0.000 C 
BRANCH  10  15
ATOM     12  C   UNL     1      98.922 128.840  83.453  0.00  0.00    +0.000 A 
ATOM     13  C   UNL     1     100.255 129.163  83.710  0.00  0.00    +0.000 A 
ATOM     14  C   UNL     1     101.274 128.304  83.295  0.00  0.00    +0.000 A 
ATOM     15  C   UNL     1     100.960 127.121  82.622  0.00  0.00    +0.000 A 
ATOM     16  C   UNL     1      99.625 126.799  82.366  0.00  0.00    +0.000 A 
ATOM     17  C   UNL     1      98.607 127.660  82.782  0.00  0.00    +0.000 A 
ENDBRANCH  10  15
ENDBRANCH   1  11
TORSDOF 2
ENDMDL
