MODEL 1
REMARK VINA RESULT:      -4.9      0.000      0.000
REMARK  Name = *****
REMARK  2 active torsions:
REMARK  status: ('A' for Active; 'I' for Inactive)
REMARK    1  A    between atoms: C_4  and  C_7
REMARK    2  A    between atoms: N_8  and  C_9
REMARK                            x       y       z     vdW  Elec       q    Type
REMARK                         _______ _______ _______ _____ _____    ______ ____
ROOT
ATOM      1  C   UNL     1     103.886 125.112  81.597  0.00  0.00    +0.000 A 
ATOM      2  C   UNL     1     104.140 123.875  82.208  0.00  0.00    +0.000 A 
ATOM      3  C   UNL     1     104.908 122.902  81.567  0.00  0.00    +0.000 A 
ATOM      4  C   UNL     1     105.432 123.128  80.302  0.00  0.00    +0.000 A 
ATOM      5  C   UNL     1     105.177 124.344  79.683  0.00  0.00    +0.000 A 
ATOM      6  C   UNL     1     104.412 125.323  80.317  0.00  0.00    +0.000 A 
ATOM      7  F   UNL     1     104.189 126.485  79.682  0.00  0.00    +0.000 F 
ATOM      8  F   UNL     1     105.677 124.570  78.461  0.00  0.00    +0.000 F 
ATOM      9  F   UNL     1     105.149 121.732  82.174  0.00  0.00    +0.000 F 
ATOM     10  F   UNL     1     103.652 123.616  83.432  0.00  0.00    +0.000 F 
ENDROOT
BRANCH   1  12
ATOM     11  C   UNL     1     101.803 126.049  81.991  0.00  0.00    +0.000 C 
ATOM     12  N   UNL     1     103.081 126.105  82.195  0.00  0.00    +0.000 NA
BRANCH  11  16
ATOM     13  C   UNL     1      99.164 128.944  83.676  0.00  0.00    +0.000 A 
ATOM     14  C   UNL     1      98.638 127.853  82.983  0.00  0.00    +0.000 A 
ATOM     15  C   UNL     1      99.493 126.900  82.429  0.00  0.00    +0.000 A 
ATOM     16  C   UNL     1     100.876 127.042  82.570  0.00  0.00    +0.000 A 
ATOM     17  C   UNL     1     101.406 128.134  83.263  0.00  0.00    +0.000 A 
ATOM     18  C   UNL     1     100.545 129.085  83.817  0.00  0.00    +0.000 A 
ENDBRANCH  11  16
ENDBRANCH   1  12
TORSDOF 2
ENDMDL
