MODEL 1
REMARK VINA RESULT:      -4.7      0.000      0.000
REMARK  Name = *****
REMARK  4 active torsions:
REMARK  status: ('A' for Active; 'I' for Inactive)
REMARK    1  A    between atoms: C_4  and  C_7
REMARK    2  A    between atoms: C_7  and  C_8
REMARK    3  A    between atoms: C_8  and  O_10
REMARK    4  A    between atoms: O_10  and  C_11
REMARK                            x       y       z     vdW  Elec       q    Type
REMARK                         _______ _______ _______ _____ _____    ______ ____
ROOT
ATOM      1  C   UNL     1     103.393 126.553  80.686  0.00  0.00    +0.000 C 
ATOM      2  O   UNL     1     103.657 127.573  80.058  0.00  0.00    +0.000 OA
ENDROOT
BRANCH   1   3
ATOM      3  C   UNL     1     103.188 126.509  82.181  0.00  0.00    +0.000 C 
BRANCH   3   7
ATOM      4  C   UNL     1      99.440 128.291  83.344  0.00  0.00    +0.000 A 
ATOM      5  C   UNL     1      99.450 127.080  82.655  0.00  0.00    +0.000 A 
ATOM      6  C   UNL     1     100.662 126.496  82.283  0.00  0.00    +0.000 A 
ATOM      7  C   UNL     1     101.876 127.120  82.602  0.00  0.00    +0.000 A 
ATOM      8  C   UNL     1     101.854 128.340  83.291  0.00  0.00    +0.000 A 
ATOM      9  C   UNL     1     100.641 128.922  83.661  0.00  0.00    +0.000 A 
ENDBRANCH   3   7
ENDBRANCH   1   3
BRANCH   1  10
ATOM     10  O   UNL     1     103.238 125.275  80.159  0.00  0.00    +0.000 OA
BRANCH  10  11
ATOM     11  C   UNL     1     104.440 124.574  80.073  0.00  0.00    +0.000 A 
ATOM     12  C   UNL     1     104.546 123.345  80.722  0.00  0.00    +0.000 A 
ATOM     13  C   UNL     1     105.758 122.653  80.678  0.00  0.00    +0.000 A 
ATOM     14  C   UNL     1     106.853 123.202  79.995  0.00  0.00    +0.000 A 
ATOM     15  C   UNL     1     106.733 124.447  79.364  0.00  0.00    +0.000 A 
ATOM     16  C   UNL     1     105.524 125.142  79.409  0.00  0.00    +0.000 A 
ATOM     17 CL   UNL     1     108.382 122.402  79.903  0.00  0.00    +0.000 Cl
ATOM     18 CL   UNL     1     105.843 121.130  81.490  0.00  0.00    +0.000 Cl
ENDBRANCH  10  11
ENDBRANCH   1  10
TORSDOF 4
ENDMDL
