MODEL 1
REMARK VINA RESULT:      -4.9      0.000      0.000
REMARK  Name = *****
REMARK  3 active torsions:
REMARK  status: ('A' for Active; 'I' for Inactive)
REMARK    1  A    between atoms: C_3  and  C_9
REMARK    2  A    between atoms: C_9  and  O_11
REMARK    3  A    between atoms: O_11  and  C_12
REMARK                            x       y       z     vdW  Elec       q    Type
REMARK                         _______ _______ _______ _____ _____    ______ ____
ROOT
ATOM      1  C   UNL     1     103.520 127.730  82.909  0.00  0.00    +0.000 C 
ATOM      2  O   UNL     1     104.107 128.770  82.649  0.00  0.00    +0.000 OA
ENDROOT
BRANCH   1   5
ATOM      3  C   UNL     1     104.492 124.151  82.265  0.00  0.00    +0.000 A 
ATOM      4  C   UNL     1     104.230 125.359  82.915  0.00  0.00    +0.000 A 
ATOM      5  C   UNL     1     103.779 126.469  82.181  0.00  0.00    +0.000 A 
ATOM      6  C   UNL     1     103.618 126.353  80.798  0.00  0.00    +0.000 A 
ATOM      7  C   UNL     1     103.879 125.150  80.147  0.00  0.00    +0.000 A 
ATOM      8  C   UNL     1     104.310 124.058  80.888  0.00  0.00    +0.000 A 
ATOM      9  F   UNL     1     104.563 122.900  80.268  0.00  0.00    +0.000 F 
ATOM     10  F   UNL     1     103.237 127.400  80.052  0.00  0.00    +0.000 F 
ENDBRANCH   1   5
BRANCH   1  11
ATOM     11  O   UNL     1     102.614 127.512  83.926  0.00  0.00    +0.000 OA
BRANCH  11  12
ATOM     12  C   UNL     1     101.282 127.766  83.585  0.00  0.00    +0.000 A 
ATOM     13  C   UNL     1     100.796 129.057  83.782  0.00  0.00    +0.000 A 
ATOM     14  C   UNL     1      99.489 129.344  83.403  0.00  0.00    +0.000 A 
ATOM     15  C   UNL     1      98.678 128.377  82.821  0.00  0.00    +0.000 A 
ATOM     16  C   UNL     1      99.193 127.103  82.616  0.00  0.00    +0.000 A 
ATOM     17  C   UNL     1     100.497 126.784  82.983  0.00  0.00    +0.000 A 
ATOM     18  F   UNL     1      98.424 126.167  82.045  0.00  0.00    +0.000 F 
ATOM     19  F   UNL     1      99.007 130.579  83.593  0.00  0.00    +0.000 F 
ENDBRANCH  11  12
ENDBRANCH   1  11
TORSDOF 3
ENDMDL
