MODEL 1
REMARK VINA RESULT:      -4.5      0.000      0.000
REMARK  Name = *****
REMARK  4 active torsions:
REMARK  status: ('A' for Active; 'I' for Inactive)
REMARK    1  A    between atoms: C_1  and  C_2
REMARK    2  A    between atoms: C_5  and  O_8
REMARK    3  A    between atoms: O_8  and  S_9
REMARK    4  A    between atoms: S_9  and  C_11
REMARK                            x       y       z     vdW  Elec       q    Type
REMARK                         _______ _______ _______ _____ _____    ______ ____
ROOT
ATOM      1  O   UNL     1     103.004 126.923  81.560  0.00  0.00    +0.000 OA
ENDROOT
BRANCH   1   6
ATOM      2  C   UNL     1     105.384 121.795  81.162  0.00  0.00    +0.000 C 
ATOM      3  C   UNL     1     104.788 123.168  81.267  0.00  0.00    +0.000 A 
ATOM      4  C   UNL     1     104.223 123.604  82.473  0.00  0.00    +0.000 A 
ATOM      5  C   UNL     1     103.637 124.868  82.563  0.00  0.00    +0.000 A 
ATOM      6  C   UNL     1     103.620 125.704  81.447  0.00  0.00    +0.000 A 
ATOM      7  C   UNL     1     104.143 125.266  80.230  0.00  0.00    +0.000 A 
ATOM      8  C   UNL     1     104.728 124.001  80.143  0.00  0.00    +0.000 A 
ENDBRANCH   1   6
BRANCH   1   9
ATOM      9  S   UNL     1     102.953 127.511  83.063  0.00  0.00    +0.000 S 
ATOM     10  O   UNL     1     103.502 128.909  83.022  0.00  0.00    +0.000 OA
BRANCH   9  11
ATOM     11  C   UNL     1     101.150 127.691  83.030  0.00  0.00    +0.000 A 
ATOM     12  C   UNL     1     100.556 128.858  83.530  0.00  0.00    +0.000 A 
ATOM     13  C   UNL     1      99.169 129.016  83.491  0.00  0.00    +0.000 A 
ATOM     14  C   UNL     1      98.368 128.013  82.947  0.00  0.00    +0.000 A 
ATOM     15  C   UNL     1      98.952 126.853  82.440  0.00  0.00    +0.000 A 
ATOM     16  C   UNL     1     100.339 126.694  82.479  0.00  0.00    +0.000 A 
ENDBRANCH   9  11
ENDBRANCH   1   9
TORSDOF 3
ENDMDL
