MODEL 1
REMARK VINA RESULT:      -4.9      0.000      0.000
REMARK  Name = *****
REMARK  2 active torsions:
REMARK  status: ('A' for Active; 'I' for Inactive)
REMARK    1  A    between atoms: C_4  and  C_7
REMARK    2  A    between atoms: C_8  and  C_9
REMARK                            x       y       z     vdW  Elec       q    Type
REMARK                         _______ _______ _______ _____ _____    ______ ____
ROOT
ATOM      1  C   UNL     1     103.195 126.150  82.101  0.00  0.00    +0.000 C 
ATOM      2  C   UNL     1     102.165 125.835  82.904  0.00  0.00    +0.000 C 
ENDROOT
BRANCH   2   3
ATOM      3  C   UNL     1     101.081 126.815  83.306  0.00  0.00    +0.000 C 
ATOM      4  C   UNL     1     101.686 128.229  83.315  0.00  0.00    +0.000 C 
ATOM      5  C   UNL     1     100.829 129.290  84.002  0.00  0.00    +0.000 C 
ATOM      6  C   UNL     1      99.425 129.456  83.425  0.00  0.00    +0.000 C 
ATOM      7  C   UNL     1      98.491 128.317  83.807  0.00  0.00    +0.000 C 
ATOM      8  C   UNL     1      98.578 127.110  82.902  0.00  0.00    +0.000 C 
ATOM      9  O   UNL     1      97.560 126.465  82.637  0.00  0.00    +0.000 OA
ATOM     10  C   UNL     1      99.913 126.696  82.320  0.00  0.00    +0.000 C 
ENDBRANCH   2   3
BRANCH   1  14
ATOM     11  C   UNL     1     105.132 122.603  80.511  0.00  0.00    +0.000 C 
ATOM     12  C   UNL     1     105.295 123.916  79.753  0.00  0.00    +0.000 C 
ATOM     13  C   UNL     1     104.254 124.948  80.181  0.00  0.00    +0.000 C 
ATOM     14  C   UNL     1     104.276 125.176  81.700  0.00  0.00    +0.000 C 
ATOM     15  C   UNL     1     104.105 123.848  82.454  0.00  0.00    +0.000 C 
ATOM     16  C   UNL     1     105.148 122.820  82.021  0.00  0.00    +0.000 C 
ENDBRANCH   1  14
TORSDOF 2
ENDMDL
