REMARK  Name = *****
REMARK  3 active torsions:
REMARK  status: ('A' for Active; 'I' for Inactive)
REMARK    1  A    between atoms: C_5  and  C_6
REMARK    2  A    between atoms: C_5  and  S_8
REMARK    3  A    between atoms: S_8  and  C_9
REMARK                            x       y       z     vdW  Elec       q    Type
REMARK                         _______ _______ _______ _____ _____    ______ ____
ROOT
ATOM      1  C   UNL     1       0.850   1.127  -0.286  0.00  0.00    +0.000 C 
ATOM      2  C   UNL     1       1.512   0.018   0.523  0.00  0.00    +0.000 C 
ATOM      3  S   UNL     1       1.021  -1.641  -0.018  0.00  0.00    +0.000 S 
ATOM      4  C   UNL     1      -0.719  -1.534   0.197  0.00  0.00    +0.000 C 
ATOM      5  C   UNL     1      -1.427  -2.395   0.970  0.00  0.00    +0.000 C 
ATOM      6  S   UNL     1      -1.510  -0.278  -0.746  0.00  0.00    +0.000 S 
ATOM      7  C   UNL     1      -0.661   1.187  -0.095  0.00  0.00    +0.000 C 
ENDROOT
BRANCH   5   8
ATOM      8  C   UNL     1      -2.848  -2.264   1.120  0.00  0.00    +0.000 C 
ATOM      9  N   UNL     1      -3.997  -2.179   1.265  0.00  0.00    +0.000 NA
ENDBRANCH   5   8
BRANCH   5  10
ATOM     10  S   UNL     1      -0.693  -3.689   1.917  0.00  0.00    +0.000 S 
BRANCH  10  11
ATOM     11  C   UNL     1      -0.691  -4.973   0.675  0.00  0.00    +0.000 A 
ATOM     12  C   UNL     1       0.527  -5.423   0.155  0.00  0.00    +0.000 A 
ATOM     13  C   UNL     1       0.554  -6.428  -0.814  0.00  0.00    +0.000 A 
ATOM     14  C   UNL     1      -0.637  -6.996  -1.262  0.00  0.00    +0.000 A 
ATOM     15  C   UNL     1      -1.854  -6.565  -0.737  0.00  0.00    +0.000 A 
ATOM     16  C   UNL     1      -1.882  -5.561   0.234  0.00  0.00    +0.000 A 
ENDBRANCH  10  11
ENDBRANCH   5  10
TORSDOF 3
