REMARK  Name = *****
REMARK  3 active torsions:
REMARK  status: ('A' for Active; 'I' for Inactive)
REMARK    1  A    between atoms: C_3  and  C_8
REMARK    2  A    between atoms: C_8  and  C_9
REMARK    3  A    between atoms: C_9  and  C_11
REMARK                            x       y       z     vdW  Elec       q    Type
REMARK                         _______ _______ _______ _____ _____    ______ ____
ROOT
ATOM      1  C   UNL     1       1.458   3.780  -0.082  0.00  0.00    +0.000 C 
ATOM      2  O   UNL     1       1.036   4.253  -1.138  0.00  0.00    +0.000 OA
ENDROOT
BRANCH   1   3
ATOM      3  C   UNL     1       1.090   4.444   1.208  0.00  0.00    +0.000 A 
ATOM      4  C   UNL     1       1.356   3.879   2.461  0.00  0.00    +0.000 A 
ATOM      5  C   UNL     1       0.998   4.558   3.632  0.00  0.00    +0.000 A 
ATOM      6  C   UNL     1       0.369   5.800   3.554  0.00  0.00    +0.000 A 
ATOM      7  C   UNL     1       0.089   6.369   2.316  0.00  0.00    +0.000 A 
ATOM      8  C   UNL     1       0.447   5.692   1.146  0.00  0.00    +0.000 A 
ATOM      9 CL   UNL     1      -0.064   6.630   4.996  0.00  0.00    +0.000 Cl
ENDBRANCH   1   3
BRANCH   1  10
ATOM     10  C   UNL     1       2.344   2.547  -0.079  0.00  0.00    +0.000 C 
BRANCH  10  13
ATOM     11  C   UNL     1      -0.055  -0.262  -1.034  0.00  0.00    +0.000 A 
ATOM     12  C   UNL     1       0.651   0.943  -1.054  0.00  0.00    +0.000 A 
ATOM     13  C   UNL     1       1.571   1.252  -0.040  0.00  0.00    +0.000 A 
ATOM     14  C   UNL     1       1.782   0.321   0.986  0.00  0.00    +0.000 A 
ATOM     15  C   UNL     1       1.071  -0.881   1.003  0.00  0.00    +0.000 A 
ATOM     16  C   UNL     1       0.153  -1.176  -0.002  0.00  0.00    +0.000 A 
ATOM     17 CL   UNL     1       1.334  -2.008   2.277  0.00  0.00    +0.000 Cl
ENDBRANCH  10  13
ENDBRANCH   1  10
TORSDOF 3
