REMARK  Name = *****
REMARK  4 active torsions:
REMARK  status: ('A' for Active; 'I' for Inactive)
REMARK    1  A    between atoms: C_6  and  O_7
REMARK    2  A    between atoms: O_7  and  C_8
REMARK    3  A    between atoms: C_8  and  C_10
REMARK    4  A    between atoms: C_13  and  C_16
REMARK                            x       y       z     vdW  Elec       q    Type
REMARK                         _______ _______ _______ _____ _____    ______ ____
ROOT
ATOM      1  C   UNL     1       5.953   1.182   0.143  0.00  0.00    +0.000 A 
ATOM      2  C   UNL     1       6.664   0.657  -0.941  0.00  0.00    +0.000 A 
ATOM      3  C   UNL     1       8.057   0.693  -0.936  0.00  0.00    +0.000 A 
ATOM      4  C   UNL     1       8.771   1.241   0.128  0.00  0.00    +0.000 A 
ATOM      5  C   UNL     1       8.058   1.767   1.214  0.00  0.00    +0.000 A 
ATOM      6  C   UNL     1       6.660   1.737   1.221  0.00  0.00    +0.000 A 
ATOM      7  F   UNL     1       8.714   0.182  -1.985  0.00  0.00    +0.000 F 
ENDROOT
BRANCH   4   8
ATOM      8  C   UNL     1      10.271   1.250   0.076  0.00  0.00    +0.000 C 
ATOM      9  F   UNL     1      10.805   0.001   0.005  0.00  0.00    +0.000 F 
ATOM     10  F   UNL     1      10.760   1.939  -0.990  0.00  0.00    +0.000 F 
ATOM     11  F   UNL     1      10.837   1.828   1.175  0.00  0.00    +0.000 F 
ENDBRANCH   4   8
BRANCH   1  12
ATOM     12  C   UNL     1       4.465   1.177   0.208  0.00  0.00    +0.000 C 
ATOM     13  O   UNL     1       3.842   1.616   1.163  0.00  0.00    +0.000 OA
BRANCH  12  14
ATOM     14  O   UNL     1       3.949   0.617  -0.945  0.00  0.00    +0.000 OA
BRANCH  14  20
ATOM     15  C   UNL     1       1.791   1.735  -1.073  0.00  0.00    +0.000 A 
ATOM     16  C   UNL     1       0.404   1.641  -1.196  0.00  0.00    +0.000 A 
ATOM     17  C   UNL     1      -0.201   0.386  -1.272  0.00  0.00    +0.000 A 
ATOM     18  C   UNL     1       0.567  -0.779  -1.232  0.00  0.00    +0.000 A 
ATOM     19  C   UNL     1       1.955  -0.690  -1.108  0.00  0.00    +0.000 A 
ATOM     20  C   UNL     1       2.551   0.567  -1.011  0.00  0.00    +0.000 A 
ATOM     21 CL   UNL     1      -1.912   0.272  -1.428  0.00  0.00    +0.000 Cl
ENDBRANCH  14  20
ENDBRANCH  12  14
ENDBRANCH   1  12
TORSDOF 4
