MODEL 1
REMARK VINA RESULT:      -4.8      0.000      0.000
REMARK  Name = *****
REMARK  5 active torsions:
REMARK  status: ('A' for Active; 'I' for Inactive)
REMARK    1  A    between atoms: C_1  and  C_13
REMARK    2  A    between atoms: C_2  and  C_3
REMARK    3  A    between atoms: C_6  and  C_9
REMARK    4  A    between atoms: C_9  and  O_11
REMARK    5  A    between atoms: O_11  and  C_12
REMARK                            x       y       z     vdW  Elec       q    Type
REMARK                         _______ _______ _______ _____ _____    ______ ____
ROOT
ATOM      1  C   UNL     1     103.756 124.774  81.365  0.00  0.00    +0.000 A 
ATOM      2  C   UNL     1     104.427 124.620  80.145  0.00  0.00    +0.000 A 
ATOM      3  C   UNL     1     105.423 123.649  79.998  0.00  0.00    +0.000 A 
ATOM      4  C   UNL     1     105.773 122.824  81.074  0.00  0.00    +0.000 A 
ATOM      5  C   UNL     1     105.116 122.984  82.301  0.00  0.00    +0.000 A 
ATOM      6  C   UNL     1     104.120 123.957  82.443  0.00  0.00    +0.000 A 
ENDROOT
BRANCH   1   8
ATOM      7  C   UNL     1     101.999 125.920  82.691  0.00  0.00    +0.000 C 
ATOM      8  C   UNL     1     102.728 125.804  81.570  0.00  0.00    +0.000 C 
BRANCH   7   9
ATOM      9  C   UNL     1     100.982 126.962  82.899  0.00  0.00    +0.000 A 
ATOM     10  C   UNL     1     101.282 128.189  83.502  0.00  0.00    +0.000 A 
ATOM     11  C   UNL     1     100.296 129.168  83.653  0.00  0.00    +0.000 A 
ATOM     12  C   UNL     1      99.003 128.932  83.193  0.00  0.00    +0.000 A 
ATOM     13  C   UNL     1      98.695 127.721  82.575  0.00  0.00    +0.000 A 
ATOM     14  C   UNL     1      99.682 126.744  82.424  0.00  0.00    +0.000 A 
ENDBRANCH   7   9
ENDBRANCH   1   8
BRANCH   4  15
ATOM     15  C   UNL     1     106.841 121.808  80.865  0.00  0.00    +0.000 C 
ATOM     16  O   UNL     1     107.727 121.924  80.032  0.00  0.00    +0.000 OA
BRANCH  15  17
ATOM     17  O   UNL     1     106.685 120.764  81.717  0.00  0.00    +0.000 OA
ATOM     18  C   UNL     1     107.392 119.586  81.327  0.00  0.00    +0.000 C 
ENDBRANCH  15  17
ENDBRANCH   4  15
TORSDOF 4
ENDMDL
