MODEL 1
REMARK VINA RESULT:      -4.5      0.000      0.000
REMARK  Name = *****
REMARK  4 active torsions:
REMARK  status: ('A' for Active; 'I' for Inactive)
REMARK    1  A    between atoms: C_3  and  C_9
REMARK    2  A    between atoms: C_9  and  O_10
REMARK    3  A    between atoms: O_10  and  C_11
REMARK    4  A    between atoms: C_11  and  C_13
REMARK                            x       y       z     vdW  Elec       q    Type
REMARK                         _______ _______ _______ _____ _____    ______ ____
ROOT
ATOM      1  O   UNL     1     103.854 124.875  80.220  0.00  0.00    +0.000 OA
ENDROOT
BRANCH   1   2
ATOM      2  C   UNL     1     105.044 124.367  80.619  0.00  0.00    +0.000 C 
ATOM      3  O   UNL     1     106.153 124.806  80.371  0.00  0.00    +0.000 OA
BRANCH   2   4
ATOM      4  C   UNL     1     104.779 123.150  81.410  0.00  0.00    +0.000 A 
ATOM      5  C   UNL     1     104.671 123.198  82.806  0.00  0.00    +0.000 A 
ATOM      6  C   UNL     1     104.451 122.019  83.525  0.00  0.00    +0.000 A 
ATOM      7  C   UNL     1     104.342 120.810  82.847  0.00  0.00    +0.000 A 
ATOM      8  C   UNL     1     104.448 120.749  81.462  0.00  0.00    +0.000 A 
ATOM      9  C   UNL     1     104.668 121.921  80.738  0.00  0.00    +0.000 A 
ATOM     10  F   UNL     1     104.130 119.684  83.540  0.00  0.00    +0.000 F 
ATOM     11 CL   UNL     1     104.744 124.673  83.700  0.00  0.00    +0.000 Cl
ENDBRANCH   2   4
ENDBRANCH   1   2
BRANCH   1  12
ATOM     12  C   UNL     1     103.765 126.305  80.213  0.00  0.00    +0.000 C 
BRANCH  12  15
ATOM     13  C   UNL     1     101.225 126.357  83.043  0.00  0.00    +0.000 A 
ATOM     14  C   UNL     1     101.952 125.967  81.919  0.00  0.00    +0.000 A 
ATOM     15  C   UNL     1     102.990 126.775  81.420  0.00  0.00    +0.000 A 
ATOM     16  C   UNL     1     103.291 127.974  82.090  0.00  0.00    +0.000 A 
ATOM     17  C   UNL     1     102.561 128.364  83.215  0.00  0.00    +0.000 A 
ATOM     18  C   UNL     1     101.534 127.552  83.678  0.00  0.00    +0.000 A 
ATOM     19  F   UNL     1     100.836 127.925  84.758  0.00  0.00    +0.000 F 
ATOM     20 CL   UNL     1     104.573 129.010  81.572  0.00  0.00    +0.000 Cl
ENDBRANCH  12  15
ENDBRANCH   1  12
TORSDOF 4
ENDMDL
