MODEL 1
REMARK VINA RESULT:      -4.0      0.000      0.000
REMARK  Name = *****
REMARK  3 active torsions:
REMARK  status: ('A' for Active; 'I' for Inactive)
REMARK    1  A    between atoms: C_4  and  C_6
REMARK    2  A    between atoms: C_6  and  C_7
REMARK    3  A    between atoms: C_7  and  C_8
REMARK                            x       y       z     vdW  Elec       q    Type
REMARK                         _______ _______ _______ _____ _____    ______ ____
ROOT
ATOM      1  C   UNL     1      98.012 116.676  78.908  0.00  0.00    +0.000 C 
ENDROOT
BRANCH   1   5
ATOM      2  C   UNL     1      95.413 113.955  78.453  0.00  0.00    +0.000 C 
ATOM      3  C   UNL     1      95.787 114.256  77.001  0.00  0.00    +0.000 C 
ATOM      4  C   UNL     1      96.729 115.455  77.048  0.00  0.00    +0.000 C 
ATOM      5  C   UNL     1      97.361 115.375  78.435  0.00  0.00    +0.000 C 
ATOM      6  C   UNL     1      96.175 114.964  79.305  0.00  0.00    +0.000 C 
ENDBRANCH   1   5
BRANCH   1   7
ATOM      7  C   UNL     1      97.021 117.603  79.620  0.00  0.00    +0.000 C 
BRANCH   7   8
ATOM      8  C   UNL     1      97.538 118.080  80.940  0.00  0.00    +0.000 C 
ATOM      9  C   UNL     1      97.342 117.504  82.133  0.00  0.00    +0.000 C 
ATOM     10  C   UNL     1      97.996 118.268  83.235  0.00  0.00    +0.000 C 
ATOM     11  C   UNL     1      98.921 119.222  82.483  0.00  0.00    +0.000 C 
ATOM     12  C   UNL     1      98.368 119.321  81.061  0.00  0.00    +0.000 C 
ENDBRANCH   7   8
ENDBRANCH   1   7
TORSDOF 3
ENDMDL
