MODEL 1
REMARK VINA RESULT:      -4.8      0.000      0.000
REMARK  Name = *****
REMARK  2 active torsions:
REMARK  status: ('A' for Active; 'I' for Inactive)
REMARK    1  A    between atoms: C_4  and  C_7
REMARK    2  A    between atoms: C_8  and  C_9
REMARK                            x       y       z     vdW  Elec       q    Type
REMARK                         _______ _______ _______ _____ _____    ______ ____
ROOT
ATOM      1  C   UNL     1     102.816 125.594  81.839  0.00  0.00    +0.000 C 
ATOM      2  C   UNL     1     101.988 126.367  82.238  0.00  0.00    +0.000 C 
ENDROOT
BRANCH   2   3
ATOM      3  C   UNL     1     101.005 127.291  82.713  0.00  0.00    +0.000 A 
ATOM      4  C   UNL     1     101.402 128.428  83.423  0.00  0.00    +0.000 A 
ATOM      5  C   UNL     1     100.443 129.333  83.890  0.00  0.00    +0.000 A 
ATOM      6  C   UNL     1      99.087 129.104  83.649  0.00  0.00    +0.000 A 
ATOM      7  C   UNL     1      98.688 127.972  82.941  0.00  0.00    +0.000 A 
ATOM      8  C   UNL     1      99.647 127.074  82.477  0.00  0.00    +0.000 A 
ATOM      9  F   UNL     1      99.237 125.990  81.799  0.00  0.00    +0.000 F 
ENDBRANCH   2   3
BRANCH   1  13
ATOM     10  C   UNL     1     105.750 122.900  80.435  0.00  0.00    +0.000 A 
ATOM     11  C   UNL     1     105.363 123.983  79.645  0.00  0.00    +0.000 A 
ATOM     12  C   UNL     1     104.393 124.874  80.108  0.00  0.00    +0.000 A 
ATOM     13  C   UNL     1     103.809 124.682  81.362  0.00  0.00    +0.000 A 
ATOM     14  C   UNL     1     104.197 123.596  82.151  0.00  0.00    +0.000 A 
ATOM     15  C   UNL     1     105.167 122.707  81.687  0.00  0.00    +0.000 A 
ENDBRANCH   1  13
TORSDOF 2
ENDMDL
