REMARK  Name = *****
REMARK  4 active torsions:
REMARK  status: ('A' for Active; 'I' for Inactive)
REMARK    1  A    between atoms: C_4  and  C_7
REMARK    2  A    between atoms: C_7  and  O_9
REMARK    3  A    between atoms: O_9  and  C_10
REMARK    4  A    between atoms: C_10  and  C_11
REMARK                            x       y       z     vdW  Elec       q    Type
REMARK                         _______ _______ _______ _____ _____    ______ ____
ROOT
ATOM      1  O   UNL     1      -3.729  -0.421  -0.471  0.00  0.00    +0.000 OA
ENDROOT
BRANCH   1   2
ATOM      2  C   UNL     1      -2.896   0.643  -0.380  0.00  0.00    +0.000 C 
ATOM      3  O   UNL     1      -3.229   1.818  -0.394  0.00  0.00    +0.000 OA
BRANCH   2   7
ATOM      4  C   UNL     1       1.203  -0.558  -0.005  0.00  0.00    +0.000 A 
ATOM      5  C   UNL     1       0.858   0.792  -0.051  0.00  0.00    +0.000 A 
ATOM      6  C   UNL     1      -0.481   1.166  -0.174  0.00  0.00    +0.000 A 
ATOM      7  C   UNL     1      -1.484   0.190  -0.253  0.00  0.00    +0.000 A 
ATOM      8  C   UNL     1      -1.130  -1.166  -0.204  0.00  0.00    +0.000 A 
ATOM      9  C   UNL     1       0.211  -1.536  -0.081  0.00  0.00    +0.000 A 
ENDBRANCH   2   7
ENDBRANCH   1   2
BRANCH   1  10
ATOM     10  C   UNL     1      -5.125  -0.115  -0.570  0.00  0.00    +0.000 C 
BRANCH  10  11
ATOM     11  C   UNL     1      -5.753  -0.168   0.800  0.00  0.00    +0.000 A 
ATOM     12  C   UNL     1      -6.085  -1.376   1.434  0.00  0.00    +0.000 A 
ATOM     13  C   UNL     1      -6.647  -1.376   2.715  0.00  0.00    +0.000 A 
ATOM     14  C   UNL     1      -6.874  -0.173   3.384  0.00  0.00    +0.000 A 
ATOM     15  C   UNL     1      -6.534   1.030   2.771  0.00  0.00    +0.000 A 
ATOM     16  C   UNL     1      -5.975   1.037   1.493  0.00  0.00    +0.000 A 
ATOM     17 CL   UNL     1      -6.802   2.514   3.597  0.00  0.00    +0.000 Cl
ATOM     18 CL   UNL     1      -5.817  -2.907   0.679  0.00  0.00    +0.000 Cl
ENDBRANCH  10  11
ENDBRANCH   1  10
TORSDOF 4
