MODEL 1
REMARK VINA RESULT:      -4.7      0.000      0.000
REMARK  Name = *****
REMARK  2 active torsions:
REMARK  status: ('A' for Active; 'I' for Inactive)
REMARK    1  A    between atoms: C_4  and  C_6
REMARK    2  A    between atoms: C_7  and  C_8
REMARK                            x       y       z     vdW  Elec       q    Type
REMARK                         _______ _______ _______ _____ _____    ______ ____
ROOT
ATOM      1  C   UNL     1     101.280 127.092  82.528  0.00  0.00    +0.000 A 
ATOM      2  C   UNL     1     101.802 128.217  83.187  0.00  0.00    +0.000 A 
ATOM      3  C   UNL     1     100.969 129.161  83.784  0.00  0.00    +0.000 A 
ATOM      4  C   UNL     1      99.594 129.007  83.725  0.00  0.00    +0.000 A 
ATOM      5  C   UNL     1      99.051 127.915  83.066  0.00  0.00    +0.000 A 
ATOM      6  C   UNL     1      99.884 126.970  82.467  0.00  0.00    +0.000 A 
ATOM      7  F   UNL     1      99.317 125.945  81.815  0.00  0.00    +0.000 F 
ATOM      8  F   UNL     1      97.721 127.769  82.996  0.00  0.00    +0.000 F 
ATOM      9  F   UNL     1      98.790 129.914  84.298  0.00  0.00    +0.000 F 
ATOM     10  F   UNL     1     101.500 130.220  84.411  0.00  0.00    +0.000 F 
ATOM     11  F   UNL     1     103.132 128.397  83.252  0.00  0.00    +0.000 F 
ENDROOT
BRANCH   1  13
ATOM     12  C   UNL     1     102.976 125.257  82.558  0.00  0.00    +0.000 C 
ATOM     13  C   UNL     1     102.217 126.145  81.894  0.00  0.00    +0.000 C 
BRANCH  12  17
ATOM     14  C   UNL     1     105.231 123.254  80.329  0.00  0.00    +0.000 A 
ATOM     15  C   UNL     1     105.500 122.533  81.467  0.00  0.00    +0.000 A 
ATOM     16  S   UNL     1     104.642 123.127  82.817  0.00  0.00    +0.000 S 
ATOM     17  C   UNL     1     103.881 124.375  81.893  0.00  0.00    +0.000 A 
ATOM     18  C   UNL     1     104.304 124.310  80.574  0.00  0.00    +0.000 A 
ENDBRANCH  12  17
ENDBRANCH   1  13
TORSDOF 2
ENDMDL
