MODEL 1
REMARK VINA RESULT:      -5.1      0.000      0.000
REMARK  Name = *****
REMARK  2 active torsions:
REMARK  status: ('A' for Active; 'I' for Inactive)
REMARK    1  A    between atoms: C_6  and  C_7
REMARK    2  A    between atoms: C_8  and  C_9
REMARK                            x       y       z     vdW  Elec       q    Type
REMARK                         _______ _______ _______ _____ _____    ______ ____
ROOT
ATOM      1  C   UNL     1     102.991 125.902  82.371  0.00  0.00    +0.000 C 
ATOM      2  C   UNL     1     101.651 125.981  82.316  0.00  0.00    +0.000 C 
ENDROOT
BRANCH   2   3
ATOM      3  C   UNL     1     100.880 127.159  82.742  0.00  0.00    +0.000 A 
ATOM      4  C   UNL     1      99.491 127.275  82.571  0.00  0.00    +0.000 A 
ATOM      5  C   UNL     1      98.795 128.395  83.017  0.00  0.00    +0.000 A 
ATOM      6  C   UNL     1      99.493 129.413  83.652  0.00  0.00    +0.000 A 
ATOM      7  C   UNL     1     100.866 129.324  83.849  0.00  0.00    +0.000 A 
ATOM      8  C   UNL     1     101.559 128.196  83.400  0.00  0.00    +0.000 A 
ATOM      9  F   UNL     1      98.834 130.495  84.086  0.00  0.00    +0.000 F 
ATOM     10  F   UNL     1      98.790 126.295  81.982  0.00  0.00    +0.000 F 
ENDBRANCH   2   3
BRANCH   1  16
ATOM     11  C   UNL     1     104.156 123.721  82.833  0.00  0.00    +0.000 A 
ATOM     12  C   UNL     1     104.914 122.635  82.386  0.00  0.00    +0.000 A 
ATOM     13  C   UNL     1     105.287 122.562  81.049  0.00  0.00    +0.000 A 
ATOM     14  C   UNL     1     104.922 123.557  80.151  0.00  0.00    +0.000 A 
ATOM     15  C   UNL     1     104.163 124.643  80.598  0.00  0.00    +0.000 A 
ATOM     16  C   UNL     1     103.762 124.728  81.940  0.00  0.00    +0.000 A 
ATOM     17  F   UNL     1     106.015 121.523  80.623  0.00  0.00    +0.000 F 
ENDBRANCH   1  16
TORSDOF 2
ENDMDL
