MODEL 1
REMARK VINA RESULT:      -5.0      0.000      0.000
REMARK  Name = *****
REMARK  6 active torsions:
REMARK  status: ('A' for Active; 'I' for Inactive)
REMARK    1  A    between atoms: C_1  and  C_2
REMARK    2  A    between atoms: C_4  and  C_18
REMARK    3  A    between atoms: C_6  and  S_8
REMARK    4  A    between atoms: S_8  and  N_9
REMARK    5  A    between atoms: S_8  and  C_17
REMARK    6  A    between atoms: N_9  and  C_10
REMARK                            x       y       z     vdW  Elec       q    Type
REMARK                         _______ _______ _______ _____ _____    ______ ____
ROOT
ATOM      1  S   UNL     1      89.107  69.453  85.808  0.00  0.00    +0.000 S 
ATOM      2  O   UNL     1      88.102  69.165  84.799  0.00  0.00    +0.000 OA
ATOM      3  C   UNL     1      90.207  70.635  85.065  0.00  0.00    +0.000 C 
ENDROOT
BRANCH   1   9
ATOM      4  C   UNL     1      84.864  72.082  87.429  0.00  0.00    +0.000 C 
ATOM      5  C   UNL     1      86.201  71.489  87.765  0.00  0.00    +0.000 A 
ATOM      6  C   UNL     1      86.747  71.644  89.046  0.00  0.00    +0.000 A 
ATOM      7  C   UNL     1      88.011  71.126  89.362  0.00  0.00    +0.000 A 
ATOM      8  C   UNL     1      88.750  70.467  88.371  0.00  0.00    +0.000 A 
ATOM      9  C   UNL     1      88.209  70.311  87.091  0.00  0.00    +0.000 A 
ATOM     10  C   UNL     1      86.949  70.833  86.782  0.00  0.00    +0.000 A 
ATOM     11  C   UNL     1      88.598  71.345  90.726  0.00  0.00    +0.000 C 
ENDBRANCH   1   9
BRANCH   1  12
ATOM     12  N   UNL     1      89.979  68.371  86.473  0.00  0.00    +0.000 NA
BRANCH  12  13
ATOM     13  C   UNL     1      90.002  66.958  86.281  0.00  0.00    +0.000 A 
ATOM     14  C   UNL     1      90.946  66.249  85.539  0.00  0.00    +0.000 A 
ATOM     15  C   UNL     1      90.863  64.855  85.428  0.00  0.00    +0.000 A 
ATOM     16  C   UNL     1      89.836  64.160  86.063  0.00  0.00    +0.000 A 
ATOM     17  C   UNL     1      88.892  64.857  86.811  0.00  0.00    +0.000 A 
ATOM     18  C   UNL     1      88.980  66.247  86.919  0.00  0.00    +0.000 A 
ENDBRANCH  12  13
ENDBRANCH   1  12
TORSDOF 3
ENDMDL
