REMARK  Name = *****
REMARK  3 active torsions:
REMARK  status: ('A' for Active; 'I' for Inactive)
REMARK    1  A    between atoms: C_4  and  C_7
REMARK    2  A    between atoms: C_8  and  C_16
REMARK    3  A    between atoms: C_9  and  C_10
REMARK                            x       y       z     vdW  Elec       q    Type
REMARK                         _______ _______ _______ _____ _____    ______ ____
ROOT
ATOM      1  C   UNL     1      -2.842   0.509  -0.185  0.00  0.00    +0.000 C 
ATOM      2  C   UNL     1      -3.820  -0.053   0.824  0.00  0.00    +0.000 C 
ATOM      3  C   UNL     1      -3.776  -0.629  -0.573  0.00  0.00    +0.000 C 
ENDROOT
BRANCH   1   7
ATOM      4  C   UNL     1       1.410  -0.192   0.303  0.00  0.00    +0.000 A 
ATOM      5  C   UNL     1       0.758  -0.635  -0.843  0.00  0.00    +0.000 A 
ATOM      6  C   UNL     1      -0.612  -0.410  -0.999  0.00  0.00    +0.000 A 
ATOM      7  C   UNL     1      -1.362   0.252  -0.014  0.00  0.00    +0.000 A 
ATOM      8  C   UNL     1      -0.677   0.701   1.128  0.00  0.00    +0.000 A 
ATOM      9  C   UNL     1       0.693   0.479   1.289  0.00  0.00    +0.000 A 
ENDBRANCH   1   7
BRANCH   3  10
ATOM     10  C   UNL     1      -4.869  -0.391  -1.591  0.00  0.00    +0.000 A 
ATOM     11  C   UNL     1      -4.604   0.245  -2.816  0.00  0.00    +0.000 A 
ATOM     12  C   UNL     1      -5.608   0.449  -3.766  0.00  0.00    +0.000 A 
ATOM     13  C   UNL     1      -6.904   0.010  -3.514  0.00  0.00    +0.000 A 
ATOM     14  C   UNL     1      -7.191  -0.637  -2.316  0.00  0.00    +0.000 A 
ATOM     15  C   UNL     1      -6.183  -0.839  -1.370  0.00  0.00    +0.000 A 
ENDBRANCH   3  10
BRANCH   2  16
ATOM     16  C   UNL     1      -4.892   0.791   1.270  0.00  0.00    +0.000 C 
ATOM     17  N   UNL     1      -5.748   1.469   1.661  0.00  0.00    +0.000 NA
ENDBRANCH   2  16
TORSDOF 3
