MODEL 1
REMARK VINA RESULT:      -4.7      0.000      0.000
REMARK  Name = *****
REMARK  3 active torsions:
REMARK  status: ('A' for Active; 'I' for Inactive)
REMARK    1  A    between atoms: C_1  and  C_2
REMARK    2  A    between atoms: C_5  and  C_8
REMARK    3  A    between atoms: N_9  and  C_10
REMARK                            x       y       z     vdW  Elec       q    Type
REMARK                         _______ _______ _______ _____ _____    ______ ____
ROOT
ATOM      1  C   UNL     1     102.539 126.020  81.862  0.00  0.00    +0.000 C 
ATOM      2  N   UNL     1     101.738 125.948  82.878  0.00  0.00    +0.000 NA
ENDROOT
BRANCH   1   7
ATOM      3  C   UNL     1     106.500 121.939  80.846  0.00  0.00    +0.000 C 
ATOM      4  C   UNL     1     105.449 122.982  81.098  0.00  0.00    +0.000 A 
ATOM      5  C   UNL     1     105.048 123.842  80.068  0.00  0.00    +0.000 A 
ATOM      6  C   UNL     1     104.095 124.835  80.307  0.00  0.00    +0.000 A 
ATOM      7  C   UNL     1     103.547 124.978  81.584  0.00  0.00    +0.000 A 
ATOM      8  C   UNL     1     103.951 124.137  82.621  0.00  0.00    +0.000 A 
ATOM      9  C   UNL     1     104.904 123.145  82.379  0.00  0.00    +0.000 A 
ENDBRANCH   1   7
BRANCH   2  10
ATOM     10  C   UNL     1     100.829 127.005  83.022  0.00  0.00    +0.000 A 
ATOM     11  C   UNL     1     101.226 128.210  83.606  0.00  0.00    +0.000 A 
ATOM     12  C   UNL     1     100.316 129.256  83.727  0.00  0.00    +0.000 A 
ATOM     13  C   UNL     1      99.009 129.119  83.258  0.00  0.00    +0.000 A 
ATOM     14  C   UNL     1      98.613 127.923  82.658  0.00  0.00    +0.000 A 
ATOM     15  C   UNL     1      99.524 126.873  82.538  0.00  0.00    +0.000 A 
ATOM     16 CL   UNL     1     100.805 130.735  84.460  0.00  0.00    +0.000 Cl
ENDBRANCH   2  10
TORSDOF 2
ENDMDL
