MODEL 1
REMARK VINA RESULT:      -4.8      0.000      0.000
REMARK  Name = *****
REMARK  5 active torsions:
REMARK  status: ('A' for Active; 'I' for Inactive)
REMARK    1  A    between atoms: C_1  and  C_2
REMARK    2  A    between atoms: C_3  and  C_17
REMARK    3  A    between atoms: C_4  and  O_8
REMARK    4  A    between atoms: O_8  and  C_9
REMARK    5  A    between atoms: C_9  and  C_11
REMARK                            x       y       z     vdW  Elec       q    Type
REMARK                         _______ _______ _______ _____ _____    ______ ____
ROOT
ATOM      1  O   UNL     1     102.524 126.698  82.908  0.00  0.00    +0.000 OA
ENDROOT
BRANCH   1   5
ATOM      2  C   UNL     1      99.618 130.565  84.067  0.00  0.00    +0.000 C 
ATOM      3  C   UNL     1      99.850 129.188  83.507  0.00  0.00    +0.000 A 
ATOM      4  C   UNL     1     101.133 128.598  83.501  0.00  0.00    +0.000 A 
ATOM      5  C   UNL     1     101.272 127.323  82.925  0.00  0.00    +0.000 A 
ATOM      6  C   UNL     1     100.179 126.609  82.434  0.00  0.00    +0.000 A 
ATOM      7  C   UNL     1      98.916 127.186  82.472  0.00  0.00    +0.000 A 
ATOM      8  C   UNL     1      98.754 128.467  83.002  0.00  0.00    +0.000 A 
ATOM      9  C   UNL     1     102.334 129.335  84.029  0.00  0.00    +0.000 C 
ENDBRANCH   1   5
BRANCH   1  10
ATOM     10  C   UNL     1     103.018 126.472  81.625  0.00  0.00    +0.000 C 
ATOM     11  O   UNL     1     103.128 127.298  80.730  0.00  0.00    +0.000 OA
BRANCH  10  12
ATOM     12  C   UNL     1     103.415 125.007  81.514  0.00  0.00    +0.000 C 
ATOM     13  C   UNL     1     103.924 124.473  82.860  0.00  0.00    +0.000 C 
ATOM     14  C   UNL     1     104.388 123.023  82.751  0.00  0.00    +0.000 C 
ATOM     15  C   UNL     1     105.438 122.851  81.658  0.00  0.00    +0.000 C 
ATOM     16  C   UNL     1     104.942 123.381  80.316  0.00  0.00    +0.000 C 
ATOM     17  C   UNL     1     104.471 124.830  80.418  0.00  0.00    +0.000 C 
ENDBRANCH  10  12
ENDBRANCH   1  10
TORSDOF 3
ENDMDL
