MODEL 1
REMARK VINA RESULT:      -4.9      0.000      0.000
REMARK  Name = *****
REMARK  3 active torsions:
REMARK  status: ('A' for Active; 'I' for Inactive)
REMARK    1  A    between atoms: C_4  and  C_7
REMARK    2  A    between atoms: C_8  and  C_9
REMARK    3  A    between atoms: C_14  and  N_15
REMARK                            x       y       z     vdW  Elec       q    Type
REMARK                         _______ _______ _______ _____ _____    ______ ____
ROOT
ATOM      1  C   UNL     1     101.215 127.970  83.152  0.00  0.00    +0.000 A 
ATOM      2  C   UNL     1     101.818 129.005  83.879  0.00  0.00    +0.000 A 
ATOM      3  C   UNL     1     101.049 130.056  84.378  0.00  0.00    +0.000 A 
ATOM      4  C   UNL     1      99.676 130.084  84.147  0.00  0.00    +0.000 A 
ATOM      5  C   UNL     1      99.069 129.057  83.423  0.00  0.00    +0.000 A 
ATOM      6  C   UNL     1      99.822 127.977  82.932  0.00  0.00    +0.000 A 
ENDROOT
BRANCH   6   7
ATOM      7  N   UNL     1      99.162 126.982  82.180  0.00  0.00    +0.000 NA
ATOM      8  C   UNL     1      98.153 126.650  82.681  0.00  0.00    +0.000 C 
ATOM      9  O   UNL     1      97.136 126.320  83.171  0.00  0.00    +0.000 OA
ENDBRANCH   6   7
BRANCH   1  11
ATOM     10  C   UNL     1     102.736 126.026  82.229  0.00  0.00    +0.000 C 
ATOM     11  C   UNL     1     102.044 126.916  82.643  0.00  0.00    +0.000 C 
BRANCH  10  15
ATOM     12  C   UNL     1     104.949 122.673  80.695  0.00  0.00    +0.000 C 
ATOM     13  C   UNL     1     105.152 124.020  80.011  0.00  0.00    +0.000 C 
ATOM     14  C   UNL     1     103.984 124.966  80.300  0.00  0.00    +0.000 C 
ATOM     15  C   UNL     1     103.559 124.965  81.748  0.00  0.00    +0.000 C 
ATOM     16  C   UNL     1     103.951 124.004  82.603  0.00  0.00    +0.000 C 
ATOM     17  C   UNL     1     104.809 122.838  82.209  0.00  0.00    +0.000 C 
ENDBRANCH  10  15
ENDBRANCH   1  11
TORSDOF 3
ENDMDL
