MODEL 1
REMARK VINA RESULT:      -4.3      0.000      0.000
REMARK  Name = *****
REMARK  4 active torsions:
REMARK  status: ('A' for Active; 'I' for Inactive)
REMARK    1  A    between atoms: C_4  and  C_7
REMARK    2  A    between atoms: C_4  and  S_9
REMARK    3  A    between atoms: S_9  and  C_10
REMARK    4  A    between atoms: C_10  and  C_11
REMARK                            x       y       z     vdW  Elec       q    Type
REMARK                         _______ _______ _______ _____ _____    ______ ____
ROOT
ATOM      1  C   UNL     1      98.937 130.734  85.271  0.00  0.00    +0.000 C 
ATOM      2  C   UNL     1      99.463 130.626  83.845  0.00  0.00    +0.000 C 
ATOM      3  C   UNL     1     100.252 129.332  83.620  0.00  0.00    +0.000 C 
ATOM      4  C   UNL     1      99.466 128.072  84.029  0.00  0.00    +0.000 C 
ATOM      5  C   UNL     1      98.899 128.218  85.457  0.00  0.00    +0.000 C 
ATOM      6  C   UNL     1      98.108 129.513  85.648  0.00  0.00    +0.000 C 
ENDROOT
BRANCH   4   7
ATOM      7  C   UNL     1      98.318 127.763  83.066  0.00  0.00    +0.000 C 
ATOM      8  O   UNL     1      98.426 127.075  82.054  0.00  0.00    +0.000 OA
ENDBRANCH   4   7
BRANCH   4   9
ATOM      9  S   UNL     1     100.566 126.575  84.046  0.00  0.00    +0.000 S 
BRANCH   9  10
ATOM     10  C   UNL     1     102.196 127.326  83.696  0.00  0.00    +0.000 C 
BRANCH  10  11
ATOM     11  C   UNL     1     102.816 126.708  82.466  0.00  0.00    +0.000 A 
ATOM     12  C   UNL     1     103.103 127.492  81.339  0.00  0.00    +0.000 A 
ATOM     13  C   UNL     1     103.669 126.917  80.200  0.00  0.00    +0.000 A 
ATOM     14  C   UNL     1     103.950 125.553  80.173  0.00  0.00    +0.000 A 
ATOM     15  C   UNL     1     103.662 124.760  81.283  0.00  0.00    +0.000 A 
ATOM     16  C   UNL     1     103.096 125.333  82.423  0.00  0.00    +0.000 A 
ENDBRANCH  10  11
ENDBRANCH   9  10
ENDBRANCH   4   9
TORSDOF 4
ENDMDL
