MODEL 1
REMARK VINA RESULT:      -4.5      0.000      0.000
REMARK  Name = *****
REMARK  5 active torsions:
REMARK  status: ('A' for Active; 'I' for Inactive)
REMARK    1  A    between atoms: C_1  and  O_2
REMARK    2  A    between atoms: O_2  and  C_3
REMARK    3  A    between atoms: C_3  and  C_12
REMARK    4  A    between atoms: C_4  and  C_5
REMARK    5  A    between atoms: C_5  and  C_6
REMARK                            x       y       z     vdW  Elec       q    Type
REMARK                         _______ _______ _______ _____ _____    ______ ____
ROOT
ATOM      1  C   UNL     1     101.355 126.315  82.824  0.00  0.00    +0.000 C 
ATOM      2  C   UNL     1     100.164 126.806  82.443  0.00  0.00    +0.000 C 
ENDROOT
BRANCH   1   3
ATOM      3  C   UNL     1     102.497 126.253  81.888  0.00  0.00    +0.000 A 
ATOM      4  C   UNL     1     103.159 125.037  81.670  0.00  0.00    +0.000 A 
ATOM      5  C   UNL     1     104.233 124.961  80.780  0.00  0.00    +0.000 A 
ATOM      6  C   UNL     1     104.653 126.100  80.096  0.00  0.00    +0.000 A 
ATOM      7  C   UNL     1     104.000 127.314  80.299  0.00  0.00    +0.000 A 
ATOM      8  C   UNL     1     102.926 127.391  81.189  0.00  0.00    +0.000 A 
ENDBRANCH   1   3
BRANCH   1  10
ATOM      9  C   UNL     1     102.351 126.965  84.824  0.00  0.00    +0.000 C 
ATOM     10  O   UNL     1     101.595 125.964  84.140  0.00  0.00    +0.000 OA
ENDBRANCH   1  10
BRANCH   2  11
ATOM     11  C   UNL     1      98.970 126.971  83.340  0.00  0.00    +0.000 C 
BRANCH  11  12
ATOM     12  C   UNL     1      98.917 128.346  83.963  0.00  0.00    +0.000 A 
ATOM     13  C   UNL     1      99.417 129.457  83.269  0.00  0.00    +0.000 A 
ATOM     14  C   UNL     1      99.390 130.727  83.848  0.00  0.00    +0.000 A 
ATOM     15  C   UNL     1      98.867 130.896  85.129  0.00  0.00    +0.000 A 
ATOM     16  C   UNL     1      98.375 129.799  85.832  0.00  0.00    +0.000 A 
ATOM     17  C   UNL     1      98.402 128.529  85.254  0.00  0.00    +0.000 A 
ENDBRANCH  11  12
ENDBRANCH   2  11
TORSDOF 4
ENDMDL
