MODEL 1
REMARK VINA RESULT:      -4.4      0.000      0.000
REMARK  Name = *****
REMARK  3 active torsions:
REMARK  status: ('A' for Active; 'I' for Inactive)
REMARK    1  A    between atoms: C_4  and  O_7
REMARK    2  A    between atoms: O_7  and  C_8
REMARK    3  A    between atoms: C_8  and  C_10
REMARK                            x       y       z     vdW  Elec       q    Type
REMARK                         _______ _______ _______ _____ _____    ______ ____
ROOT
ATOM      1  C   UNL     1     103.311 126.746  81.622  0.00  0.00    +0.000 C 
ATOM      2  O   UNL     1     103.354 127.485  80.649  0.00  0.00    +0.000 OA
ENDROOT
BRANCH   1   3
ATOM      3  C   UNL     1     103.824 125.347  81.594  0.00  0.00    +0.000 A 
ATOM      4  C   UNL     1     104.242 124.715  80.413  0.00  0.00    +0.000 A 
ATOM      5  C   UNL     1     104.712 123.397  80.448  0.00  0.00    +0.000 A 
ATOM      6  C   UNL     1     104.766 122.710  81.659  0.00  0.00    +0.000 A 
ATOM      7  C   UNL     1     104.353 123.325  82.839  0.00  0.00    +0.000 A 
ATOM      8  C   UNL     1     103.882 124.641  82.806  0.00  0.00    +0.000 A 
ATOM      9 CL   UNL     1     105.345 121.091  81.697  0.00  0.00    +0.000 Cl
ENDBRANCH   1   3
BRANCH   1  10
ATOM     10  O   UNL     1     102.803 127.027  82.858  0.00  0.00    +0.000 OA
BRANCH  10  14
ATOM     11  C   UNL     1      98.733 128.322  82.830  0.00  0.00    +0.000 C 
ATOM     12  C   UNL     1      99.645 128.816  83.950  0.00  0.00    +0.000 C 
ATOM     13  C   UNL     1     101.119 128.723  83.539  0.00  0.00    +0.000 C 
ATOM     14  C   UNL     1     101.448 127.410  82.876  0.00  0.00    +0.000 C 
ATOM     15  C   UNL     1     100.511 126.564  82.421  0.00  0.00    +0.000 C 
ATOM     16  C   UNL     1      99.043 126.869  82.459  0.00  0.00    +0.000 C 
ENDBRANCH  10  14
ENDBRANCH   1  10
TORSDOF 3
ENDMDL
