MODEL 1
REMARK VINA RESULT:      -4.8      0.000      0.000
REMARK  Name = *****
REMARK  5 active torsions:
REMARK  status: ('A' for Active; 'I' for Inactive)
REMARK    1  A    between atoms: C_1  and  C_2
REMARK    2  A    between atoms: N_3  and  C_19
REMARK    3  A    between atoms: C_10  and  C_11
REMARK    4  A    between atoms: C_10  and  C_12
REMARK    5  A    between atoms: C_12  and  C_13
REMARK                            x       y       z     vdW  Elec       q    Type
REMARK                         _______ _______ _______ _____ _____    ______ ____
ROOT
ATOM      1  C   UNL     1      86.398  71.278  87.226  0.00  0.00    +0.000 C 
ATOM      2  C   UNL     1      87.180  70.033  86.999  0.00  0.00    +0.000 C 
ATOM      3  N   UNL     1      86.812  68.887  87.486  0.00  0.00    +0.000 N 
ATOM      4  C   UNL     1      87.780  67.910  87.179  0.00  0.00    +0.000 A 
ATOM      5  C   UNL     1      87.785  66.567  87.518  0.00  0.00    +0.000 A 
ATOM      6  C   UNL     1      88.885  65.803  87.113  0.00  0.00    +0.000 A 
ATOM      7  C   UNL     1      89.941  66.386  86.393  0.00  0.00    +0.000 A 
ATOM      8  C   UNL     1      89.918  67.741  86.057  0.00  0.00    +0.000 A 
ATOM      9  C   UNL     1      88.822  68.490  86.454  0.00  0.00    +0.000 A 
ATOM     10  C   UNL     1      88.500  69.943  86.227  0.00  0.00    +0.000 C 
ATOM     11  C   UNL     1      89.556  70.836  86.888  0.00  0.00    +0.000 C 
ATOM     12  C   UNL     1      85.620  68.522  88.264  0.00  0.00    +0.000 C 
ENDROOT
BRANCH  10  13
ATOM     13  C   UNL     1      88.326  70.311  84.732  0.00  0.00    +0.000 C 
BRANCH  13  14
ATOM     14  C   UNL     1      89.398  71.220  84.166  0.00  0.00    +0.000 A 
ATOM     15  C   UNL     1      89.160  72.594  84.020  0.00  0.00    +0.000 A 
ATOM     16  C   UNL     1      90.130  73.427  83.460  0.00  0.00    +0.000 A 
ATOM     17  C   UNL     1      91.352  72.900  83.051  0.00  0.00    +0.000 A 
ATOM     18  C   UNL     1      91.611  71.541  83.214  0.00  0.00    +0.000 A 
ATOM     19  C   UNL     1      90.642  70.706  83.774  0.00  0.00    +0.000 A 
ENDBRANCH  13  14
ENDBRANCH  10  13
TORSDOF 2
ENDMDL
