MODEL 1
REMARK VINA RESULT:      -5.0      0.000      0.000
REMARK  Name = *****
REMARK  5 active torsions:
REMARK  status: ('A' for Active; 'I' for Inactive)
REMARK    1  A    between atoms: C_1  and  C_2
REMARK    2  A    between atoms: C_5  and  C_8
REMARK    3  A    between atoms: C_9  and  C_10
REMARK    4  A    between atoms: C_15  and  C_16
REMARK    5  A    between atoms: C_16  and  C_18
REMARK                            x       y       z     vdW  Elec       q    Type
REMARK                         _______ _______ _______ _____ _____    ______ ____
ROOT
ATOM      1  C   UNL     1     102.429 126.655  82.687  0.00  0.00    +0.000 C 
ATOM      2  C   UNL     1     101.797 127.576  83.128  0.00  0.00    +0.000 C 
ENDROOT
BRANCH   1   7
ATOM      3  C   UNL     1     105.503 122.307  80.554  0.00  0.00    +0.000 C 
ATOM      4  C   UNL     1     104.674 123.429  81.106  0.00  0.00    +0.000 A 
ATOM      5  C   UNL     1     104.237 124.464  80.272  0.00  0.00    +0.000 A 
ATOM      6  C   UNL     1     103.493 125.526  80.792  0.00  0.00    +0.000 A 
ATOM      7  C   UNL     1     103.188 125.567  82.153  0.00  0.00    +0.000 A 
ATOM      8  C   UNL     1     103.632 124.546  82.994  0.00  0.00    +0.000 A 
ATOM      9  C   UNL     1     104.377 123.484  82.474  0.00  0.00    +0.000 A 
ENDBRANCH   1   7
BRANCH   2  10
ATOM     10  C   UNL     1     101.043 128.670  83.666  0.00  0.00    +0.000 A 
ATOM     11  C   UNL     1     101.750 129.779  84.149  0.00  0.00    +0.000 A 
ATOM     12  C   UNL     1     101.072 130.903  84.628  0.00  0.00    +0.000 A 
ATOM     13  C   UNL     1      99.680 130.933  84.620  0.00  0.00    +0.000 A 
ATOM     14  C   UNL     1      98.965 129.835  84.143  0.00  0.00    +0.000 A 
ATOM     15  C   UNL     1      99.640 128.694  83.680  0.00  0.00    +0.000 A 
BRANCH  15  16
ATOM     16  C   UNL     1      98.795 127.568  83.209  0.00  0.00    +0.000 C 
ATOM     17  O   UNL     1      98.451 127.530  82.028  0.00  0.00    +0.000 OA
ATOM     18  C   UNL     1      98.322 126.542  84.202  0.00  0.00    +0.000 C 
ENDBRANCH  15  16
ENDBRANCH   2  10
TORSDOF 3
ENDMDL
