MODEL 1
REMARK VINA RESULT:      -4.4      0.000      0.000
REMARK  Name = *****
REMARK  4 active torsions:
REMARK  status: ('A' for Active; 'I' for Inactive)
REMARK    1  A    between atoms: C_1  and  C_2
REMARK    2  A    between atoms: C_4  and  C_8
REMARK    3  A    between atoms: C_8  and  C_17
REMARK    4  A    between atoms: N_9  and  C_10
REMARK                            x       y       z     vdW  Elec       q    Type
REMARK                         _______ _______ _______ _____ _____    ______ ____
ROOT
ATOM      1  C   UNL     1      89.680  69.964  85.228  0.00  0.00    +0.000 C 
ATOM      2  N   UNL     1      89.840  68.761  84.757  0.00  0.00    +0.000 NA
ATOM      3  C   UNL     1      90.458  71.078  84.566  0.00  0.00    +0.000 C 
ENDROOT
BRANCH   1   7
ATOM      4  C   UNL     1      85.328  71.753  86.953  0.00  0.00    +0.000 C 
ATOM      5  C   UNL     1      86.720  71.252  87.197  0.00  0.00    +0.000 A 
ATOM      6  C   UNL     1      87.533  70.869  86.124  0.00  0.00    +0.000 A 
ATOM      7  C   UNL     1      88.812  70.358  86.364  0.00  0.00    +0.000 A 
ATOM      8  C   UNL     1      89.296  70.231  87.668  0.00  0.00    +0.000 A 
ATOM      9  C   UNL     1      88.483  70.601  88.739  0.00  0.00    +0.000 A 
ATOM     10  C   UNL     1      87.201  71.102  88.505  0.00  0.00    +0.000 A 
ENDBRANCH   1   7
BRANCH   2  11
ATOM     11  C   UNL     1      89.202  67.662  85.343  0.00  0.00    +0.000 A 
ATOM     12  C   UNL     1      87.924  67.299  84.907  0.00  0.00    +0.000 A 
ATOM     13  C   UNL     1      87.275  66.193  85.460  0.00  0.00    +0.000 A 
ATOM     14  C   UNL     1      87.918  65.442  86.437  0.00  0.00    +0.000 A 
ATOM     15  C   UNL     1      89.200  65.770  86.863  0.00  0.00    +0.000 A 
ATOM     16  C   UNL     1      89.845  66.876  86.308  0.00  0.00    +0.000 A 
ATOM     17  F   UNL     1      87.297  64.381  86.968  0.00  0.00    +0.000 F 
ENDBRANCH   2  11
TORSDOF 2
ENDMDL
