MODEL 1
REMARK VINA RESULT:      -4.6      0.000      0.000
REMARK  Name = *****
REMARK  3 active torsions:
REMARK  status: ('A' for Active; 'I' for Inactive)
REMARK    1  A    between atoms: C_4  and  C_7
REMARK    2  A    between atoms: C_7  and  C_9
REMARK    3  A    between atoms: C_9  and  C_10
REMARK                            x       y       z     vdW  Elec       q    Type
REMARK                         _______ _______ _______ _____ _____    ______ ____
ROOT
ATOM      1  C   UNL     1      88.640  70.042  87.246  0.00  0.00    +0.000 C 
ENDROOT
BRANCH   1   2
ATOM      2  C   UNL     1      88.858  68.560  87.026  0.00  0.00    +0.000 A 
ATOM      3  C   UNL     1      87.930  67.586  87.437  0.00  0.00    +0.000 A 
ATOM      4  C   UNL     1      88.157  66.227  87.190  0.00  0.00    +0.000 A 
ATOM      5  C   UNL     1      89.307  65.829  86.517  0.00  0.00    +0.000 A 
ATOM      6  C   UNL     1      90.227  66.773  86.077  0.00  0.00    +0.000 A 
ATOM      7  C   UNL     1      90.000  68.129  86.322  0.00  0.00    +0.000 A 
ATOM      8 CL   UNL     1      89.585  64.159  86.213  0.00  0.00    +0.000 Cl
ATOM      9 CL   UNL     1      86.468  68.000  88.258  0.00  0.00    +0.000 Cl
ENDBRANCH   1   2
BRANCH   1  10
ATOM     10  C   UNL     1      87.827  70.718  86.156  0.00  0.00    +0.000 C 
ATOM     11  O   UNL     1      88.245  70.761  84.998  0.00  0.00    +0.000 OA
BRANCH  10  15
ATOM     12  C   UNL     1      84.080  72.537  87.228  0.00  0.00    +0.000 A 
ATOM     13  C   UNL     1      84.410  72.401  85.881  0.00  0.00    +0.000 A 
ATOM     14  C   UNL     1      85.624  71.815  85.508  0.00  0.00    +0.000 A 
ATOM     15  C   UNL     1      86.515  71.360  86.486  0.00  0.00    +0.000 A 
ATOM     16  C   UNL     1      86.174  71.501  87.839  0.00  0.00    +0.000 A 
ATOM     17  C   UNL     1      84.962  72.088  88.208  0.00  0.00    +0.000 A 
ENDBRANCH  10  15
ENDBRANCH   1  10
TORSDOF 3
ENDMDL
