MODEL 1
REMARK VINA RESULT:      -4.8      0.000      0.000
REMARK  Name = *****
REMARK  4 active torsions:
REMARK  status: ('A' for Active; 'I' for Inactive)
REMARK    1  A    between atoms: C_1  and  C_10
REMARK    2  A    between atoms: C_2  and  C_3
REMARK    3  A    between atoms: C_8  and  C_9
REMARK    4  A    between atoms: C_15  and  C_16
REMARK                            x       y       z     vdW  Elec       q    Type
REMARK                         _______ _______ _______ _____ _____    ______ ____
ROOT
ATOM      1  C   UNL     1     103.038 126.173  82.852  0.00  0.00    +0.000 C 
ATOM      2  C   UNL     1     101.706 126.328  82.849  0.00  0.00    +0.000 C 
ENDROOT
BRANCH   2   3
ATOM      3  C   UNL     1     101.055 127.592  83.219  0.00  0.00    +0.000 A 
ATOM      4  C   UNL     1     101.819 128.611  83.811  0.00  0.00    +0.000 A 
ATOM      5  C   UNL     1     101.228 129.815  84.197  0.00  0.00    +0.000 A 
ATOM      6  C   UNL     1      99.866 130.012  84.000  0.00  0.00    +0.000 A 
ATOM      7  C   UNL     1      99.093 129.006  83.419  0.00  0.00    +0.000 A 
ATOM      8  C   UNL     1      99.674 127.789  83.024  0.00  0.00    +0.000 A 
ATOM      9  C   UNL     1      98.805 126.733  82.396  0.00  0.00    +0.000 C 
ENDBRANCH   2   3
BRANCH   1  10
ATOM     10  C   UNL     1     103.665 124.902  82.473  0.00  0.00    +0.000 A 
ATOM     11  C   UNL     1     103.901 123.963  83.489  0.00  0.00    +0.000 A 
ATOM     12  C   UNL     1     104.481 122.730  83.195  0.00  0.00    +0.000 A 
ATOM     13  C   UNL     1     104.828 122.422  81.882  0.00  0.00    +0.000 A 
ATOM     14  C   UNL     1     104.599 123.349  80.865  0.00  0.00    +0.000 A 
ATOM     15  C   UNL     1     104.027 124.600  81.146  0.00  0.00    +0.000 A 
ATOM     16  C   UNL     1     103.788 125.566  80.018  0.00  0.00    +0.000 C 
ENDBRANCH   1  10
TORSDOF 2
ENDMDL
