MODEL 1
REMARK VINA RESULT:      -4.2      0.000      0.000
REMARK  Name = *****
REMARK  3 active torsions:
REMARK  status: ('A' for Active; 'I' for Inactive)
REMARK    1  A    between atoms: C_4  and  C_6
REMARK    2  A    between atoms: C_7  and  C_8
REMARK    3  A    between atoms: C_11  and  C_14
REMARK                            x       y       z     vdW  Elec       q    Type
REMARK                         _______ _______ _______ _____ _____    ______ ____
ROOT
ATOM      1  C   UNL     1     103.706 124.678  81.651  0.00  0.00    +0.000 A 
ATOM      2  C   UNL     1     104.232 124.720  80.357  0.00  0.00    +0.000 A 
ATOM      3  C   UNL     1     105.309 123.899  80.013  0.00  0.00    +0.000 A 
ATOM      4  C   UNL     1     105.865 123.033  80.962  0.00  0.00    +0.000 A 
ATOM      5  C   UNL     1     105.338 122.993  82.257  0.00  0.00    +0.000 A 
ATOM      6  C   UNL     1     104.259 123.816  82.600  0.00  0.00    +0.000 A 
ENDROOT
BRANCH   1   8
ATOM      7  C   UNL     1     101.672 126.213  82.306  0.00  0.00    +0.000 C 
ATOM      8  C   UNL     1     102.602 125.516  82.004  0.00  0.00    +0.000 C 
BRANCH   7  12
ATOM      9  C   UNL     1      98.367 127.784  82.838  0.00  0.00    +0.000 A 
ATOM     10  C   UNL     1      99.040 128.760  83.540  0.00  0.00    +0.000 A 
ATOM     11  S   UNL     1     100.725 128.468  83.587  0.00  0.00    +0.000 S 
ATOM     12  C   UNL     1     100.566 127.035  82.669  0.00  0.00    +0.000 A 
ATOM     13  C   UNL     1      99.252 126.785  82.333  0.00  0.00    +0.000 A 
ENDBRANCH   7  12
ENDBRANCH   1   8
BRANCH   4  14
ATOM     14  C   UNL     1     106.970 122.191  80.608  0.00  0.00    +0.000 C 
ATOM     15  N   UNL     1     107.864 121.509  80.322  0.00  0.00    +0.000 NA
ENDBRANCH   4  14
TORSDOF 3
ENDMDL
