MODEL 1
REMARK VINA RESULT:      -4.5      0.000      0.000
REMARK  Name = *****
REMARK  2 active torsions:
REMARK  status: ('A' for Active; 'I' for Inactive)
REMARK    1  A    between atoms: N_9  and  C_10
REMARK    2  A    between atoms: C_10  and  C_11
REMARK                            x       y       z     vdW  Elec       q    Type
REMARK                         _______ _______ _______ _____ _____    ______ ____
ROOT
ATOM      1  C   UNL     1     105.473 122.156  81.226  0.00  0.00    +0.000 A 
ATOM      2  C   UNL     1     105.103 123.091  80.257  0.00  0.00    +0.000 A 
ATOM      3  C   UNL     1     104.305 124.196  80.579  0.00  0.00    +0.000 A 
ATOM      4  C   UNL     1     103.899 124.318  81.912  0.00  0.00    +0.000 A 
ATOM      5  C   UNL     1     104.252 123.395  82.892  0.00  0.00    +0.000 A 
ATOM      6  C   UNL     1     105.051 122.294  82.554  0.00  0.00    +0.000 A 
ATOM      7  N   UNL     1     103.706 123.764  84.091  0.00  0.00    +0.000 NA
ATOM      8  N   UNL     1     103.017 124.880  83.904  0.00  0.00    +0.000 NA
ATOM      9  N   UNL     1     103.143 125.228  82.607  0.00  0.00    +0.000 N 
ENDROOT
BRANCH   9  10
ATOM     10  C   UNL     1     102.458 126.405  82.103  0.00  0.00    +0.000 C 
BRANCH  10  11
ATOM     11  C   UNL     1     103.404 127.558  81.903  0.00  0.00    +0.000 A 
ATOM     12  C   UNL     1     103.870 127.837  80.612  0.00  0.00    +0.000 A 
ATOM     13  C   UNL     1     104.774 128.865  80.357  0.00  0.00    +0.000 A 
ATOM     14  C   UNL     1     105.240 129.648  81.407  0.00  0.00    +0.000 A 
ATOM     15  C   UNL     1     104.789 129.398  82.702  0.00  0.00    +0.000 A 
ATOM     16  C   UNL     1     103.877 128.362  82.950  0.00  0.00    +0.000 A 
ATOM     17 CL   UNL     1     103.350 128.150  84.581  0.00  0.00    +0.000 Cl
ATOM     18  F   UNL     1     103.428 127.110  79.577  0.00  0.00    +0.000 F 
ENDBRANCH  10  11
ENDBRANCH   9  10
TORSDOF 2
ENDMDL
