MODEL 1
REMARK VINA RESULT:      -4.5      0.000      0.000
REMARK  Name = *****
REMARK  5 active torsions:
REMARK  status: ('A' for Active; 'I' for Inactive)
REMARK    1  A    between atoms: C_1  and  C_2
REMARK    2  A    between atoms: N_6  and  N_7
REMARK    3  A    between atoms: N_9  and  C_10
REMARK    4  A    between atoms: C_10  and  C_11
REMARK    5  A    between atoms: C_11  and  C_12
REMARK                            x       y       z     vdW  Elec       q    Type
REMARK                         _______ _______ _______ _____ _____    ______ ____
ROOT
ATOM      1  C   UNL     1     103.072 128.680  84.767  0.00  0.00    +0.000 C 
ATOM      2  C   UNL     1     101.677 129.007  84.336  0.00  0.00    +0.000 A 
ATOM      3  C   UNL     1     101.112 130.207  84.554  0.00  0.00    +0.000 A 
ATOM      4  S   UNL     1      99.494 130.293  83.934  0.00  0.00    +0.000 S 
ATOM      5  C   UNL     1      99.586 128.597  83.320  0.00  0.00    +0.000 A 
ATOM      6  N   UNL     1      98.530 128.195  82.703  0.00  0.00    +0.000 NA
ATOM      7  N   UNL     1     100.850 128.083  83.663  0.00  0.00    +0.000 N 
ENDROOT
BRANCH   6   8
ATOM      8  N   UNL     1      98.501 126.910  82.188  0.00  0.00    +0.000 NA
ATOM      9  O   UNL     1      97.526 126.283  82.611  0.00  0.00    +0.000 OA
ENDBRANCH   6   8
BRANCH   7  10
ATOM     10  C   UNL     1     101.302 126.744  83.277  0.00  0.00    +0.000 C 
BRANCH  10  11
ATOM     11  C   UNL     1     102.063 126.790  81.946  0.00  0.00    +0.000 C 
BRANCH  11  12
ATOM     12  C   UNL     1     103.018 125.631  81.795  0.00  0.00    +0.000 A 
ATOM     13  C   UNL     1     103.545 125.309  80.537  0.00  0.00    +0.000 A 
ATOM     14  C   UNL     1     104.424 124.236  80.391  0.00  0.00    +0.000 A 
ATOM     15  C   UNL     1     104.781 123.470  81.499  0.00  0.00    +0.000 A 
ATOM     16  C   UNL     1     104.262 123.780  82.755  0.00  0.00    +0.000 A 
ATOM     17  C   UNL     1     103.388 124.857  82.905  0.00  0.00    +0.000 A 
ENDBRANCH  11  12
ENDBRANCH  10  11
ENDBRANCH   7  10
TORSDOF 4
ENDMDL
