MODEL 1
REMARK VINA RESULT:      -4.8      0.000      0.000
REMARK  Name = *****
REMARK  3 active torsions:
REMARK  status: ('A' for Active; 'I' for Inactive)
REMARK    1  A    between atoms: C_6  and  C_7
REMARK    2  A    between atoms: C_7  and  C_8
REMARK    3  A    between atoms: C_8  and  C_10
REMARK                            x       y       z     vdW  Elec       q    Type
REMARK                         _______ _______ _______ _____ _____    ______ ____
ROOT
ATOM      1  C   UNL     1     103.270 126.984  81.538  0.00  0.00    +0.000 C 
ATOM      2  O   UNL     1     103.311 127.573  80.456  0.00  0.00    +0.000 OA
ENDROOT
BRANCH   1   3
ATOM      3  C   UNL     1     103.760 125.573  81.616  0.00  0.00    +0.000 A 
ATOM      4  C   UNL     1     103.794 124.843  82.809  0.00  0.00    +0.000 A 
ATOM      5  C   UNL     1     104.252 123.520  82.815  0.00  0.00    +0.000 A 
ATOM      6  C   UNL     1     104.679 122.925  81.629  0.00  0.00    +0.000 A 
ATOM      7  C   UNL     1     104.659 123.642  80.436  0.00  0.00    +0.000 A 
ATOM      8  C   UNL     1     104.202 124.963  80.431  0.00  0.00    +0.000 A 
ATOM      9 BR   UNL     1     105.291 121.138  81.643  0.00  0.00    +0.000 Br
ENDBRANCH   1   3
BRANCH   1  10
ATOM     10  C   UNL     1     102.725 127.670  82.778  0.00  0.00    +0.000 C 
BRANCH  10  16
ATOM     11  C   UNL     1     100.536 128.723  83.489  0.00  0.00    +0.000 A 
ATOM     12  C   UNL     1      99.142 128.711  83.575  0.00  0.00    +0.000 A 
ATOM     13  C   UNL     1      98.429 127.647  83.036  0.00  0.00    +0.000 A 
ATOM     14  C   UNL     1      99.084 126.591  82.414  0.00  0.00    +0.000 A 
ATOM     15  C   UNL     1     100.477 126.602  82.325  0.00  0.00    +0.000 A 
ATOM     16  C   UNL     1     101.217 127.673  82.854  0.00  0.00    +0.000 A 
ATOM     17  F   UNL     1      97.093 127.636  83.124  0.00  0.00    +0.000 F 
ENDBRANCH  10  16
ENDBRANCH   1  10
TORSDOF 3
ENDMDL
