REMARK  Name = *****
REMARK  3 active torsions:
REMARK  status: ('A' for Active; 'I' for Inactive)
REMARK    1  A    between atoms: C_4  and  P_7
REMARK    2  A    between atoms: P_7  and  P_8
REMARK    3  A    between atoms: P_8  and  C_9
REMARK                            x       y       z     vdW  Elec       q    Type
REMARK                         _______ _______ _______ _____ _____    ______ ____
ROOT
ATOM      1  P   UNL     1       2.983  -0.959  -0.912  0.00  0.00    +0.000 P 
ATOM      2  H   UNL     1       3.800   0.138  -1.093  0.00  0.00    +0.000 HD
ENDROOT
BRANCH   1   6
ATOM      3  C   UNL     1      -1.511   0.104  -0.099  0.00  0.00    +0.000 C 
ATOM      4  C   UNL     1      -1.003  -1.245   0.401  0.00  0.00    +0.000 C 
ATOM      5  C   UNL     1       0.328  -1.624  -0.247  0.00  0.00    +0.000 C 
ATOM      6  C   UNL     1       1.387  -0.529  -0.043  0.00  0.00    +0.000 C 
ATOM      7  C   UNL     1       0.865   0.822  -0.565  0.00  0.00    +0.000 C 
ATOM      8  C   UNL     1      -0.466   1.198   0.086  0.00  0.00    +0.000 C 
ENDBRANCH   1   6
BRANCH   1   9
ATOM      9  P   UNL     1       3.781  -2.394   0.689  0.00  0.00    +0.000 P 
ATOM     10  H   UNL     1       2.964  -3.492   0.870  0.00  0.00    +0.000 HD
BRANCH   9  11
ATOM     11  C   UNL     1       5.378  -2.825  -0.178  0.00  0.00    +0.000 C 
ATOM     12  C   UNL     1       5.907  -4.168   0.358  0.00  0.00    +0.000 C 
ATOM     13  C   UNL     1       7.239  -4.546  -0.290  0.00  0.00    +0.000 C 
ATOM     14  C   UNL     1       8.279  -3.443  -0.119  0.00  0.00    +0.000 C 
ATOM     15  C   UNL     1       7.764  -2.104  -0.635  0.00  0.00    +0.000 C 
ATOM     16  C   UNL     1       6.433  -1.723   0.011  0.00  0.00    +0.000 C 
ENDBRANCH   9  11
ENDBRANCH   1   9
TORSDOF 3
