MODEL 1
REMARK VINA RESULT:      -4.5      0.000      0.000
REMARK  Name = *****
REMARK  3 active torsions:
REMARK  status: ('A' for Active; 'I' for Inactive)
REMARK    1  A    between atoms: C_4  and  C_7
REMARK    2  A    between atoms: C_7  and  O_8
REMARK    3  A    between atoms: O_8  and  C_9
REMARK                            x       y       z     vdW  Elec       q    Type
REMARK                         _______ _______ _______ _____ _____    ______ ____
ROOT
ATOM      1  O   UNL     1      88.591  69.987  86.943  0.00  0.00    +0.000 OA
ENDROOT
BRANCH   1   2
ATOM      2  C   UNL     1      88.815  68.640  86.884  0.00  0.00    +0.000 A 
ATOM      3  C   UNL     1      89.889  68.012  86.251  0.00  0.00    +0.000 A 
ATOM      4  C   UNL     1      89.987  66.618  86.270  0.00  0.00    +0.000 A 
ATOM      5  C   UNL     1      89.027  65.842  86.911  0.00  0.00    +0.000 A 
ATOM      6  C   UNL     1      87.958  66.472  87.538  0.00  0.00    +0.000 A 
ATOM      7  C   UNL     1      87.848  67.861  87.525  0.00  0.00    +0.000 A 
ATOM      8 CL   UNL     1      86.761  65.527  88.336  0.00  0.00    +0.000 Cl
ATOM      9 CL   UNL     1      91.315  65.852  85.487  0.00  0.00    +0.000 Cl
ENDBRANCH   1   2
BRANCH   1  10
ATOM     10  C   UNL     1      87.888  70.585  85.851  0.00  0.00    +0.000 C 
BRANCH  10  14
ATOM     11  C   UNL     1      84.274  72.464  87.298  0.00  0.00    +0.000 A 
ATOM     12  C   UNL     1      84.522  72.405  85.928  0.00  0.00    +0.000 A 
ATOM     13  C   UNL     1      85.692  71.808  85.453  0.00  0.00    +0.000 A 
ATOM     14  C   UNL     1      86.636  71.275  86.345  0.00  0.00    +0.000 A 
ATOM     15  C   UNL     1      86.366  71.329  87.721  0.00  0.00    +0.000 A 
ATOM     16  C   UNL     1      85.194  71.925  88.194  0.00  0.00    +0.000 A 
ENDBRANCH  10  14
ENDBRANCH   1  10
TORSDOF 3
ENDMDL
