MODEL 1
REMARK VINA RESULT:      -4.6      0.000      0.000
REMARK  Name = *****
REMARK  3 active torsions:
REMARK  status: ('A' for Active; 'I' for Inactive)
REMARK    1  A    between atoms: C_1  and  C_2
REMARK    2  A    between atoms: C_5  and  C_8
REMARK    3  A    between atoms: C_9  and  C_10
REMARK                            x       y       z     vdW  Elec       q    Type
REMARK                         _______ _______ _______ _____ _____    ______ ____
ROOT
ATOM      1  C   UNL     1     102.239 125.845  82.155  0.00  0.00    +0.000 C 
ATOM      2  C   UNL     1     103.241 125.995  81.274  0.00  0.00    +0.000 C 
ENDROOT
BRANCH   1   7
ATOM      3  C   UNL     1      99.047 130.217  84.206  0.00  0.00    +0.000 C 
ATOM      4  C   UNL     1      99.866 129.095  83.640  0.00  0.00    +0.000 A 
ATOM      5  C   UNL     1      99.248 128.016  83.001  0.00  0.00    +0.000 A 
ATOM      6  C   UNL     1     100.011 126.955  82.503  0.00  0.00    +0.000 A 
ATOM      7  C   UNL     1     101.405 126.955  82.636  0.00  0.00    +0.000 A 
ATOM      8  C   UNL     1     102.016 128.021  83.305  0.00  0.00    +0.000 A 
ATOM      9  C   UNL     1     101.255 129.082  83.803  0.00  0.00    +0.000 A 
ENDBRANCH   1   7
BRANCH   2  10
ATOM     10  C   UNL     1     104.022 124.882  80.856  0.00  0.00    +0.000 A 
ATOM     11  C   UNL     1     104.936 124.813  79.811  0.00  0.00    +0.000 A 
ATOM     12  C   UNL     1     105.465 123.501  79.781  0.00  0.00    +0.000 A 
ATOM     13  C   UNL     1     104.856 122.821  80.807  0.00  0.00    +0.000 A 
ATOM     14  O   UNL     1     103.990 123.641  81.456  0.00  0.00    +0.000 OA
ATOM     15 CL   UNL     1     105.111 121.180  81.249  0.00  0.00    +0.000 Cl
ENDBRANCH   2  10
TORSDOF 2
ENDMDL
