MODEL 1
REMARK VINA RESULT:      -4.5      0.000      0.000
REMARK  Name = *****
REMARK  3 active torsions:
REMARK  status: ('A' for Active; 'I' for Inactive)
REMARK    1  A    between atoms: C_4  and  N_7
REMARK    2  A    between atoms: N_7  and  S_8
REMARK    3  A    between atoms: S_8  and  C_10
REMARK                            x       y       z     vdW  Elec       q    Type
REMARK                         _______ _______ _______ _____ _____    ______ ____
ROOT
ATOM      1  S   UNL     1     103.077 125.582  83.483  0.00  0.00    +0.000 S 
ATOM      2  O   UNL     1     103.135 124.308  84.268  0.00  0.00    +0.000 OA
ENDROOT
BRANCH   1   3
ATOM      3  C   UNL     1     103.971 125.274  81.940  0.00  0.00    +0.000 A 
ATOM      4  C   UNL     1     104.374 126.355  81.146  0.00  0.00    +0.000 A 
ATOM      5  C   UNL     1     105.060 126.128  79.950  0.00  0.00    +0.000 A 
ATOM      6  C   UNL     1     105.346 124.823  79.550  0.00  0.00    +0.000 A 
ATOM      7  C   UNL     1     104.952 123.742  80.336  0.00  0.00    +0.000 A 
ATOM      8  C   UNL     1     104.266 123.967  81.532  0.00  0.00    +0.000 A 
ATOM      9 CL   UNL     1     106.188 124.547  78.077  0.00  0.00    +0.000 Cl
ENDBRANCH   1   3
BRANCH   1  10
ATOM     10  N   UNL     1     101.601 125.726  82.712  0.00  0.00    +0.000 N 
ATOM     11  H   UNL     1     101.329 125.016  82.087  0.00  0.00    +0.000 HD
BRANCH  10  15
ATOM     12  C   UNL     1      99.110 129.104  83.280  0.00  0.00    +0.000 A 
ATOM     13  C   UNL     1      98.587 127.966  82.674  0.00  0.00    +0.000 A 
ATOM     14  C   UNL     1      99.390 126.837  82.483  0.00  0.00    +0.000 A 
ATOM     15  C   UNL     1     100.723 126.813  82.913  0.00  0.00    +0.000 A 
ATOM     16  C   UNL     1     101.240 127.985  83.492  0.00  0.00    +0.000 A 
ATOM     17  C   UNL     1     100.441 129.116  83.684  0.00  0.00    +0.000 A 
ENDBRANCH  10  15
ENDBRANCH   1  10
TORSDOF 3
ENDMDL
