REMARK  Name = *****
REMARK  4 active torsions:
REMARK  status: ('A' for Active; 'I' for Inactive)
REMARK    1  A    between atoms: C_1  and  C_2
REMARK    2  A    between atoms: C_4  and  O_8
REMARK    3  A    between atoms: O_8  and  C_9
REMARK    4  A    between atoms: C_9  and  C_11
REMARK                            x       y       z     vdW  Elec       q    Type
REMARK                         _______ _______ _______ _____ _____    ______ ____
ROOT
ATOM      1  C   UNL     1      -1.427   3.540  -0.447  0.00  0.00    +0.000 C 
ATOM      2  O   UNL     1      -0.557   3.588  -1.304  0.00  0.00    +0.000 OA
ENDROOT
BRANCH   1   3
ATOM      3  C   UNL     1      -2.284   4.700  -0.121  0.00  0.00    +0.000 A 
ATOM      4  C   UNL     1      -1.796   5.985  -0.403  0.00  0.00    +0.000 A 
ATOM      5  C   UNL     1      -2.575   7.110  -0.122  0.00  0.00    +0.000 A 
ATOM      6  C   UNL     1      -3.845   6.960   0.434  0.00  0.00    +0.000 A 
ATOM      7  C   UNL     1      -4.340   5.684   0.702  0.00  0.00    +0.000 A 
ATOM      8  C   UNL     1      -3.562   4.561   0.421  0.00  0.00    +0.000 A 
ATOM      9  F   UNL     1      -4.094   3.354   0.661  0.00  0.00    +0.000 F 
ENDBRANCH   1   3
BRANCH   1  10
ATOM     10  O   UNL     1      -1.724   2.487   0.396  0.00  0.00    +0.000 OA
BRANCH  10  14
ATOM     11  C   UNL     1       2.554  -0.031   0.237  0.00  0.00    +0.000 C 
ATOM     12  C   UNL     1       1.059   0.039   0.149  0.00  0.00    +0.000 A 
ATOM     13  C   UNL     1       0.389   1.260   0.297  0.00  0.00    +0.000 A 
ATOM     14  C   UNL     1      -1.003   1.298   0.209  0.00  0.00    +0.000 A 
ATOM     15  C   UNL     1      -1.746   0.134   0.027  0.00  0.00    +0.000 A 
ATOM     16  C   UNL     1      -1.084  -1.085  -0.106  0.00  0.00    +0.000 A 
ATOM     17  C   UNL     1       0.311  -1.132  -0.047  0.00  0.00    +0.000 A 
ENDBRANCH  10  14
ENDBRANCH   1  10
TORSDOF 3
