MODEL 1
REMARK VINA RESULT:      -4.5      0.000      0.000
REMARK  Name = *****
REMARK  2 active torsions:
REMARK  status: ('A' for Active; 'I' for Inactive)
REMARK    1  A    between atoms: C_4  and  C_6
REMARK    2  A    between atoms: C_7  and  C_8
REMARK                            x       y       z     vdW  Elec       q    Type
REMARK                         _______ _______ _______ _____ _____    ______ ____
ROOT
ATOM      1  C   UNL     1     102.771 125.889  81.455  0.00  0.00    +0.000 C 
ATOM      2  C   UNL     1     101.969 125.934  82.532  0.00  0.00    +0.000 C 
ENDROOT
BRANCH   2   3
ATOM      3  C   UNL     1     100.941 126.962  82.746  0.00  0.00    +0.000 A 
ATOM      4  C   UNL     1      99.598 126.762  82.398  0.00  0.00    +0.000 A 
ATOM      5  C   UNL     1      98.644 127.753  82.648  0.00  0.00    +0.000 A 
ATOM      6  C   UNL     1      99.021 128.947  83.258  0.00  0.00    +0.000 A 
ATOM      7  C   UNL     1     100.349 129.151  83.623  0.00  0.00    +0.000 A 
ATOM      8  C   UNL     1     101.303 128.161  83.374  0.00  0.00    +0.000 A 
ENDBRANCH   2   3
BRANCH   1  12
ATOM      9  C   UNL     1     105.281 123.430  80.107  0.00  0.00    +0.000 C 
ATOM     10  C   UNL     1     105.241 123.084  81.593  0.00  0.00    +0.000 C 
ATOM     11  C   UNL     1     104.138 123.950  82.104  0.00  0.00    +0.000 C 
ATOM     12  C   UNL     1     103.788 124.895  81.222  0.00  0.00    +0.000 C 
ATOM     13  C   UNL     1     104.611 124.798  79.972  0.00  0.00    +0.000 C 
ENDBRANCH   1  12
TORSDOF 2
ENDMDL
