REMARK  Name = *****
REMARK  6 active torsions:
REMARK  status: ('A' for Active; 'I' for Inactive)
REMARK    1  A    between atoms: C_1  and  C_2
REMARK    2  A    between atoms: C_5  and  C_8
REMARK    3  A    between atoms: C_9  and  C_10
REMARK    4  A    between atoms: C_13  and  C_15
REMARK    5  A    between atoms: C_15  and  O_17
REMARK    6  A    between atoms: O_17  and  C_18
REMARK                            x       y       z     vdW  Elec       q    Type
REMARK                         _______ _______ _______ _____ _____    ______ ____
ROOT
ATOM      1  C   UNL     1      -3.328  -0.015   0.069  0.00  0.00    +0.000 C 
ATOM      2  C   UNL     1      -4.119   1.059  -0.081  0.00  0.00    +0.000 C 
ENDROOT
BRANCH   1   7
ATOM      3  C   UNL     1       2.458   0.056  -0.133  0.00  0.00    +0.000 C 
ATOM      4  C   UNL     1       0.959   0.065  -0.104  0.00  0.00    +0.000 A 
ATOM      5  C   UNL     1       0.267   1.082   0.563  0.00  0.00    +0.000 A 
ATOM      6  C   UNL     1      -1.130   1.073   0.617  0.00  0.00    +0.000 A 
ATOM      7  C   UNL     1      -1.861   0.047   0.005  0.00  0.00    +0.000 A 
ATOM      8  C   UNL     1      -1.165  -0.986  -0.635  0.00  0.00    +0.000 A 
ATOM      9  C   UNL     1       0.232  -0.977  -0.690  0.00  0.00    +0.000 A 
ENDBRANCH   1   7
BRANCH   2  10
ATOM     10  C   UNL     1      -5.543   0.982  -0.020  0.00  0.00    +0.000 A 
ATOM     11  C   UNL     1      -6.392  -0.092   0.192  0.00  0.00    +0.000 A 
ATOM     12  C   UNL     1      -7.772   0.271   0.179  0.00  0.00    +0.000 A 
ATOM     13  C   UNL     1      -7.962   1.620  -0.042  0.00  0.00    +0.000 A 
ATOM     14  S   UNL     1      -6.465   2.425  -0.232  0.00  0.00    +0.000 S 
BRANCH  13  15
ATOM     15  C   UNL     1      -9.195   2.380  -0.124  0.00  0.00    +0.000 C 
ATOM     16  O   UNL     1      -9.300   3.585  -0.322  0.00  0.00    +0.000 OA
BRANCH  15  17
ATOM     17  O   UNL     1     -10.263   1.544   0.055  0.00  0.00    +0.000 OA
ATOM     18  C   UNL     1     -11.530   2.199  -0.007  0.00  0.00    +0.000 C 
ENDBRANCH  15  17
ENDBRANCH  13  15
ENDBRANCH   2  10
TORSDOF 4
