MODEL 1
REMARK VINA RESULT:      -4.7      0.000      0.000
REMARK  Name = *****
REMARK  5 active torsions:
REMARK  status: ('A' for Active; 'I' for Inactive)
REMARK    1  A    between atoms: C_1  and  C_2
REMARK    2  A    between atoms: C_4  and  C_17
REMARK    3  A    between atoms: C_5  and  C_9
REMARK    4  A    between atoms: C_6  and  C_8
REMARK    5  A    between atoms: C_10  and  C_11
REMARK                            x       y       z     vdW  Elec       q    Type
REMARK                         _______ _______ _______ _____ _____    ______ ____
ROOT
ATOM      1  C   UNL     1      99.125 131.338  84.774  0.00  0.00    +0.000 C 
ATOM      2  C   UNL     1      99.926 130.160  84.303  0.00  0.00    +0.000 A 
ATOM      3  C   UNL     1      99.305 129.102  83.634  0.00  0.00    +0.000 A 
ATOM      4  C   UNL     1     100.046 128.006  83.160  0.00  0.00    +0.000 A 
ATOM      5  C   UNL     1     101.445 127.988  83.343  0.00  0.00    +0.000 A 
ATOM      6  C   UNL     1     102.083 129.056  84.009  0.00  0.00    +0.000 A 
ATOM      7  C   UNL     1     101.313 130.135  84.475  0.00  0.00    +0.000 A 
ATOM      8  C   UNL     1     103.574 129.084  84.216  0.00  0.00    +0.000 C 
ATOM      9  C   UNL     1      99.323 126.896  82.444  0.00  0.00    +0.000 C 
ENDROOT
BRANCH   5  10
ATOM     10  C   UNL     1     102.245 126.865  82.827  0.00  0.00    +0.000 C 
ATOM     11  C   UNL     1     102.844 126.928  81.627  0.00  0.00    +0.000 C 
BRANCH  11  12
ATOM     12  C   UNL     1     103.667 125.854  81.057  0.00  0.00    +0.000 A 
ATOM     13  C   UNL     1     104.484 126.044  79.941  0.00  0.00    +0.000 A 
ATOM     14  C   UNL     1     105.252 124.981  79.491  0.00  0.00    +0.000 A 
ATOM     15  N   UNL     1     105.266 123.763  80.073  0.00  0.00    +0.000 NA
ATOM     16  C   UNL     1     104.481 123.605  81.159  0.00  0.00    +0.000 A 
ATOM     17  C   UNL     1     103.680 124.607  81.685  0.00  0.00    +0.000 A 
ENDBRANCH  11  12
ENDBRANCH   5  10
TORSDOF 2
ENDMDL
