MODEL 1
REMARK VINA RESULT:      -4.2      0.000      0.000
REMARK  Name = *****
REMARK  3 active torsions:
REMARK  status: ('A' for Active; 'I' for Inactive)
REMARK    1  A    between atoms: N_2  and  C_3
REMARK    2  A    between atoms: C_3  and  C_11
REMARK    3  A    between atoms: N_4  and  C_5
REMARK                            x       y       z     vdW  Elec       q    Type
REMARK                         _______ _______ _______ _____ _____    ______ ____
ROOT
ATOM      1  C   UNL     1     103.032 126.278  82.081  0.00  0.00    +0.000 C 
ATOM      2  N   UNL     1     102.979 125.589  80.977  0.00  0.00    +0.000 NA
ENDROOT
BRANCH   2   3
ATOM      3  C   UNL     1     104.120 124.893  80.559  0.00  0.00    +0.000 A 
ATOM      4  C   UNL     1     104.346 123.585  80.998  0.00  0.00    +0.000 A 
ATOM      5  C   UNL     1     105.473 122.882  80.568  0.00  0.00    +0.000 A 
ATOM      6  C   UNL     1     106.372 123.478  79.687  0.00  0.00    +0.000 A 
ATOM      7  C   UNL     1     106.142 124.775  79.229  0.00  0.00    +0.000 A 
ATOM      8  C   UNL     1     105.015 125.477  79.660  0.00  0.00    +0.000 A 
ENDBRANCH   2   3
BRANCH   1   9
ATOM      9  C   UNL     1     101.831 127.032  82.552  0.00  0.00    +0.000 A 
ATOM     10  C   UNL     1     101.958 128.249  83.235  0.00  0.00    +0.000 A 
ATOM     11  C   UNL     1     100.818 128.933  83.665  0.00  0.00    +0.000 A 
ATOM     12  C   UNL     1      99.550 128.410  83.416  0.00  0.00    +0.000 A 
ATOM     13  C   UNL     1      99.416 127.201  82.736  0.00  0.00    +0.000 A 
ATOM     14  C   UNL     1     100.552 126.513  82.305  0.00  0.00    +0.000 A 
ENDBRANCH   1   9
BRANCH   1  16
ATOM     15  C   UNL     1     105.198 126.406  83.545  0.00  0.00    +0.000 C 
ATOM     16  N   UNL     1     104.229 126.342  82.884  0.00  0.00    +0.000 NA
ENDBRANCH   1  16
TORSDOF 3
ENDMDL
