REMARK  Name = *****
REMARK  3 active torsions:
REMARK  status: ('A' for Active; 'I' for Inactive)
REMARK    1  A    between atoms: C_5  and  C_7
REMARK    2  A    between atoms: C_7  and  S_8
REMARK    3  A    between atoms: S_8  and  C_9
REMARK                            x       y       z     vdW  Elec       q    Type
REMARK                         _______ _______ _______ _____ _____    ______ ____
ROOT
ATOM      1  C   UNL     1      -0.560  -2.422  -0.076  0.00  0.00    +0.000 C 
ENDROOT
BRANCH   1   6
ATOM      2  C   UNL     1       0.972   0.695   1.485  0.00  0.00    +0.000 A 
ATOM      3  C   UNL     1       1.427   1.396   0.373  0.00  0.00    +0.000 A 
ATOM      4  C   UNL     1       1.236   0.870  -0.904  0.00  0.00    +0.000 A 
ATOM      5  C   UNL     1       0.594  -0.362  -1.073  0.00  0.00    +0.000 A 
ATOM      6  C   UNL     1       0.142  -1.089   0.041  0.00  0.00    +0.000 A 
ATOM      7  C   UNL     1       0.333  -0.535   1.321  0.00  0.00    +0.000 A 
ATOM      8 CL   UNL     1       0.389  -0.937  -2.689  0.00  0.00    +0.000 Cl
ENDBRANCH   1   6
BRANCH   1   9
ATOM      9  S   UNL     1      -2.367  -2.211  -0.198  0.00  0.00    +0.000 S 
BRANCH   9  10
ATOM     10  C   UNL     1      -2.888  -3.917  -0.210  0.00  0.00    +0.000 A 
ATOM     11  N   UNL     1      -1.946  -4.882  -0.112  0.00  0.00    +0.000 NA
ATOM     12  C   UNL     1      -2.360  -6.168  -0.115  0.00  0.00    +0.000 A 
ATOM     13  C   UNL     1      -3.684  -6.544  -0.208  0.00  0.00    +0.000 A 
ATOM     14  C   UNL     1      -4.629  -5.534  -0.305  0.00  0.00    +0.000 A 
ATOM     15  C   UNL     1      -4.241  -4.200  -0.308  0.00  0.00    +0.000 A 
ATOM     16 CL   UNL     1      -6.298  -5.938  -0.419  0.00  0.00    +0.000 Cl
ENDBRANCH   9  10
ENDBRANCH   1   9
TORSDOF 3
