MODEL 1
REMARK VINA RESULT:      -3.8      0.000      0.000
REMARK  Name = *****
REMARK  3 active torsions:
REMARK  status: ('A' for Active; 'I' for Inactive)
REMARK    1  A    between atoms: C_4  and  C_7
REMARK    2  A    between atoms: C_7  and  S_8
REMARK    3  A    between atoms: S_8  and  C_9
REMARK                            x       y       z     vdW  Elec       q    Type
REMARK                         _______ _______ _______ _____ _____    ______ ____
ROOT
ATOM      1  C   UNL     1     102.838 127.043  82.993  0.00  0.00    +0.000 C 
ENDROOT
BRANCH   1   5
ATOM      2  C   UNL     1      98.710 128.300  83.015  0.00  0.00    +0.000 A 
ATOM      3  C   UNL     1      99.691 129.120  83.569  0.00  0.00    +0.000 A 
ATOM      4  C   UNL     1     101.028 128.719  83.554  0.00  0.00    +0.000 A 
ATOM      5  C   UNL     1     101.398 127.491  82.987  0.00  0.00    +0.000 A 
ATOM      6  C   UNL     1     100.401 126.677  82.426  0.00  0.00    +0.000 A 
ATOM      7  C   UNL     1      99.065 127.080  82.442  0.00  0.00    +0.000 A 
ENDBRANCH   1   5
BRANCH   1   8
ATOM      8  S   UNL     1     103.064 125.307  83.498  0.00  0.00    +0.000 S 
BRANCH   8   9
ATOM      9  C   UNL     1     103.913 124.647  82.092  0.00  0.00    +0.000 C 
ATOM     10  S   UNL     1     104.032 125.576  80.636  0.00  0.00    +0.000 S 
ATOM     11  N   UNL     1     104.864 124.464  79.712  0.00  0.00    +0.000 NA
ATOM     12  S   UNL     1     105.264 123.048  80.500  0.00  0.00    +0.000 S 
ATOM     13  C   UNL     1     104.550 123.411  82.021  0.00  0.00    +0.000 C 
ATOM     14  S   UNL     1     104.680 122.330  83.202  0.00  0.00    +0.000 S 
ENDBRANCH   8   9
ENDBRANCH   1   8
TORSDOF 3
ENDMDL
