MODEL 1
REMARK VINA RESULT:      -4.6      0.000      0.000
REMARK  Name = *****
REMARK  2 active torsions:
REMARK  status: ('A' for Active; 'I' for Inactive)
REMARK    1  A    between atoms: C_4  and  C_7
REMARK    2  A    between atoms: C_8  and  C_9
REMARK                            x       y       z     vdW  Elec       q    Type
REMARK                         _______ _______ _______ _____ _____    ______ ____
ROOT
ATOM      1  C   UNL     1     101.930 125.913  82.504  0.00  0.00    +0.000 C 
ATOM      2  C   UNL     1     102.936 125.965  81.614  0.00  0.00    +0.000 C 
ATOM      3 CL   UNL     1     103.230 127.350  80.612  0.00  0.00    +0.000 Cl
ENDROOT
BRANCH   1   7
ATOM      4  C   UNL     1      99.115 129.014  83.320  0.00  0.00    +0.000 A 
ATOM      5  C   UNL     1      98.696 127.854  82.671  0.00  0.00    +0.000 A 
ATOM      6  C   UNL     1      99.612 126.837  82.396  0.00  0.00    +0.000 A 
ATOM      7  C   UNL     1     100.955 126.978  82.765  0.00  0.00    +0.000 A 
ATOM      8  C   UNL     1     101.367 128.142  83.423  0.00  0.00    +0.000 A 
ATOM      9  C   UNL     1     100.450 129.158  83.697  0.00  0.00    +0.000 A 
ENDBRANCH   1   7
BRANCH   2  10
ATOM     10  C   UNL     1     103.800 124.836  81.459  0.00  0.00    +0.000 A 
ATOM     11  C   UNL     1     104.386 124.340  80.303  0.00  0.00    +0.000 A 
ATOM     12  C   UNL     1     105.179 123.177  80.529  0.00  0.00    +0.000 A 
ATOM     13  C   UNL     1     105.177 122.806  81.852  0.00  0.00    +0.000 A 
ATOM     14  S   UNL     1     104.227 123.852  82.810  0.00  0.00    +0.000 S 
ENDBRANCH   2  10
TORSDOF 2
ENDMDL
