MODEL 1
REMARK VINA RESULT:      -4.5      0.000      0.000
REMARK  Name = *****
REMARK  2 active torsions:
REMARK  status: ('A' for Active; 'I' for Inactive)
REMARK    1  A    between atoms: C_3  and  C_6
REMARK    2  A    between atoms: C_7  and  C_8
REMARK                            x       y       z     vdW  Elec       q    Type
REMARK                         _______ _______ _______ _____ _____    ______ ____
ROOT
ATOM      1  C   UNL     1      97.975 118.412  80.499  0.00  0.00    +0.000 C 
ATOM      2  C   UNL     1      97.512 117.539  79.816  0.00  0.00    +0.000 C 
ENDROOT
BRANCH   2   3
ATOM      3  C   UNL     1      96.959 116.500  79.003  0.00  0.00    +0.000 A 
ATOM      4  C   UNL     1      97.044 116.583  77.611  0.00  0.00    +0.000 A 
ATOM      5  C   UNL     1      96.501 115.570  76.815  0.00  0.00    +0.000 A 
ATOM      6  C   UNL     1      95.875 114.479  77.415  0.00  0.00    +0.000 A 
ATOM      7  C   UNL     1      95.788 114.391  78.805  0.00  0.00    +0.000 A 
ATOM      8  C   UNL     1      96.331 115.405  79.600  0.00  0.00    +0.000 A 
ATOM      9  I   UNL     1      95.065 112.973  76.233  0.00  0.00    +0.000 I 
ENDBRANCH   2   3
BRANCH   1  12
ATOM     10  C   UNL     1      98.119 119.691  83.611  0.00  0.00    +0.000 C 
ATOM     11  C   UNL     1      98.840 118.997  82.714  0.00  0.00    +0.000 C 
ATOM     12  C   UNL     1      98.538 119.486  81.324  0.00  0.00    +0.000 C 
ATOM     13  C   UNL     1      97.513 120.552  81.598  0.00  0.00    +0.000 C 
ATOM     14  C   UNL     1      97.297 120.652  82.919  0.00  0.00    +0.000 C 
ENDBRANCH   1  12
TORSDOF 2
ENDMDL
