MODEL 1
REMARK VINA RESULT:      -4.5      0.000      0.000
REMARK  Name = *****
REMARK  6 active torsions:
REMARK  status: ('A' for Active; 'I' for Inactive)
REMARK    1  A    between atoms: C_1  and  C_2
REMARK    2  A    between atoms: C_4  and  C_18
REMARK    3  A    between atoms: C_5  and  C_9
REMARK    4  A    between atoms: C_6  and  C_8
REMARK    5  A    between atoms: C_9  and  S_10
REMARK    6  A    between atoms: S_10  and  C_12
REMARK                            x       y       z     vdW  Elec       q    Type
REMARK                         _______ _______ _______ _____ _____    ______ ____
ROOT
ATOM      1  C   UNL     1      84.322  72.170  87.887  0.00  0.00    +0.000 C 
ATOM      2  C   UNL     1      85.529  71.751  87.101  0.00  0.00    +0.000 A 
ATOM      3  C   UNL     1      85.605  71.999  85.729  0.00  0.00    +0.000 A 
ATOM      4  C   UNL     1      86.745  71.647  84.986  0.00  0.00    +0.000 A 
ATOM      5  C   UNL     1      87.846  71.031  85.634  0.00  0.00    +0.000 A 
ATOM      6  C   UNL     1      87.776  70.795  87.030  0.00  0.00    +0.000 A 
ATOM      7  C   UNL     1      86.621  71.162  87.741  0.00  0.00    +0.000 A 
ATOM      8  C   UNL     1      88.903  70.150  87.795  0.00  0.00    +0.000 C 
ATOM      9  C   UNL     1      86.738  71.930  83.506  0.00  0.00    +0.000 C 
ENDROOT
BRANCH   5  10
ATOM     10  C   UNL     1      89.088  70.655  84.848  0.00  0.00    +0.000 C 
BRANCH  10  11
ATOM     11  S   UNL     1      88.794  69.244  83.721  0.00  0.00    +0.000 S 
ATOM     12  O   UNL     1      90.039  69.023  82.912  0.00  0.00    +0.000 OA
BRANCH  11  13
ATOM     13  C   UNL     1      88.810  67.955  84.991  0.00  0.00    +0.000 A 
ATOM     14  C   UNL     1      87.598  67.448  85.475  0.00  0.00    +0.000 A 
ATOM     15  C   UNL     1      87.595  66.457  86.458  0.00  0.00    +0.000 A 
ATOM     16  C   UNL     1      88.801  65.965  86.957  0.00  0.00    +0.000 A 
ATOM     17  C   UNL     1      90.011  66.459  86.471  0.00  0.00    +0.000 A 
ATOM     18  C   UNL     1      90.016  67.450  85.488  0.00  0.00    +0.000 A 
ENDBRANCH  11  13
ENDBRANCH  10  11
ENDBRANCH   5  10
TORSDOF 3
ENDMDL
