MODEL 1
REMARK VINA RESULT:      -4.4      0.000      0.000
REMARK  Name = *****
REMARK  3 active torsions:
REMARK  status: ('A' for Active; 'I' for Inactive)
REMARK    1  A    between atoms: C_4  and  C_7
REMARK    2  A    between atoms: C_7  and  C_8
REMARK    3  A    between atoms: C_8  and  C_9
REMARK                            x       y       z     vdW  Elec       q    Type
REMARK                         _______ _______ _______ _____ _____    ______ ____
ROOT
ATOM      1  C   UNL     1      88.016  69.387  87.810  0.00  0.00    +0.000 C 
ENDROOT
BRANCH   1   2
ATOM      2  C   UNL     1      89.419  69.341  87.185  0.00  0.00    +0.000 C 
ATOM      3  C   UNL     1      89.791  70.634  86.502  0.00  0.00    +0.000 C 
ATOM      4  C   UNL     1      89.822  70.923  85.191  0.00  0.00    +0.000 C 
ATOM      5  C   UNL     1      89.389  70.072  84.031  0.00  0.00    +0.000 C 
ATOM      6  C   UNL     1      88.280  69.070  84.337  0.00  0.00    +0.000 C 
ATOM      7  C   UNL     1      88.738  67.851  85.122  0.00  0.00    +0.000 C 
ATOM      8  C   UNL     1      89.663  68.127  86.290  0.00  0.00    +0.000 C 
ATOM      9  O   UNL     1      90.580  67.338  86.541  0.00  0.00    +0.000 OA
ENDBRANCH   1   2
BRANCH   1  10
ATOM     10  C   UNL     1      87.484  70.821  87.952  0.00  0.00    +0.000 C 
BRANCH  10  14
ATOM     11  C   UNL     1      83.966  72.783  86.212  0.00  0.00    +0.000 C 
ATOM     12  C   UNL     1      84.815  71.907  85.298  0.00  0.00    +0.000 C 
ATOM     13  C   UNL     1      86.193  71.629  85.895  0.00  0.00    +0.000 C 
ATOM     14  C   UNL     1      86.099  71.027  87.306  0.00  0.00    +0.000 C 
ATOM     15  C   UNL     1      85.234  71.920  88.214  0.00  0.00    +0.000 C 
ATOM     16  C   UNL     1      83.858  72.185  87.610  0.00  0.00    +0.000 C 
ENDBRANCH  10  14
ENDBRANCH   1  10
TORSDOF 3
ENDMDL
