MODEL 1
REMARK VINA RESULT:      -4.2      0.000      0.000
REMARK  Name = *****
REMARK  3 active torsions:
REMARK  status: ('A' for Active; 'I' for Inactive)
REMARK    1  A    between atoms: C_4  and  C_7
REMARK    2  A    between atoms: C_7  and  P_8
REMARK    3  A    between atoms: P_8  and  C_9
REMARK                            x       y       z     vdW  Elec       q    Type
REMARK                         _______ _______ _______ _____ _____    ______ ____
ROOT
ATOM      1  P   UNL     1     102.814 125.687  83.884  0.00  0.00    +0.000 P 
ATOM      2  H   UNL     1     101.564 125.165  84.150  0.00  0.00    +0.000 HD
ENDROOT
BRANCH   1   3
ATOM      3  C   UNL     1     103.627 124.825  82.505  0.00  0.00    +0.000 A 
ATOM      4  C   UNL     1     104.232 123.579  82.711  0.00  0.00    +0.000 A 
ATOM      5  C   UNL     1     104.862 122.912  81.657  0.00  0.00    +0.000 A 
ATOM      6  C   UNL     1     104.888 123.483  80.386  0.00  0.00    +0.000 A 
ATOM      7  C   UNL     1     104.283 124.719  80.168  0.00  0.00    +0.000 A 
ATOM      8  C   UNL     1     103.653 125.387  81.222  0.00  0.00    +0.000 A 
ENDBRANCH   1   3
BRANCH   1   9
ATOM      9  C   UNL     1     102.713 127.377  83.178  0.00  0.00    +0.000 C 
BRANCH   9  13
ATOM     10  C   UNL     1      98.463 128.079  82.879  0.00  0.00    +0.000 A 
ATOM     11  C   UNL     1      99.008 126.889  82.400  0.00  0.00    +0.000 A 
ATOM     12  C   UNL     1     100.383 126.662  82.493  0.00  0.00    +0.000 A 
ATOM     13  C   UNL     1     101.232 127.627  83.061  0.00  0.00    +0.000 A 
ATOM     14  C   UNL     1     100.665 128.818  83.545  0.00  0.00    +0.000 A 
ATOM     15  C   UNL     1      99.290 129.042  83.451  0.00  0.00    +0.000 A 
ENDBRANCH   9  13
ENDBRANCH   1   9
TORSDOF 3
ENDMDL
