REMARK  Name = *****
REMARK  5 active torsions:
REMARK  status: ('A' for Active; 'I' for Inactive)
REMARK    1  A    between atoms: C_1  and  O_2
REMARK    2  A    between atoms: O_2  and  C_3
REMARK    3  A    between atoms: C_6  and  C_9
REMARK    4  A    between atoms: C_9  and  S_11
REMARK    5  A    between atoms: S_11  and  C_12
REMARK                            x       y       z     vdW  Elec       q    Type
REMARK                         _______ _______ _______ _____ _____    ______ ____
ROOT
ATOM      1  C   UNL     1       5.336  -4.120  -2.841  0.00  0.00    +0.000 C 
ATOM      2  O   UNL     1       5.305  -4.152  -4.066  0.00  0.00    +0.000 OA
ENDROOT
BRANCH   1   6
ATOM      3  C   UNL     1       3.086  -1.066  -0.788  0.00  0.00    +0.000 A 
ATOM      4  C   UNL     1       2.924  -1.290  -2.154  0.00  0.00    +0.000 A 
ATOM      5  C   UNL     1       3.670  -2.287  -2.795  0.00  0.00    +0.000 A 
ATOM      6  C   UNL     1       4.584  -3.077  -2.081  0.00  0.00    +0.000 A 
ATOM      7  C   UNL     1       4.746  -2.843  -0.710  0.00  0.00    +0.000 A 
ATOM      8  C   UNL     1       4.000  -1.844  -0.074  0.00  0.00    +0.000 A 
BRANCH   3  10
ATOM      9  C   UNL     1       1.481   0.686  -0.720  0.00  0.00    +0.000 C 
ATOM     10  O   UNL     1       2.427  -0.130  -0.041  0.00  0.00    +0.000 OA
ENDBRANCH   3  10
ENDBRANCH   1   6
BRANCH   1  11
ATOM     11  S   UNL     1       6.260  -5.323  -1.945  0.00  0.00    +0.000 S 
BRANCH  11  12
ATOM     12  C   UNL     1       5.011  -6.580  -1.752  0.00  0.00    +0.000 A 
ATOM     13  C   UNL     1       4.411  -7.181  -2.863  0.00  0.00    +0.000 A 
ATOM     14  C   UNL     1       3.436  -8.166  -2.692  0.00  0.00    +0.000 A 
ATOM     15  C   UNL     1       3.061  -8.560  -1.408  0.00  0.00    +0.000 A 
ATOM     16  C   UNL     1       3.662  -7.973  -0.296  0.00  0.00    +0.000 A 
ATOM     17  C   UNL     1       4.638  -6.988  -0.467  0.00  0.00    +0.000 A 
ENDBRANCH  11  12
ENDBRANCH   1  11
TORSDOF 4
