REMARK  Name = *****
REMARK  4 active torsions:
REMARK  status: ('A' for Active; 'I' for Inactive)
REMARK    1  A    between atoms: C_1  and  O_2
REMARK    2  A    between atoms: O_2  and  C_3
REMARK    3  A    between atoms: C_6  and  C_9
REMARK    4  A    between atoms: C_10  and  C_11
REMARK                            x       y       z     vdW  Elec       q    Type
REMARK                         _______ _______ _______ _____ _____    ______ ____
ROOT
ATOM      1  C   UNL     1       5.521  -3.758   2.606  0.00  0.00    +0.000 C 
ATOM      2  C   UNL     1       5.299  -5.082   2.648  0.00  0.00    +0.000 C 
ATOM      3  F   UNL     1       4.264  -5.604   1.947  0.00  0.00    +0.000 F 
ENDROOT
BRANCH   1   7
ATOM      4  C   UNL     1       3.169  -0.814   0.549  0.00  0.00    +0.000 A 
ATOM      5  C   UNL     1       2.540  -1.900   1.155  0.00  0.00    +0.000 A 
ATOM      6  C   UNL     1       3.298  -2.873   1.820  0.00  0.00    +0.000 A 
ATOM      7  C   UNL     1       4.694  -2.782   1.879  0.00  0.00    +0.000 A 
ATOM      8  C   UNL     1       5.316  -1.680   1.282  0.00  0.00    +0.000 A 
ATOM      9  C   UNL     1       4.559  -0.709   0.619  0.00  0.00    +0.000 A 
BRANCH   4  11
ATOM     10  C   UNL     1       1.135   0.133  -0.234  0.00  0.00    +0.000 C 
ATOM     11  O   UNL     1       2.552   0.202  -0.126  0.00  0.00    +0.000 OA
ENDBRANCH   4  11
ENDBRANCH   1   7
BRANCH   2  12
ATOM     12  C   UNL     1       6.148  -6.051   3.367  0.00  0.00    +0.000 A 
ATOM     13  C   UNL     1       6.897  -5.713   4.505  0.00  0.00    +0.000 A 
ATOM     14  C   UNL     1       7.673  -6.673   5.161  0.00  0.00    +0.000 A 
ATOM     15  C   UNL     1       7.704  -7.985   4.694  0.00  0.00    +0.000 A 
ATOM     16  C   UNL     1       6.956  -8.340   3.575  0.00  0.00    +0.000 A 
ATOM     17  C   UNL     1       6.180  -7.380   2.920  0.00  0.00    +0.000 A 
ENDBRANCH   2  12
TORSDOF 3
