MODEL 1
REMARK VINA RESULT:      -3.9      0.000      0.000
REMARK  Name = *****
REMARK  3 active torsions:
REMARK  status: ('A' for Active; 'I' for Inactive)
REMARK    1  A    between atoms: C_3  and  O_8
REMARK    2  A    between atoms: O_8  and  C_9
REMARK    3  A    between atoms: C_9  and  C_10
REMARK                            x       y       z     vdW  Elec       q    Type
REMARK                         _______ _______ _______ _____ _____    ______ ____
ROOT
ATOM      1  C   UNL     1      98.538 127.855  82.839  0.00  0.00    +0.000 A 
ATOM      2  C   UNL     1      99.331 126.798  82.382  0.00  0.00    +0.000 A 
ATOM      3  C   UNL     1     100.716 126.829  82.564  0.00  0.00    +0.000 A 
ATOM      4  C   UNL     1     101.298 127.920  83.215  0.00  0.00    +0.000 A 
ATOM      5  C   UNL     1     100.503 128.972  83.669  0.00  0.00    +0.000 A 
ATOM      6  C   UNL     1      99.124 128.946  83.482  0.00  0.00    +0.000 A 
ATOM      7 CL   UNL     1     101.231 130.313  84.464  0.00  0.00    +0.000 Cl
ENDROOT
BRANCH   3   8
ATOM      8  O   UNL     1     101.602 125.868  82.163  0.00  0.00    +0.000 OA
BRANCH   8   9
ATOM      9  C   UNL     1     102.963 126.026  82.566  0.00  0.00    +0.000 C 
BRANCH   9  10
ATOM     10  C   UNL     1     103.721 124.862  81.999  0.00  0.00    +0.000 A 
ATOM     11  C   UNL     1     104.014 124.586  80.676  0.00  0.00    +0.000 A 
ATOM     12  C   UNL     1     104.767 123.386  80.523  0.00  0.00    +0.000 A 
ATOM     13  C   UNL     1     105.032 122.789  81.735  0.00  0.00    +0.000 A 
ATOM     14  S   UNL     1     104.377 123.673  83.044  0.00  0.00    +0.000 S 
ENDBRANCH   9  10
ENDBRANCH   8   9
ENDBRANCH   3   8
TORSDOF 3
ENDMDL
