MODEL 1
REMARK VINA RESULT:      -4.6      0.000      0.000
REMARK  Name = *****
REMARK  3 active torsions:
REMARK  status: ('A' for Active; 'I' for Inactive)
REMARK    1  A    between atoms: C_5  and  C_7
REMARK    2  A    between atoms: C_7  and  O_9
REMARK    3  A    between atoms: O_9  and  C_10
REMARK                            x       y       z     vdW  Elec       q    Type
REMARK                         _______ _______ _______ _____ _____    ______ ____
ROOT
ATOM      1  C   UNL     1     101.779 125.999  82.865  0.00  0.00    +0.000 C 
ATOM      2  O   UNL     1     102.252 125.362  83.796  0.00  0.00    +0.000 OA
ENDROOT
BRANCH   1   7
ATOM      3  C   UNL     1     100.590 129.405  83.941  0.00  0.00    +0.000 A 
ATOM      4  C   UNL     1      99.266 129.405  83.501  0.00  0.00    +0.000 A 
ATOM      5  C   UNL     1      98.753 128.291  82.838  0.00  0.00    +0.000 A 
ATOM      6  C   UNL     1      99.562 127.175  82.622  0.00  0.00    +0.000 A 
ATOM      7  C   UNL     1     100.883 127.157  83.070  0.00  0.00    +0.000 A 
ATOM      8  C   UNL     1     101.398 128.286  83.724  0.00  0.00    +0.000 A 
ATOM      9  F   UNL     1      99.037 126.140  81.950  0.00  0.00    +0.000 F 
ENDBRANCH   1   7
BRANCH   1  10
ATOM     10  O   UNL     1     101.905 125.732  81.517  0.00  0.00    +0.000 OA
BRANCH  10  11
ATOM     11  C   UNL     1     103.209 125.894  81.042  0.00  0.00    +0.000 A 
ATOM     12  C   UNL     1     103.926 124.788  80.593  0.00  0.00    +0.000 A 
ATOM     13  C   UNL     1     105.205 124.985  80.080  0.00  0.00    +0.000 A 
ATOM     14  C   UNL     1     105.751 126.268  80.002  0.00  0.00    +0.000 A 
ATOM     15  C   UNL     1     105.010 127.370  80.437  0.00  0.00    +0.000 A 
ATOM     16  C   UNL     1     103.728 127.184  80.954  0.00  0.00    +0.000 A 
ATOM     17 CL   UNL     1     106.119 123.634  79.527  0.00  0.00    +0.000 Cl
ENDBRANCH  10  11
ENDBRANCH   1  10
TORSDOF 3
ENDMDL
