MODEL 1
REMARK VINA RESULT:      -4.6      0.000      0.000
REMARK  Name = *****
REMARK  4 active torsions:
REMARK  status: ('A' for Active; 'I' for Inactive)
REMARK    1  A    between atoms: C_3  and  C_8
REMARK    2  A    between atoms: C_5  and  S_7
REMARK    3  A    between atoms: C_9  and  C_10
REMARK    4  A    between atoms: C_12  and  S_16
REMARK                            x       y       z     vdW  Elec       q    Type
REMARK                         _______ _______ _______ _____ _____    ______ ____
ROOT
ATOM      1  C   UNL     1     102.056 126.117  82.161  0.00  0.00    +0.000 C 
ATOM      2  C   UNL     1     102.931 125.404  81.748  0.00  0.00    +0.000 C 
ENDROOT
BRANCH   1   5
ATOM      3  C   UNL     1      98.696 127.628  82.708  0.00  0.00    +0.000 A 
ATOM      4  C   UNL     1      99.693 126.736  82.311  0.00  0.00    +0.000 A 
ATOM      5  C   UNL     1     101.029 127.008  82.606  0.00  0.00    +0.000 A 
ATOM      6  C   UNL     1     101.369 128.168  83.309  0.00  0.00    +0.000 A 
ATOM      7  C   UNL     1     100.373 129.066  83.706  0.00  0.00    +0.000 A 
ATOM      8  C   UNL     1      99.036 128.790  83.403  0.00  0.00    +0.000 A 
BRANCH   7   9
ATOM      9  S   UNL     1     100.775 130.556  84.595  0.00  0.00    +0.000 S 
ATOM     10  H   UNL     1     100.512 130.380  85.918  0.00  0.00    +0.000 HD
ENDBRANCH   7   9
ENDBRANCH   1   5
BRANCH   2  11
ATOM     11  C   UNL     1     103.987 124.601  81.211  0.00  0.00    +0.000 A 
ATOM     12  C   UNL     1     104.651 125.002  80.047  0.00  0.00    +0.000 A 
ATOM     13  C   UNL     1     105.648 124.192  79.494  0.00  0.00    +0.000 A 
ATOM     14  C   UNL     1     105.980 122.985  80.117  0.00  0.00    +0.000 A 
ATOM     15  C   UNL     1     105.325 122.590  81.284  0.00  0.00    +0.000 A 
ATOM     16  C   UNL     1     104.328 123.397  81.831  0.00  0.00    +0.000 A 
BRANCH  13  17
ATOM     17  S   UNL     1     106.503 124.667  78.006  0.00  0.00    +0.000 S 
ATOM     18  H   UNL     1     106.987 125.930  78.145  0.00  0.00    +0.000 HD
ENDBRANCH  13  17
ENDBRANCH   2  11
TORSDOF 4
ENDMDL
