REMARK  Name = *****
REMARK  5 active torsions:
REMARK  status: ('A' for Active; 'I' for Inactive)
REMARK    1  A    between atoms: C_1  and  C_2
REMARK    2  A    between atoms: C_5  and  S_8
REMARK    3  A    between atoms: S_8  and  C_9
REMARK    4  A    between atoms: C_9  and  C_10
REMARK    5  A    between atoms: C_9  and  C_11
REMARK                            x       y       z     vdW  Elec       q    Type
REMARK                         _______ _______ _______ _____ _____    ______ ____
ROOT
ATOM      1  S   UNL     1      -2.713  -0.070   0.694  0.00  0.00    +0.000 S 
ENDROOT
BRANCH   1   6
ATOM      2  C   UNL     1      -1.602  -2.119  -4.937  0.00  0.00    +0.000 C 
ATOM      3  C   UNL     1      -1.896  -1.590  -3.565  0.00  0.00    +0.000 A 
ATOM      4  C   UNL     1      -1.127  -0.553  -3.026  0.00  0.00    +0.000 A 
ATOM      5  C   UNL     1      -1.375  -0.084  -1.733  0.00  0.00    +0.000 A 
ATOM      6  C   UNL     1      -2.400  -0.640  -0.965  0.00  0.00    +0.000 A 
ATOM      7  C   UNL     1      -3.147  -1.699  -1.487  0.00  0.00    +0.000 A 
ATOM      8  C   UNL     1      -2.897  -2.171  -2.779  0.00  0.00    +0.000 A 
ENDBRANCH   1   6
BRANCH   1   9
ATOM      9  C   UNL     1      -3.751   1.428   0.396  0.00  0.00    +0.000 C 
ATOM     10  C   UNL     1      -5.072   1.065  -0.288  0.00  0.00    +0.000 C 
BRANCH   9  11
ATOM     11  C   UNL     1      -2.965   2.567  -0.234  0.00  0.00    +0.000 A 
ATOM     12  C   UNL     1      -2.062   3.296   0.562  0.00  0.00    +0.000 A 
ATOM     13  C   UNL     1      -1.316   4.347   0.026  0.00  0.00    +0.000 A 
ATOM     14  C   UNL     1      -1.457   4.688  -1.315  0.00  0.00    +0.000 A 
ATOM     15  C   UNL     1      -2.343   3.976  -2.121  0.00  0.00    +0.000 A 
ATOM     16  C   UNL     1      -3.091   2.924  -1.585  0.00  0.00    +0.000 A 
ENDBRANCH   9  11
ENDBRANCH   1   9
TORSDOF 3
