REMARK  Name = *****
REMARK  4 active torsions:
REMARK  status: ('A' for Active; 'I' for Inactive)
REMARK    1  A    between atoms: C_4  and  C_7
REMARK    2  A    between atoms: C_7  and  N_8
REMARK    3  A    between atoms: N_8  and  C_9
REMARK    4  A    between atoms: C_9  and  C_11
REMARK                            x       y       z     vdW  Elec       q    Type
REMARK                         _______ _______ _______ _____ _____    ______ ____
ROOT
ATOM      1  N   UNL     1      -3.762  -0.660  -0.374  0.00  0.00    +0.000 N 
ATOM      2  H   UNL     1      -4.052  -1.079   0.468  0.00  0.00    +0.000 HD
ENDROOT
BRANCH   1   3
ATOM      3  C   UNL     1      -4.233  -1.242  -1.536  0.00  0.00    +0.000 C 
ATOM      4  S   UNL     1      -3.950  -0.641  -3.077  0.00  0.00    +0.000 S 
BRANCH   3   5
ATOM      5  C   UNL     1      -5.027  -2.466  -1.371  0.00  0.00    +0.000 A 
ATOM      6  C   UNL     1      -5.642  -3.272  -2.321  0.00  0.00    +0.000 A 
ATOM      7  C   UNL     1      -6.329  -4.388  -1.758  0.00  0.00    +0.000 A 
ATOM      8  C   UNL     1      -6.226  -4.416  -0.389  0.00  0.00    +0.000 A 
ATOM      9  S   UNL     1      -5.309  -3.109   0.209  0.00  0.00    +0.000 S 
ENDBRANCH   3   5
ENDBRANCH   1   3
BRANCH   1  10
ATOM     10  C   UNL     1      -2.891   0.498  -0.245  0.00  0.00    +0.000 C 
BRANCH  10  14
ATOM     11  C   UNL     1       1.337  -0.328   0.144  0.00  0.00    +0.000 A 
ATOM     12  C   UNL     1       0.442  -1.391   0.060  0.00  0.00    +0.000 A 
ATOM     13  C   UNL     1      -0.928  -1.148  -0.070  0.00  0.00    +0.000 A 
ATOM     14  C   UNL     1      -1.422   0.164  -0.119  0.00  0.00    +0.000 A 
ATOM     15  C   UNL     1      -0.504   1.224  -0.031  0.00  0.00    +0.000 A 
ATOM     16  C   UNL     1       0.864   0.980   0.099  0.00  0.00    +0.000 A 
ENDBRANCH  10  14
ENDBRANCH   1  10
TORSDOF 4
