MODEL 1
REMARK VINA RESULT:      -4.6      0.000      0.000
REMARK  Name = *****
REMARK  5 active torsions:
REMARK  status: ('A' for Active; 'I' for Inactive)
REMARK    1  A    between atoms: C_1  and  C_2
REMARK    2  A    between atoms: C_5  and  C_8
REMARK    3  A    between atoms: N_6  and  C_7
REMARK    4  A    between atoms: C_9  and  C_10
REMARK    5  A    between atoms: C_13  and  C_16
REMARK                            x       y       z     vdW  Elec       q    Type
REMARK                         _______ _______ _______ _____ _____    ______ ____
ROOT
ATOM      1  C   UNL     1     103.853 124.573  81.797  0.00  0.00    +0.000 A 
ATOM      2  C   UNL     1     104.329 124.473  80.488  0.00  0.00    +0.000 A 
ATOM      3  C   UNL     1     105.396 123.618  80.193  0.00  0.00    +0.000 A 
ATOM      4  C   UNL     1     105.998 122.854  81.205  0.00  0.00    +0.000 A 
ATOM      5  C   UNL     1     105.511 122.964  82.518  0.00  0.00    +0.000 A 
ATOM      6  C   UNL     1     104.444 123.819  82.812  0.00  0.00    +0.000 A 
ENDROOT
BRANCH   4   7
ATOM      7  C   UNL     1     107.149 121.925  80.905  0.00  0.00    +0.000 C 
ATOM      8  F   UNL     1     106.797 120.610  80.875  0.00  0.00    +0.000 F 
ATOM      9  F   UNL     1     107.726 122.184  79.698  0.00  0.00    +0.000 F 
ATOM     10  F   UNL     1     108.150 122.023  81.825  0.00  0.00    +0.000 F 
ENDBRANCH   4   7
BRANCH   1  12
ATOM     11  C   UNL     1     101.843 126.177  82.353  0.00  0.00    +0.000 C 
ATOM     12  C   UNL     1     102.760 125.445  82.095  0.00  0.00    +0.000 C 
BRANCH  11  17
ATOM     13  C   UNL     1      99.191 130.039  84.036  0.00  0.00    +0.000 C 
ATOM     14  C   UNL     1      99.535 128.743  83.399  0.00  0.00    +0.000 A 
ATOM     15  N   UNL     1      98.675 127.902  82.857  0.00  0.00    +0.000 NA
ATOM     16  C   UNL     1      99.424 126.849  82.400  0.00  0.00    +0.000 A 
ATOM     17  C   UNL     1     100.760 127.042  82.664  0.00  0.00    +0.000 A 
ATOM     18  N   UNL     1     100.821 128.256  83.297  0.00  0.00    +0.000 N 
ATOM     19  C   UNL     1     102.005 128.921  83.784  0.00  0.00    +0.000 C 
ENDBRANCH  11  17
ENDBRANCH   1  12
TORSDOF 3
ENDMDL
