REMARK  Name = *****
REMARK  3 active torsions:
REMARK  status: ('A' for Active; 'I' for Inactive)
REMARK    1  A    between atoms: C_4  and  C_6
REMARK    2  A    between atoms: C_6  and  C_7
REMARK    3  A    between atoms: C_7  and  C_8
REMARK                            x       y       z     vdW  Elec       q    Type
REMARK                         _______ _______ _______ _____ _____    ______ ____
ROOT
ATOM      1  C   UNL     1       0.178  -3.524  -0.379  0.00  0.00    +0.000 C 
ENDROOT
BRANCH   1   2
ATOM      2  C   UNL     1      -0.381  -4.918  -0.215  0.00  0.00    +0.000 A 
ATOM      3  C   UNL     1      -1.457  -5.349  -1.004  0.00  0.00    +0.000 A 
ATOM      4  C   UNL     1      -1.982  -6.633  -0.845  0.00  0.00    +0.000 A 
ATOM      5  C   UNL     1      -1.432  -7.492   0.103  0.00  0.00    +0.000 A 
ATOM      6  C   UNL     1      -0.363  -7.078   0.895  0.00  0.00    +0.000 A 
ATOM      7  C   UNL     1       0.160  -5.793   0.737  0.00  0.00    +0.000 A 
ATOM      8 CL   UNL     1      -2.078  -9.075   0.299  0.00  0.00    +0.000 Cl
ENDBRANCH   1   2
BRANCH   1   9
ATOM      9  C   UNL     1      -0.731  -2.465   0.250  0.00  0.00    +0.000 C 
BRANCH   9  13
ATOM     10  C   UNL     1       0.800   0.913   0.372  0.00  0.00    +0.000 A 
ATOM     11  C   UNL     1       0.538   0.652  -0.952  0.00  0.00    +0.000 A 
ATOM     12  O   UNL     1      -0.031  -0.572  -1.092  0.00  0.00    +0.000 OA
ATOM     13  C   UNL     1      -0.131  -1.109   0.157  0.00  0.00    +0.000 A 
ATOM     14  C   UNL     1       0.366  -0.226   1.092  0.00  0.00    +0.000 A 
ENDBRANCH   9  13
ENDBRANCH   1   9
TORSDOF 3
