MODEL 1
REMARK VINA RESULT:      -3.9      0.000      0.000
REMARK  Name = *****
REMARK  5 active torsions:
REMARK  status: ('A' for Active; 'I' for Inactive)
REMARK    1  A    between atoms: C_1  and  C_2
REMARK    2  A    between atoms: C_3  and  C_9
REMARK    3  A    between atoms: C_9  and  C_10
REMARK    4  A    between atoms: C_10  and  C_11
REMARK    5  A    between atoms: C_11  and  C_12
REMARK                            x       y       z     vdW  Elec       q    Type
REMARK                         _______ _______ _______ _____ _____    ______ ____
ROOT
ATOM      1  C   UNL     1      89.592  68.006  84.053  0.00  0.00    +0.000 C 
ENDROOT
BRANCH   1   4
ATOM      2  C   UNL     1      86.522  67.717  84.036  0.00  0.00    +0.000 C 
ATOM      3  C   UNL     1      87.425  67.190  85.124  0.00  0.00    +0.000 C 
ATOM      4  C   UNL     1      88.770  67.329  85.128  0.00  0.00    +0.000 C 
ATOM      5  C   UNL     1      89.571  66.724  86.251  0.00  0.00    +0.000 C 
ATOM      6  O   UNL     1      90.792  66.869  86.302  0.00  0.00    +0.000 OA
ATOM      7  C   UNL     1      88.855  65.869  87.269  0.00  0.00    +0.000 C 
ATOM      8  C   UNL     1      87.461  66.402  87.532  0.00  0.00    +0.000 C 
ATOM      9  C   UNL     1      86.667  66.495  86.236  0.00  0.00    +0.000 C 
ENDBRANCH   1   4
BRANCH   1  10
ATOM     10  C   UNL     1      89.338  69.516  84.012  0.00  0.00    +0.000 C 
BRANCH  10  11
ATOM     11  C   UNL     1      90.095  70.233  85.133  0.00  0.00    +0.000 C 
BRANCH  11  12
ATOM     12  C   UNL     1      89.180  70.763  86.255  0.00  0.00    +0.000 C 
ATOM     13  C   UNL     1      89.328  69.963  87.560  0.00  0.00    +0.000 C 
ATOM     14  C   UNL     1      88.356  70.437  88.638  0.00  0.00    +0.000 C 
ATOM     15  C   UNL     1      86.913  70.422  88.147  0.00  0.00    +0.000 C 
ATOM     16  C   UNL     1      86.755  71.227  86.862  0.00  0.00    +0.000 C 
ATOM     17  C   UNL     1      87.717  70.746  85.779  0.00  0.00    +0.000 C 
ENDBRANCH  11  12
ENDBRANCH  10  11
ENDBRANCH   1  10
TORSDOF 4
ENDMDL
