REMARK  Name = *****
REMARK  3 active torsions:
REMARK  status: ('A' for Active; 'I' for Inactive)
REMARK    1  A    between atoms: C_5  and  O_7
REMARK    2  A    between atoms: O_7  and  C_8
REMARK    3  A    between atoms: C_8  and  C_10
REMARK                            x       y       z     vdW  Elec       q    Type
REMARK                         _______ _______ _______ _____ _____    ______ ____
ROOT
ATOM      1  C   UNL     1       2.355  -1.946   0.035  0.00  0.00    +0.000 C 
ATOM      2  O   UNL     1       2.963  -1.085  -0.582  0.00  0.00    +0.000 OA
ENDROOT
BRANCH   1   3
ATOM      3  C   UNL     1       2.978  -3.231   0.462  0.00  0.00    +0.000 A 
ATOM      4  C   UNL     1       2.265  -4.231   1.144  0.00  0.00    +0.000 A 
ATOM      5  C   UNL     1       2.899  -5.425   1.500  0.00  0.00    +0.000 A 
ATOM      6  C   UNL     1       4.238  -5.618   1.176  0.00  0.00    +0.000 A 
ATOM      7  C   UNL     1       4.959  -4.639   0.502  0.00  0.00    +0.000 A 
ATOM      8  C   UNL     1       4.330  -3.444   0.145  0.00  0.00    +0.000 A 
ATOM      9  F   UNL     1       4.839  -6.765   1.514  0.00  0.00    +0.000 F 
ENDBRANCH   1   3
BRANCH   1  10
ATOM     10  O   UNL     1       1.039  -1.903   0.451  0.00  0.00    +0.000 OA
BRANCH  10  15
ATOM     11  C   UNL     1      -0.658   1.342   0.122  0.00  0.00    +0.000 A 
ATOM     12  C   UNL     1      -1.125   1.263  -1.195  0.00  0.00    +0.000 A 
ATOM     13  C   UNL     1      -0.865   0.127  -1.964  0.00  0.00    +0.000 A 
ATOM     14  C   UNL     1      -0.134  -0.920  -1.414  0.00  0.00    +0.000 A 
ATOM     15  C   UNL     1       0.346  -0.830  -0.109  0.00  0.00    +0.000 A 
ATOM     16  C   UNL     1       0.075   0.290   0.674  0.00  0.00    +0.000 A 
ATOM     17  F   UNL     1       0.095  -2.021  -2.144  0.00  0.00    +0.000 F 
ENDBRANCH  10  15
ENDBRANCH   1  10
TORSDOF 3
