MODEL 1
REMARK VINA RESULT:      -4.6      0.000      0.000
REMARK  Name = *****
REMARK  5 active torsions:
REMARK  status: ('A' for Active; 'I' for Inactive)
REMARK    1  A    between atoms: C_1  and  O_2
REMARK    2  A    between atoms: O_2  and  C_3
REMARK    3  A    between atoms: C_3  and  C_4
REMARK    4  A    between atoms: C_3  and  C_10
REMARK    5  A    between atoms: C_10  and  C_11
REMARK                            x       y       z     vdW  Elec       q    Type
REMARK                         _______ _______ _______ _____ _____    ______ ____
ROOT
ATOM      1  C   UNL     1      87.685  70.811  85.741  0.00  0.00    +0.000 C 
ENDROOT
BRANCH   1   2
ATOM      2  C   UNL     1      86.427  71.398  86.366  0.00  0.00    +0.000 A 
ATOM      3  C   UNL     1      85.401  71.957  85.589  0.00  0.00    +0.000 A 
ATOM      4  C   UNL     1      84.265  72.501  86.191  0.00  0.00    +0.000 A 
ATOM      5  C   UNL     1      84.138  72.495  87.579  0.00  0.00    +0.000 A 
ATOM      6  C   UNL     1      85.148  71.948  88.366  0.00  0.00    +0.000 A 
ATOM      7  C   UNL     1      86.285  71.404  87.764  0.00  0.00    +0.000 A 
ENDBRANCH   1   2
BRANCH   1   9
ATOM      8  C   UNL     1      88.517  71.273  83.553  0.00  0.00    +0.000 C 
ATOM      9  O   UNL     1      88.311  71.773  84.867  0.00  0.00    +0.000 OA
ENDBRANCH   1   9
BRANCH   1  10
ATOM     10  C   UNL     1      88.698  70.249  86.777  0.00  0.00    +0.000 C 
ATOM     11  F   UNL     1      89.901  70.881  86.571  0.00  0.00    +0.000 F 
BRANCH  10  12
ATOM     12  C   UNL     1      88.834  68.740  86.814  0.00  0.00    +0.000 A 
ATOM     13  C   UNL     1      89.962  68.115  86.263  0.00  0.00    +0.000 A 
ATOM     14  C   UNL     1      90.093  66.725  86.297  0.00  0.00    +0.000 A 
ATOM     15  C   UNL     1      89.099  65.945  86.883  0.00  0.00    +0.000 A 
ATOM     16  C   UNL     1      87.973  66.553  87.435  0.00  0.00    +0.000 A 
ATOM     17  C   UNL     1      87.842  67.942  87.403  0.00  0.00    +0.000 A 
ENDBRANCH  10  12
ENDBRANCH   1  10
TORSDOF 4
ENDMDL
