MODEL 1
REMARK VINA RESULT:      -4.5      0.000      0.000
REMARK  Name = *****
REMARK  4 active torsions:
REMARK  status: ('A' for Active; 'I' for Inactive)
REMARK    1  A    between atoms: C_3  and  C_8
REMARK    2  A    between atoms: C_8  and  C_9
REMARK    3  A    between atoms: C_9  and  C_10
REMARK    4  A    between atoms: C_10  and  C_12
REMARK                            x       y       z     vdW  Elec       q    Type
REMARK                         _______ _______ _______ _____ _____    ______ ____
ROOT
ATOM      1  C   UNL     1      89.739  68.387  86.461  0.00  0.00    +0.000 C 
ENDROOT
BRANCH   1   2
ATOM      2  C   UNL     1      89.441  69.873  86.387  0.00  0.00    +0.000 C 
ATOM      3  O   UNL     1      90.044  70.625  85.623  0.00  0.00    +0.000 OA
BRANCH   2   4
ATOM      4  C   UNL     1      88.377  70.438  87.273  0.00  0.00    +0.000 A 
ATOM      5  C   UNL     1      87.198  70.995  86.765  0.00  0.00    +0.000 A 
ATOM      6  C   UNL     1      86.241  71.508  87.643  0.00  0.00    +0.000 A 
ATOM      7  C   UNL     1      86.445  71.474  89.022  0.00  0.00    +0.000 A 
ATOM      8  C   UNL     1      87.616  70.920  89.533  0.00  0.00    +0.000 A 
ATOM      9  C   UNL     1      88.579  70.404  88.662  0.00  0.00    +0.000 A 
ATOM     10 CL   UNL     1      84.794  72.193  87.014  0.00  0.00    +0.000 Cl
ENDBRANCH   2   4
ENDBRANCH   1   2
BRANCH   1  11
ATOM     11  C   UNL     1      88.544  67.548  86.009  0.00  0.00    +0.000 C 
BRANCH  11  14
ATOM     12  C   UNL     1      86.227  66.570  88.874  0.00  0.00    +0.000 A 
ATOM     13  C   UNL     1      86.775  67.260  87.791  0.00  0.00    +0.000 A 
ATOM     14  C   UNL     1      87.938  66.790  87.164  0.00  0.00    +0.000 A 
ATOM     15  C   UNL     1      88.548  65.623  87.646  0.00  0.00    +0.000 A 
ATOM     16  C   UNL     1      87.995  64.939  88.729  0.00  0.00    +0.000 A 
ATOM     17  C   UNL     1      86.837  65.408  89.345  0.00  0.00    +0.000 A 
ATOM     18 CL   UNL     1      88.752  63.507  89.312  0.00  0.00    +0.000 Cl
ENDBRANCH  11  14
ENDBRANCH   1  11
TORSDOF 4
ENDMDL
