MODEL 1
REMARK VINA RESULT:      -4.6      0.000      0.000
REMARK  Name = *****
REMARK  3 active torsions:
REMARK  status: ('A' for Active; 'I' for Inactive)
REMARK    1  A    between atoms: C_4  and  N_7
REMARK    2  A    between atoms: N_7  and  N_8
REMARK    3  A    between atoms: N_8  and  C_10
REMARK                            x       y       z     vdW  Elec       q    Type
REMARK                         _______ _______ _______ _____ _____    ______ ____
ROOT
ATOM      1  N   UNL     1      87.853  63.463  86.551  0.00  0.00    +0.000 N 
ATOM      2  O   UNL     1      86.916  63.412  85.779  0.00  0.00    +0.000 OA
ENDROOT
BRANCH   1   3
ATOM      3  C   UNL     1      88.932  64.370  86.222  0.00  0.00    +0.000 A 
ATOM      4  C   UNL     1      88.872  65.737  86.523  0.00  0.00    +0.000 A 
ATOM      5  C   UNL     1      89.957  66.552  86.164  0.00  0.00    +0.000 A 
ATOM      6  C   UNL     1      91.079  66.006  85.526  0.00  0.00    +0.000 A 
ATOM      7  C   UNL     1      91.132  64.643  85.242  0.00  0.00    +0.000 A 
ATOM      8  C   UNL     1      90.062  63.823  85.591  0.00  0.00    +0.000 A 
ATOM      9 CL   UNL     1      89.983  68.255  86.475  0.00  0.00    +0.000 Cl
ATOM     10 CL   UNL     1      87.502  66.413  87.341  0.00  0.00    +0.000 Cl
ENDBRANCH   1   3
BRANCH   1  11
ATOM     11  N   UNL     1      87.846  62.780  87.793  0.00  0.00    +0.000 N 
ATOM     12  H   UNL     1      87.868  61.799  87.724  0.00  0.00    +0.000 HD
BRANCH  11  16
ATOM     13  C   UNL     1      87.881  64.298  91.738  0.00  0.00    +0.000 A 
ATOM     14  C   UNL     1      86.664  64.054  91.110  0.00  0.00    +0.000 A 
ATOM     15  C   UNL     1      86.633  63.547  89.805  0.00  0.00    +0.000 A 
ATOM     16  C   UNL     1      87.813  63.273  89.108  0.00  0.00    +0.000 A 
ATOM     17  C   UNL     1      89.031  63.535  89.758  0.00  0.00    +0.000 A 
ATOM     18  C   UNL     1      89.068  64.039  91.061  0.00  0.00    +0.000 A 
ENDBRANCH  11  16
ENDBRANCH   1  11
TORSDOF 3
ENDMDL
