MODEL 1
REMARK VINA RESULT:      -4.8      0.000      0.000
REMARK  Name = *****
REMARK  4 active torsions:
REMARK  status: ('A' for Active; 'I' for Inactive)
REMARK    1  A    between atoms: C_6  and  C_7
REMARK    2  A    between atoms: C_7  and  C_8
REMARK    3  A    between atoms: C_8  and  C_9
REMARK    4  A    between atoms: C_8  and  O_16
REMARK                            x       y       z     vdW  Elec       q    Type
REMARK                         _______ _______ _______ _____ _____    ______ ____
ROOT
ATOM      1  C   UNL     1      88.608  64.027  89.008  0.00  0.00    +0.000 C 
ENDROOT
BRANCH   1   2
ATOM      2  C   UNL     1      87.389  63.245  89.460  0.00  0.00    +0.000 A 
ATOM      3  C   UNL     1      86.766  63.526  90.688  0.00  0.00    +0.000 A 
ATOM      4  C   UNL     1      85.650  62.796  91.102  0.00  0.00    +0.000 A 
ATOM      5  C   UNL     1      85.149  61.780  90.293  0.00  0.00    +0.000 A 
ATOM      6  C   UNL     1      85.755  61.486  89.073  0.00  0.00    +0.000 A 
ATOM      7  C   UNL     1      86.872  62.215  88.658  0.00  0.00    +0.000 A 
ATOM      8 CL   UNL     1      83.773  60.880  90.802  0.00  0.00    +0.000 Cl
ENDBRANCH   1   2
BRANCH   1   9
ATOM      9  O   UNL     1      89.778  63.263  89.316  0.00  0.00    +0.000 OA
ATOM     10  H   UNL     1      89.648  62.797  90.157  0.00  0.00    +0.000 HD
ENDBRANCH   1   9
BRANCH   1  11
ATOM     11  C   UNL     1      88.559  64.338  87.501  0.00  0.00    +0.000 C 
BRANCH  11  17
ATOM     12  C   UNL     1      87.756  66.735  87.652  0.00  0.00    +0.000 A 
ATOM     13  C   UNL     1      87.907  68.098  87.384  0.00  0.00    +0.000 A 
ATOM     14  C   UNL     1      89.019  68.546  86.674  0.00  0.00    +0.000 A 
ATOM     15  C   UNL     1      89.980  67.644  86.228  0.00  0.00    +0.000 A 
ATOM     16  C   UNL     1      89.829  66.282  86.494  0.00  0.00    +0.000 A 
ATOM     17  C   UNL     1      88.715  65.814  87.205  0.00  0.00    +0.000 A 
ATOM     18 CL   UNL     1      89.204  70.226  86.349  0.00  0.00    +0.000 Cl
ENDBRANCH  11  17
ENDBRANCH   1  11
TORSDOF 4
ENDMDL
