MODEL 1
REMARK VINA RESULT:      -4.1      0.000      0.000
REMARK  Name = *****
REMARK  5 active torsions:
REMARK  status: ('A' for Active; 'I' for Inactive)
REMARK    1  A    between atoms: C_1  and  C_2
REMARK    2  A    between atoms: C_2  and  C_16
REMARK    3  A    between atoms: C_4  and  C_8
REMARK    4  A    between atoms: C_8  and  C_9
REMARK    5  A    between atoms: C_9  and  C_10
REMARK                            x       y       z     vdW  Elec       q    Type
REMARK                         _______ _______ _______ _____ _____    ______ ____
ROOT
ATOM      1  C   UNL     1      87.785  70.742  89.720  0.00  0.00    +0.000 C 
ATOM      2  C   UNL     1      87.633  70.272  88.264  0.00  0.00    +0.000 C 
ATOM      3  C   UNL     1      88.986  70.494  87.518  0.00  0.00    +0.000 C 
ATOM      4  C   UNL     1      88.856  70.681  86.019  0.00  0.00    +0.000 C 
ATOM      5  C   UNL     1      87.697  71.108  85.488  0.00  0.00    +0.000 C 
ATOM      6  C   UNL     1      86.556  71.418  86.316  0.00  0.00    +0.000 C 
ATOM      7  C   UNL     1      86.498  71.031  87.598  0.00  0.00    +0.000 C 
ATOM      8  C   UNL     1      87.272  68.775  88.262  0.00  0.00    +0.000 C 
ENDROOT
BRANCH   4   9
ATOM      9  C   UNL     1      90.067  70.379  85.169  0.00  0.00    +0.000 C 
BRANCH   9  10
ATOM     10  C   UNL     1      89.845  69.184  84.234  0.00  0.00    +0.000 C 
BRANCH  10  11
ATOM     11  C   UNL     1      89.331  67.979  84.983  0.00  0.00    +0.000 A 
ATOM     12  C   UNL     1      90.135  67.335  85.933  0.00  0.00    +0.000 A 
ATOM     13  C   UNL     1      89.665  66.211  86.612  0.00  0.00    +0.000 A 
ATOM     14  C   UNL     1      88.390  65.716  86.343  0.00  0.00    +0.000 A 
ATOM     15  C   UNL     1      87.584  66.344  85.396  0.00  0.00    +0.000 A 
ATOM     16  C   UNL     1      88.053  67.470  84.716  0.00  0.00    +0.000 A 
ENDBRANCH  10  11
ENDBRANCH   9  10
ENDBRANCH   4   9
TORSDOF 3
ENDMDL
