MODEL 1
REMARK VINA RESULT:      -4.9      0.000      0.000
REMARK  Name = *****
REMARK  6 active torsions:
REMARK  status: ('A' for Active; 'I' for Inactive)
REMARK    1  A    between atoms: C_1  and  C_2
REMARK    2  A    between atoms: C_2  and  C_4
REMARK    3  A    between atoms: C_7  and  C_10
REMARK    4  A    between atoms: C_11  and  C_12
REMARK    5  A    between atoms: C_14  and  C_17
REMARK    6  A    between atoms: C_14  and  C_18
REMARK                            x       y       z     vdW  Elec       q    Type
REMARK                         _______ _______ _______ _____ _____    ______ ____
ROOT
ATOM      1  C   UNL     1     100.189 128.836  83.646  0.00  0.00    +0.000 A 
ATOM      2  C   UNL     1      99.548 127.755  83.024  0.00  0.00    +0.000 A 
ATOM      3  C   UNL     1     100.285 126.725  82.425  0.00  0.00    +0.000 A 
ATOM      4  C   UNL     1     101.684 126.759  82.420  0.00  0.00    +0.000 A 
ATOM      5  C   UNL     1     102.327 127.831  83.049  0.00  0.00    +0.000 A 
ATOM      6  C   UNL     1     101.589 128.860  83.646  0.00  0.00    +0.000 A 
ENDROOT
BRANCH   1   8
ATOM      7  C   UNL     1      98.526 129.591  85.432  0.00  0.00    +0.000 C 
ATOM      8  C   UNL     1      99.409 129.932  84.263  0.00  0.00    +0.000 C 
ATOM      9  C   UNL     1      99.484 131.185  83.782  0.00  0.00    +0.000 C 
ENDBRANCH   1   8
BRANCH   4  10
ATOM     10  C   UNL     1     102.500 125.687  81.834  0.00  0.00    +0.000 C 
ATOM     11  C   UNL     1     103.376 124.944  82.529  0.00  0.00    +0.000 C 
BRANCH  11  12
ATOM     12  C   UNL     1     104.176 123.873  81.926  0.00  0.00    +0.000 C 
ATOM     13  N   UNL     1     104.747 122.912  82.577  0.00  0.00    +0.000 NA
ATOM     14  C   UNL     1     105.340 122.076  81.514  0.00  0.00    +0.000 C 
ATOM     15  C   UNL     1     105.297 122.961  80.275  0.00  0.00    +0.000 C 
ATOM     16  O   UNL     1     104.305 123.933  80.581  0.00  0.00    +0.000 OA
ATOM     17  C   UNL     1     106.766 121.699  81.901  0.00  0.00    +0.000 C 
ATOM     18  C   UNL     1     104.476 120.823  81.352  0.00  0.00    +0.000 C 
ENDBRANCH  11  12
ENDBRANCH   4  10
TORSDOF 3
ENDMDL
