REMARK  Name = *****
REMARK  2 active torsions:
REMARK  status: ('A' for Active; 'I' for Inactive)
REMARK    1  A    between atoms: C_2  and  C_10
REMARK    2  A    between atoms: C_10  and  C_11
REMARK                            x       y       z     vdW  Elec       q    Type
REMARK                         _______ _______ _______ _____ _____    ______ ____
ROOT
ATOM      1  C   UNL     1       2.294   0.101  -0.374  0.00  0.00    +0.000 C 
ATOM      2  C   UNL     1       1.520   1.371   0.038  0.00  0.00    +0.000 C 
ATOM      3  C   UNL     1       0.149   0.777  -0.016  0.00  0.00    +0.000 A 
ATOM      4  C   UNL     1      -1.090   1.392  -0.064  0.00  0.00    +0.000 A 
ATOM      5  C   UNL     1      -2.231   0.585  -0.052  0.00  0.00    +0.000 A 
ATOM      6  C   UNL     1      -2.119  -0.814   0.011  0.00  0.00    +0.000 A 
ATOM      7  C   UNL     1      -0.864  -1.423   0.051  0.00  0.00    +0.000 A 
ATOM      8  C   UNL     1       0.247  -0.607   0.023  0.00  0.00    +0.000 A 
ATOM      9  O   UNL     1       1.540  -1.062   0.041  0.00  0.00    +0.000 OA
ENDROOT
BRANCH   2  10
ATOM     10  C   UNL     1       1.919   1.865   1.446  0.00  0.00    +0.000 C 
ATOM     11 CL   UNL     1       0.966   3.326   1.913  0.00  0.00    +0.000 Cl
BRANCH  10  12
ATOM     12  C   UNL     1       3.391   2.221   1.573  0.00  0.00    +0.000 A 
ATOM     13  C   UNL     1       4.002   3.159   0.724  0.00  0.00    +0.000 A 
ATOM     14  C   UNL     1       5.360   3.457   0.851  0.00  0.00    +0.000 A 
ATOM     15  C   UNL     1       6.125   2.824   1.828  0.00  0.00    +0.000 A 
ATOM     16  C   UNL     1       5.534   1.896   2.681  0.00  0.00    +0.000 A 
ATOM     17  C   UNL     1       4.175   1.597   2.558  0.00  0.00    +0.000 A 
ENDBRANCH  10  12
ENDBRANCH   2  10
TORSDOF 2
