REMARK  Name = *****
REMARK  6 active torsions:
REMARK  status: ('A' for Active; 'I' for Inactive)
REMARK    1  A    between atoms: C_1  and  C_2
REMARK    2  A    between atoms: C_5  and  C_8
REMARK    3  A    between atoms: C_8  and  S_10
REMARK    4  A    between atoms: S_10  and  C_11
REMARK    5  A    between atoms: C_13  and  C_17
REMARK    6  A    between atoms: C_14  and  C_16
REMARK                            x       y       z     vdW  Elec       q    Type
REMARK                         _______ _______ _______ _____ _____    ______ ____
ROOT
ATOM      1  C   UNL     1      -3.221   0.253   0.223  0.00  0.00    +0.000 C 
ATOM      2  O   UNL     1      -3.884  -0.723   0.559  0.00  0.00    +0.000 OA
ENDROOT
BRANCH   1   7
ATOM      3  C   UNL     1       2.553  -0.334  -0.148  0.00  0.00    +0.000 C 
ATOM      4  C   UNL     1       1.067  -0.151  -0.050  0.00  0.00    +0.000 A 
ATOM      5  C   UNL     1       0.439   0.937  -0.664  0.00  0.00    +0.000 A 
ATOM      6  C   UNL     1      -0.950   1.094  -0.590  0.00  0.00    +0.000 A 
ATOM      7  C   UNL     1      -1.734   0.157   0.098  0.00  0.00    +0.000 A 
ATOM      8  C   UNL     1      -1.102  -0.945   0.693  0.00  0.00    +0.000 A 
ATOM      9  C   UNL     1       0.285  -1.098   0.618  0.00  0.00    +0.000 A 
ENDBRANCH   1   7
BRANCH   1  10
ATOM     10  S   UNL     1      -4.023   1.762  -0.185  0.00  0.00    +0.000 S 
BRANCH  10  11
ATOM     11  C   UNL     1      -3.729   2.604   1.319  0.00  0.00    +0.000 A 
ATOM     12  N   UNL     1      -2.844   2.198   2.200  0.00  0.00    +0.000 NA
ATOM     13  C   UNL     1      -2.806   3.063   3.281  0.00  0.00    +0.000 A 
ATOM     14  C   UNL     1      -3.665   4.145   3.187  0.00  0.00    +0.000 A 
ATOM     15  S   UNL     1      -4.543   4.059   1.715  0.00  0.00    +0.000 S 
ATOM     16  C   UNL     1      -3.892   5.274   4.129  0.00  0.00    +0.000 C 
ATOM     17  C   UNL     1      -1.872   2.754   4.395  0.00  0.00    +0.000 C 
ENDBRANCH  10  11
ENDBRANCH   1  10
TORSDOF 3
