MODEL 1
REMARK VINA RESULT:      -4.4      0.000      0.000
REMARK  Name = *****
REMARK  5 active torsions:
REMARK  status: ('A' for Active; 'I' for Inactive)
REMARK    1  A    between atoms: C_1  and  C_2
REMARK    2  A    between atoms: C_5  and  C_8
REMARK    3  A    between atoms: C_10  and  C_11
REMARK    4  A    between atoms: C_16  and  O_17
REMARK    5  A    between atoms: O_17  and  C_18
REMARK                            x       y       z     vdW  Elec       q    Type
REMARK                         _______ _______ _______ _____ _____    ______ ____
ROOT
ATOM      1  C   UNL     1      89.528  70.032  85.380  0.00  0.00    +0.000 C 
ATOM      2  C   UNL     1      88.890  69.620  84.073  0.00  0.00    +0.000 C 
ATOM      3  C   UNL     1      89.638  68.599  84.887  0.00  0.00    +0.000 C 
ENDROOT
BRANCH   1   8
ATOM      4  C   UNL     1      86.209  71.618  89.929  0.00  0.00    +0.000 C 
ATOM      5  C   UNL     1      87.060  71.224  88.760  0.00  0.00    +0.000 A 
ATOM      6  C   UNL     1      86.559  71.277  87.457  0.00  0.00    +0.000 A 
ATOM      7  C   UNL     1      87.357  70.893  86.375  0.00  0.00    +0.000 A 
ATOM      8  C   UNL     1      88.675  70.447  86.556  0.00  0.00    +0.000 A 
ATOM      9  C   UNL     1      89.149  70.366  87.875  0.00  0.00    +0.000 A 
ATOM     10  C   UNL     1      88.358  70.751  88.962  0.00  0.00    +0.000 A 
ENDBRANCH   1   8
BRANCH   3  11
ATOM     11  C   UNL     1      88.928  67.409  85.529  0.00  0.00    +0.000 A 
ATOM     12  C   UNL     1      87.526  67.286  85.602  0.00  0.00    +0.000 A 
ATOM     13  C   UNL     1      86.902  66.196  86.221  0.00  0.00    +0.000 A 
ATOM     14  C   UNL     1      87.666  65.181  86.786  0.00  0.00    +0.000 A 
ATOM     15  C   UNL     1      89.052  65.253  86.721  0.00  0.00    +0.000 A 
ATOM     16  C   UNL     1      89.665  66.338  86.082  0.00  0.00    +0.000 A 
BRANCH  16  17
ATOM     17  O   UNL     1      91.041  66.376  86.047  0.00  0.00    +0.000 OA
ATOM     18  C   UNL     1      91.538  65.272  85.287  0.00  0.00    +0.000 C 
ENDBRANCH  16  17
ENDBRANCH   3  11
TORSDOF 3
ENDMDL
