REMARK  Name = *****
REMARK  5 active torsions:
REMARK  status: ('A' for Active; 'I' for Inactive)
REMARK    1  A    between atoms: C_1  and  C_2
REMARK    2  A    between atoms: C_7  and  O_8
REMARK    3  A    between atoms: O_8  and  C_9
REMARK    4  A    between atoms: C_9  and  C_10
REMARK    5  A    between atoms: C_9  and  C_11
REMARK                            x       y       z     vdW  Elec       q    Type
REMARK                         _______ _______ _______ _____ _____    ______ ____
ROOT
ATOM      1  O   UNL     1       1.258  -2.081   0.262  0.00  0.00    +0.000 OA
ENDROOT
BRANCH   1   8
ATOM      2  C   UNL     1       1.499   0.625   1.164  0.00  0.00    +0.000 C 
ATOM      3  C   UNL     1       0.758   0.250  -0.128  0.00  0.00    +0.000 C 
ATOM      4  C   UNL     1      -0.364   1.251  -0.439  0.00  0.00    +0.000 C 
ATOM      5  C   UNL     1      -1.564   1.104   0.495  0.00  0.00    +0.000 C 
ATOM      6  C   UNL     1      -2.087  -0.328   0.522  0.00  0.00    +0.000 C 
ATOM      7  C   UNL     1      -0.987  -1.336   0.838  0.00  0.00    +0.000 C 
ATOM      8  C   UNL     1       0.206  -1.192  -0.117  0.00  0.00    +0.000 C 
ENDBRANCH   1   8
BRANCH   1   9
ATOM      9  C   UNL     1       1.105  -3.425  -0.207  0.00  0.00    +0.000 C 
ATOM     10  C   UNL     1       1.816  -3.569  -1.551  0.00  0.00    +0.000 C 
BRANCH   9  11
ATOM     11  C   UNL     1       1.694  -4.374   0.818  0.00  0.00    +0.000 A 
ATOM     12  C   UNL     1       1.071  -5.605   1.079  0.00  0.00    +0.000 A 
ATOM     13  C   UNL     1       1.618  -6.498   2.003  0.00  0.00    +0.000 A 
ATOM     14  C   UNL     1       2.795  -6.175   2.674  0.00  0.00    +0.000 A 
ATOM     15  C   UNL     1       3.428  -4.959   2.423  0.00  0.00    +0.000 A 
ATOM     16  C   UNL     1       2.882  -4.066   1.499  0.00  0.00    +0.000 A 
ENDBRANCH   9  11
ENDBRANCH   1   9
TORSDOF 3
