MODEL 1
REMARK VINA RESULT:      -4.9      0.000      0.000
REMARK  Name = *****
REMARK  3 active torsions:
REMARK  status: ('A' for Active; 'I' for Inactive)
REMARK    1  A    between atoms: C_4  and  C_7
REMARK    2  A    between atoms: C_7  and  C_8
REMARK    3  A    between atoms: C_8  and  C_10
REMARK                            x       y       z     vdW  Elec       q    Type
REMARK                         _______ _______ _______ _____ _____    ______ ____
ROOT
ATOM      1  C   UNL     1      88.865  70.131  86.581  0.00  0.00    +0.000 C 
ATOM      2  O   UNL     1      89.659  70.820  87.223  0.00  0.00    +0.000 OA
ENDROOT
BRANCH   1   3
ATOM      3  C   UNL     1      88.975  68.640  86.652  0.00  0.00    +0.000 A 
ATOM      4  C   UNL     1      90.027  67.930  86.065  0.00  0.00    +0.000 A 
ATOM      5  C   UNL     1      90.069  66.538  86.172  0.00  0.00    +0.000 A 
ATOM      6  C   UNL     1      89.074  65.843  86.859  0.00  0.00    +0.000 A 
ATOM      7  C   UNL     1      88.022  66.545  87.442  0.00  0.00    +0.000 A 
ATOM      8  C   UNL     1      87.972  67.936  87.338  0.00  0.00    +0.000 A 
ATOM      9 CL   UNL     1      91.367  65.669  85.449  0.00  0.00    +0.000 Cl
ENDBRANCH   1   3
BRANCH   1  10
ATOM     10  C   UNL     1      87.793  70.776  85.721  0.00  0.00    +0.000 C 
BRANCH  10  14
ATOM     11  C   UNL     1      84.422  72.328  87.924  0.00  0.00    +0.000 A 
ATOM     12  C   UNL     1      85.492  71.754  88.606  0.00  0.00    +0.000 A 
ATOM     13  C   UNL     1      86.583  71.249  87.898  0.00  0.00    +0.000 A 
ATOM     14  C   UNL     1      86.609  71.299  86.496  0.00  0.00    +0.000 A 
ATOM     15  C   UNL     1      85.535  71.898  85.823  0.00  0.00    +0.000 A 
ATOM     16  C   UNL     1      84.445  72.404  86.533  0.00  0.00    +0.000 A 
ENDBRANCH  10  14
ENDBRANCH   1  10
TORSDOF 3
ENDMDL
