MODEL 1
REMARK VINA RESULT:      -4.7      0.000      0.000
REMARK  Name = *****
REMARK  4 active torsions:
REMARK  status: ('A' for Active; 'I' for Inactive)
REMARK    1  A    between atoms: C_1  and  C_2
REMARK    2  A    between atoms: C_2  and  C_3
REMARK    3  A    between atoms: C_4  and  C_12
REMARK    4  A    between atoms: C_5  and  C_6
REMARK                            x       y       z     vdW  Elec       q    Type
REMARK                         _______ _______ _______ _____ _____    ______ ____
ROOT
ATOM      1  C   UNL     1     103.801 127.814  81.908  0.00  0.00    +0.000 C 
ATOM      2  C   UNL     1     102.757 126.891  82.495  0.00  0.00    +0.000 C 
ATOM      3  C   UNL     1     103.242 126.688  81.064  0.00  0.00    +0.000 C 
ENDROOT
BRANCH   3   4
ATOM      4  C   UNL     1     104.071 125.479  80.694  0.00  0.00    +0.000 A 
ATOM      5  C   UNL     1     105.036 125.524  79.674  0.00  0.00    +0.000 A 
ATOM      6  C   UNL     1     105.811 124.405  79.353  0.00  0.00    +0.000 A 
ATOM      7  C   UNL     1     105.644 123.217  80.057  0.00  0.00    +0.000 A 
ATOM      8  C   UNL     1     104.706 123.149  81.083  0.00  0.00    +0.000 A 
ATOM      9  C   UNL     1     103.934 124.270  81.398  0.00  0.00    +0.000 A 
ENDBRANCH   3   4
BRANCH   2  10
ATOM     10  C   UNL     1     101.355 127.397  82.745  0.00  0.00    +0.000 A 
ATOM     11  C   UNL     1     100.231 126.645  82.368  0.00  0.00    +0.000 A 
ATOM     12  C   UNL     1      98.932 127.104  82.611  0.00  0.00    +0.000 A 
ATOM     13  C   UNL     1      98.734 128.326  83.245  0.00  0.00    +0.000 A 
ATOM     14  C   UNL     1      99.832 129.086  83.640  0.00  0.00    +0.000 A 
ATOM     15  C   UNL     1     101.126 128.622  83.394  0.00  0.00    +0.000 A 
ENDBRANCH   2  10
BRANCH   1  17
ATOM     16  C   UNL     1     105.241 127.111  83.818  0.00  0.00    +0.000 C 
ATOM     17  C   UNL     1     105.193 127.804  82.466  0.00  0.00    +0.000 C 
ENDBRANCH   1  17
TORSDOF 3
ENDMDL
