REMARK  Name = *****
REMARK  8 active torsions:
REMARK  status: ('A' for Active; 'I' for Inactive)
REMARK    1  A    between atoms: C_1  and  C_2
REMARK    2  A    between atoms: C_4  and  C_19
REMARK    3  A    between atoms: C_5  and  C_9
REMARK    4  A    between atoms: C_6  and  C_8
REMARK    5  A    between atoms: C_9  and  C_10
REMARK    6  A    between atoms: C_10  and  C_12
REMARK    7  A    between atoms: C_13  and  C_18
REMARK    8  A    between atoms: C_15  and  C_17
REMARK                            x       y       z     vdW  Elec       q    Type
REMARK                         _______ _______ _______ _____ _____    ______ ____
ROOT
ATOM      1  C   UNL     1      -1.987  -2.058  -0.088  0.00  0.00    +0.000 C 
ENDROOT
BRANCH   1   6
ATOM      2  C   UNL     1       2.145   2.081   0.089  0.00  0.00    +0.000 C 
ATOM      3  C   UNL     1       1.090   1.017   0.025  0.00  0.00    +0.000 A 
ATOM      4  C   UNL     1       1.409  -0.315   0.296  0.00  0.00    +0.000 A 
ATOM      5  C   UNL     1       0.426  -1.319   0.277  0.00  0.00    +0.000 A 
ATOM      6  C   UNL     1      -0.914  -0.982  -0.034  0.00  0.00    +0.000 A 
ATOM      7  C   UNL     1      -1.248   0.374  -0.265  0.00  0.00    +0.000 A 
ATOM      8  C   UNL     1      -0.240   1.353  -0.238  0.00  0.00    +0.000 A 
ATOM      9  C   UNL     1      -2.659   0.813  -0.557  0.00  0.00    +0.000 C 
ATOM     10  C   UNL     1       0.847  -2.733   0.580  0.00  0.00    +0.000 C 
ENDBRANCH   1   6
BRANCH   1  11
ATOM     11  C   UNL     1      -2.710  -2.308   1.233  0.00  0.00    +0.000 C 
ATOM     12  O   UNL     1      -2.386  -1.733   2.272  0.00  0.00    +0.000 OA
BRANCH  11  13
ATOM     13  C   UNL     1      -3.822  -3.284   1.219  0.00  0.00    +0.000 A 
ATOM     14  C   UNL     1      -4.607  -3.578   2.330  0.00  0.00    +0.000 A 
ATOM     15  S   UNL     1      -5.810  -4.748   1.987  0.00  0.00    +0.000 S 
ATOM     16  C   UNL     1      -5.318  -4.891   0.364  0.00  0.00    +0.000 A 
ATOM     17  C   UNL     1      -4.254  -4.061   0.085  0.00  0.00    +0.000 A 
ATOM     18  C   UNL     1      -6.027  -5.832  -0.549  0.00  0.00    +0.000 C 
ATOM     19  C   UNL     1      -4.523  -3.015   3.715  0.00  0.00    +0.000 C 
ENDBRANCH  11  13
ENDBRANCH   1  11
TORSDOF 3
