MODEL 1
REMARK VINA RESULT:      -4.0      0.000      0.000
REMARK  Name = *****
REMARK  2 active torsions:
REMARK  status: ('A' for Active; 'I' for Inactive)
REMARK    1  A    between atoms: C_5  and  C_6
REMARK    2  A    between atoms: C_6  and  C_8
REMARK                            x       y       z     vdW  Elec       q    Type
REMARK                         _______ _______ _______ _____ _____    ______ ____
ROOT
ATOM      1  C   UNL     1     102.851 127.309  82.537  0.00  0.00    +0.000 C 
ATOM      2  O   UNL     1     103.588 128.188  82.107  0.00  0.00    +0.000 OA
ENDROOT
BRANCH   1   3
ATOM      3  C   UNL     1     101.405 127.590  82.758  0.00  0.00    +0.000 A 
ATOM      4  C   UNL     1     100.958 128.735  83.432  0.00  0.00    +0.000 A 
ATOM      5  C   UNL     1      99.589 128.939  83.609  0.00  0.00    +0.000 A 
ATOM      6  C   UNL     1      98.661 128.015  83.131  0.00  0.00    +0.000 A 
ATOM      7  C   UNL     1      99.102 126.868  82.475  0.00  0.00    +0.000 A 
ATOM      8  C   UNL     1     100.470 126.654  82.293  0.00  0.00    +0.000 A 
ATOM      9 CL   UNL     1      99.041 130.348  84.430  0.00  0.00    +0.000 Cl
ENDBRANCH   1   3
BRANCH   1  14
ATOM     10  C   UNL     1     104.662 122.681  81.251  0.00  0.00    +0.000 C 
ATOM     11  C   UNL     1     105.040 123.716  80.206  0.00  0.00    +0.000 C 
ATOM     12  S   UNL     1     103.925 125.133  80.419  0.00  0.00    +0.000 S 
ATOM     13  C   UNL     1     103.860 125.038  82.152  0.00  0.00    +0.000 C 
ATOM     14  C   UNL     1     103.363 125.980  82.964  0.00  0.00    +0.000 C 
ATOM     15  S   UNL     1     104.453 123.543  82.841  0.00  0.00    +0.000 S 
ENDBRANCH   1  14
TORSDOF 2
ENDMDL
