REMARK  Name = *****
REMARK  2 active torsions:
REMARK  status: ('A' for Active; 'I' for Inactive)
REMARK    1  A    between atoms: C_1  and  C_2
REMARK    2  A    between atoms: C_9  and  C_11
REMARK                            x       y       z     vdW  Elec       q    Type
REMARK                         _______ _______ _______ _____ _____    ______ ____
ROOT
ATOM      1  C   UNL     1       0.956   0.071   0.061  0.00  0.00    +0.000 C 
ATOM      2  C   UNL     1       2.459   0.063   0.090  0.00  0.00    +0.000 A 
ATOM      3  C   UNL     1       3.158  -1.156   0.080  0.00  0.00    +0.000 A 
ATOM      4  C   UNL     1       4.545  -1.065   0.104  0.00  0.00    +0.000 A 
ATOM      5  C   UNL     1       5.259   0.117   0.139  0.00  0.00    +0.000 A 
ATOM      6  C   UNL     1       4.561   1.330   0.149  0.00  0.00    +0.000 A 
ATOM      7  C   UNL     1       3.157   1.285   0.123  0.00  0.00    +0.000 A 
ATOM      8  N   UNL     1       6.604  -0.153   0.155  0.00  0.00    +0.000 NA
ATOM      9  C   UNL     1       6.672  -1.477   0.123  0.00  0.00    +0.000 A 
ATOM     10  O   UNL     1       5.438  -2.092   0.095  0.00  0.00    +0.000 OA
ENDROOT
BRANCH   9  11
ATOM     11  C   UNL     1       7.916  -2.198   0.112  0.00  0.00    +0.000 A 
ATOM     12  C   UNL     1       9.190  -1.662   0.173  0.00  0.00    +0.000 A 
ATOM     13  C   UNL     1      10.207  -2.661   0.129  0.00  0.00    +0.000 A 
ATOM     14  C   UNL     1       9.678  -3.928   0.038  0.00  0.00    +0.000 A 
ATOM     15  S   UNL     1       7.968  -3.908   0.010  0.00  0.00    +0.000 S 
ENDBRANCH   9  11
TORSDOF 1
