MODEL 1
REMARK VINA RESULT:      -4.8      0.000      0.000
REMARK  Name = *****
REMARK  5 active torsions:
REMARK  status: ('A' for Active; 'I' for Inactive)
REMARK    1  A    between atoms: C_1  and  C_2
REMARK    2  A    between atoms: C_4  and  O_8
REMARK    3  A    between atoms: O_8  and  C_9
REMARK    4  A    between atoms: C_9  and  C_11
REMARK    5  A    between atoms: C_15  and  C_18
REMARK                            x       y       z     vdW  Elec       q    Type
REMARK                         _______ _______ _______ _____ _____    ______ ____
ROOT
ATOM      1  C   UNL     1     101.745 126.062  82.801  0.00  0.00    +0.000 C 
ATOM      2  O   UNL     1     102.171 125.349  83.693  0.00  0.00    +0.000 OA
ENDROOT
BRANCH   1   3
ATOM      3  C   UNL     1     100.892 127.228  83.035  0.00  0.00    +0.000 A 
ATOM      4  C   UNL     1      99.562 127.195  82.635  0.00  0.00    +0.000 A 
ATOM      5  C   UNL     1      98.728 128.288  82.858  0.00  0.00    +0.000 A 
ATOM      6  C   UNL     1      99.227 129.426  83.497  0.00  0.00    +0.000 A 
ATOM      7  C   UNL     1     100.563 129.467  83.921  0.00  0.00    +0.000 A 
ATOM      8  C   UNL     1     101.386 128.360  83.678  0.00  0.00    +0.000 A 
ATOM      9  F   UNL     1     102.662 128.398  84.092  0.00  0.00    +0.000 F 
ATOM     10  C   UNL     1     101.122 130.683  84.596  0.00  0.00    +0.000 C 
ATOM     11  F   UNL     1      99.059 126.128  81.997  0.00  0.00    +0.000 F 
ENDBRANCH   1   3
BRANCH   1  12
ATOM     12  O   UNL     1     101.905 125.927  81.436  0.00  0.00    +0.000 OA
BRANCH  12  16
ATOM     13  C   UNL     1     105.957 123.838  79.520  0.00  0.00    +0.000 C 
ATOM     14  C   UNL     1     105.216 125.030  80.049  0.00  0.00    +0.000 A 
ATOM     15  C   UNL     1     103.906 124.898  80.525  0.00  0.00    +0.000 A 
ATOM     16  C   UNL     1     103.230 126.022  81.001  0.00  0.00    +0.000 A 
ATOM     17  C   UNL     1     103.813 127.286  80.969  0.00  0.00    +0.000 A 
ATOM     18  C   UNL     1     105.111 127.422  80.480  0.00  0.00    +0.000 A 
ATOM     19  C   UNL     1     105.807 126.301  80.021  0.00  0.00    +0.000 A 
ENDBRANCH  12  16
ENDBRANCH   1  12
TORSDOF 3
ENDMDL
