MODEL 1
REMARK VINA RESULT:      -4.6      0.000      0.000
REMARK  Name = *****
REMARK  4 active torsions:
REMARK  status: ('A' for Active; 'I' for Inactive)
REMARK    1  A    between atoms: C_1  and  C_2
REMARK    2  A    between atoms: C_3  and  C_8
REMARK    3  A    between atoms: C_8  and  C_9
REMARK    4  A    between atoms: C_9  and  C_10
REMARK                            x       y       z     vdW  Elec       q    Type
REMARK                         _______ _______ _______ _____ _____    ______ ____
ROOT
ATOM      1  C   UNL     1      89.357  70.532  87.445  0.00  0.00    +0.000 C 
ENDROOT
BRANCH   1   4
ATOM      2  C   UNL     1      89.824  71.485  84.560  0.00  0.00    +0.000 C 
ATOM      3  C   UNL     1      89.760  70.040  84.984  0.00  0.00    +0.000 C 
ATOM      4  C   UNL     1      89.587  69.614  86.257  0.00  0.00    +0.000 C 
ATOM      5  C   UNL     1      89.587  68.140  86.613  0.00  0.00    +0.000 C 
ATOM      6  C   UNL     1      90.145  67.233  85.519  0.00  0.00    +0.000 C 
ATOM      7  C   UNL     1      89.580  67.624  84.164  0.00  0.00    +0.000 C 
ATOM      8  C   UNL     1      89.932  69.071  83.829  0.00  0.00    +0.000 C 
ENDBRANCH   1   4
BRANCH   1   9
ATOM      9  C   UNL     1      88.025  70.235  88.149  0.00  0.00    +0.000 C 
BRANCH   9  10
ATOM     10  C   UNL     1      86.810  71.010  87.683  0.00  0.00    +0.000 A 
ATOM     11  C   UNL     1      86.523  71.279  86.339  0.00  0.00    +0.000 A 
ATOM     12  C   UNL     1      85.373  71.991  85.984  0.00  0.00    +0.000 A 
ATOM     13  C   UNL     1      84.497  72.445  86.967  0.00  0.00    +0.000 A 
ATOM     14  C   UNL     1      84.770  72.191  88.308  0.00  0.00    +0.000 A 
ATOM     15  C   UNL     1      85.917  71.480  88.662  0.00  0.00    +0.000 A 
ENDBRANCH   9  10
ENDBRANCH   1   9
TORSDOF 3
ENDMDL
