MODEL 1
REMARK VINA RESULT:      -3.9      0.000      0.000
REMARK  Name = *****
REMARK  3 active torsions:
REMARK  status: ('A' for Active; 'I' for Inactive)
REMARK    1  A    between atoms: C_4  and  C_7
REMARK    2  A    between atoms: C_7  and  O_8
REMARK    3  A    between atoms: O_8  and  C_9
REMARK                            x       y       z     vdW  Elec       q    Type
REMARK                         _______ _______ _______ _____ _____    ______ ____
ROOT
ATOM      1  C   UNL     1     102.333 125.895  82.604  0.00  0.00    +0.000 C 
ENDROOT
BRANCH   1   5
ATOM      2  C   UNL     1      99.186 128.776  83.239  0.00  0.00    +0.000 A 
ATOM      3  C   UNL     1     100.483 129.055  83.665  0.00  0.00    +0.000 A 
ATOM      4  C   UNL     1     101.502 128.125  83.457  0.00  0.00    +0.000 A 
ATOM      5  C   UNL     1     101.234 126.909  82.812  0.00  0.00    +0.000 A 
ATOM      6  C   UNL     1      99.922 126.633  82.400  0.00  0.00    +0.000 A 
ATOM      7  C   UNL     1      98.905 127.566  82.610  0.00  0.00    +0.000 A 
ENDBRANCH   1   5
BRANCH   1   8
ATOM      8  O   UNL     1     102.429 125.639  81.206  0.00  0.00    +0.000 OA
BRANCH   8   9
ATOM      9  C   UNL     1     103.684 125.385  80.756  0.00  0.00    +0.000 A 
ATOM     10  N   UNL     1     104.105 124.126  80.646  0.00  0.00    +0.000 NA
ATOM     11  S   UNL     1     105.666 124.144  80.076  0.00  0.00    +0.000 S 
ATOM     12  C   UNL     1     105.803 125.847  79.968  0.00  0.00    +0.000 A 
ATOM     13  C   UNL     1     104.612 126.393  80.383  0.00  0.00    +0.000 A 
ATOM     14 BR   UNL     1     104.243 128.238  80.455  0.00  0.00    +0.000 Br
ENDBRANCH   8   9
ENDBRANCH   1   8
TORSDOF 3
ENDMDL
