MODEL 1
REMARK VINA RESULT:      -4.7      0.000      0.000
REMARK  Name = *****
REMARK  3 active torsions:
REMARK  status: ('A' for Active; 'I' for Inactive)
REMARK    1  A    between atoms: C_4  and  O_7
REMARK    2  A    between atoms: O_7  and  C_8
REMARK    3  A    between atoms: C_8  and  C_10
REMARK                            x       y       z     vdW  Elec       q    Type
REMARK                         _______ _______ _______ _____ _____    ______ ____
ROOT
ATOM      1  C   UNL     1     102.789 125.491  82.752  0.00  0.00    +0.000 C 
ATOM      2  O   UNL     1     103.067 125.522  83.937  0.00  0.00    +0.000 OA
ENDROOT
BRANCH   1   3
ATOM      3  C   UNL     1     103.678 124.971  81.697  0.00  0.00    +0.000 A 
ATOM      4  C   UNL     1     104.074 125.771  80.620  0.00  0.00    +0.000 A 
ATOM      5  C   UNL     1     104.944 125.248  79.655  0.00  0.00    +0.000 A 
ATOM      6  C   UNL     1     105.415 123.938  79.768  0.00  0.00    +0.000 A 
ATOM      7  C   UNL     1     105.015 123.147  80.842  0.00  0.00    +0.000 A 
ATOM      8  C   UNL     1     104.150 123.654  81.809  0.00  0.00    +0.000 A 
ATOM      9 CL   UNL     1     105.596 121.534  80.979  0.00  0.00    +0.000 Cl
ATOM     10 CL   UNL     1     103.498 127.380  80.384  0.00  0.00    +0.000 Cl
ENDBRANCH   1   3
BRANCH   1  11
ATOM     11  O   UNL     1     101.637 125.904  82.169  0.00  0.00    +0.000 OA
BRANCH  11  15
ATOM     12  C   UNL     1      99.114 129.143  83.240  0.00  0.00    +0.000 C 
ATOM     13  C   UNL     1      98.475 127.764  83.104  0.00  0.00    +0.000 C 
ATOM     14  C   UNL     1      99.382 126.796  82.351  0.00  0.00    +0.000 C 
ATOM     15  C   UNL     1     100.768 126.703  82.994  0.00  0.00    +0.000 C 
ATOM     16  C   UNL     1     101.403 128.091  83.116  0.00  0.00    +0.000 C 
ATOM     17  C   UNL     1     100.501 129.062  83.871  0.00  0.00    +0.000 C 
ENDBRANCH  11  15
ENDBRANCH   1  11
TORSDOF 3
ENDMDL
