REMARK  Name = *****
REMARK  3 active torsions:
REMARK  status: ('A' for Active; 'I' for Inactive)
REMARK    1  A    between atoms: C_4  and  N_7
REMARK    2  A    between atoms: N_7  and  C_8
REMARK    3  A    between atoms: C_8  and  C_9
REMARK                            x       y       z     vdW  Elec       q    Type
REMARK                         _______ _______ _______ _____ _____    ______ ____
ROOT
ATOM      1  C   UNL     1       3.559  -1.320   0.297  0.00  0.00    +0.000 C 
ENDROOT
BRANCH   1   2
ATOM      2  C   UNL     1       4.918  -1.654  -0.174  0.00  0.00    +0.000 A 
ATOM      3  C   UNL     1       5.405  -1.136  -1.379  0.00  0.00    +0.000 A 
ATOM      4  C   UNL     1       6.693  -1.464  -1.807  0.00  0.00    +0.000 A 
ATOM      5  C   UNL     1       7.487  -2.305  -1.029  0.00  0.00    +0.000 A 
ATOM      6  C   UNL     1       7.005  -2.824   0.174  0.00  0.00    +0.000 A 
ATOM      7  C   UNL     1       5.716  -2.498   0.605  0.00  0.00    +0.000 A 
ATOM      8 CL   UNL     1       9.075  -2.709  -1.554  0.00  0.00    +0.000 Cl
ENDBRANCH   1   2
BRANCH   1   9
ATOM      9  N   UNL     1       2.776  -0.553  -0.382  0.00  0.00    +0.000 NA
BRANCH   9  13
ATOM     10  C   UNL     1      -1.404   0.296  -0.186  0.00  0.00    +0.000 C 
ATOM     11  C   UNL     1      -0.944  -1.102   0.219  0.00  0.00    +0.000 C 
ATOM     12  C   UNL     1       0.477  -1.387  -0.258  0.00  0.00    +0.000 C 
ATOM     13  C   UNL     1       1.461  -0.316   0.228  0.00  0.00    +0.000 C 
ATOM     14  C   UNL     1       0.994   1.083  -0.191  0.00  0.00    +0.000 C 
ATOM     15  C   UNL     1      -0.427   1.369   0.286  0.00  0.00    +0.000 C 
ENDBRANCH   9  13
ENDBRANCH   1   9
TORSDOF 3
