REMARK  Name = *****
REMARK  2 active torsions:
REMARK  status: ('A' for Active; 'I' for Inactive)
REMARK    1  A    between atoms: C_5  and  C_6
REMARK    2  A    between atoms: C_6  and  C_8
REMARK                            x       y       z     vdW  Elec       q    Type
REMARK                         _______ _______ _______ _____ _____    ______ ____
ROOT
ATOM      1  C   UNL     1      -1.487   2.984  -0.513  0.00  0.00    +0.000 C 
ATOM      2  O   UNL     1      -2.601   2.490  -0.635  0.00  0.00    +0.000 OA
ENDROOT
BRANCH   1   3
ATOM      3  C   UNL     1      -1.323   4.465  -0.520  0.00  0.00    +0.000 A 
ATOM      4  C   UNL     1      -0.184   5.095  -0.002  0.00  0.00    +0.000 A 
ATOM      5  C   UNL     1      -0.092   6.487  -0.036  0.00  0.00    +0.000 A 
ATOM      6  C   UNL     1      -1.123   7.259  -0.571  0.00  0.00    +0.000 A 
ATOM      7  C   UNL     1      -2.264   6.636  -1.072  0.00  0.00    +0.000 A 
ATOM      8  C   UNL     1      -2.366   5.244  -1.043  0.00  0.00    +0.000 A 
ATOM      9 CL   UNL     1       1.310   7.260   0.594  0.00  0.00    +0.000 Cl
ENDBRANCH   1   3
BRANCH   1  14
ATOM     10  C   UNL     1       1.011  -1.086   1.370  0.00  0.00    +0.000 C 
ATOM     11  C   UNL     1      -0.482  -1.353   1.308  0.00  0.00    +0.000 C 
ATOM     12  S   UNL     1      -1.316   0.256   1.191  0.00  0.00    +0.000 S 
ATOM     13  C   UNL     1      -0.111   0.997   0.182  0.00  0.00    +0.000 C 
ATOM     14  C   UNL     1      -0.251   2.159  -0.470  0.00  0.00    +0.000 C 
ATOM     15  S   UNL     1       1.413   0.143   0.089  0.00  0.00    +0.000 S 
ENDBRANCH   1  14
TORSDOF 2
