REMARK  Name = *****
REMARK  3 active torsions:
REMARK  status: ('A' for Active; 'I' for Inactive)
REMARK    1  A    between atoms: C_4  and  C_7
REMARK    2  A    between atoms: C_8  and  C_9
REMARK    3  A    between atoms: C_9  and  C_10
REMARK                            x       y       z     vdW  Elec       q    Type
REMARK                         _______ _______ _______ _____ _____    ______ ____
ROOT
ATOM      1  C   UNL     1      -2.817   0.380  -0.174  0.00  0.00    +0.000 C 
ATOM      2  C   UNL     1      -3.717  -0.597  -0.376  0.00  0.00    +0.000 C 
ENDROOT
BRANCH   1   6
ATOM      3  C   UNL     1       1.421  -0.133   0.136  0.00  0.00    +0.000 A 
ATOM      4  C   UNL     1       0.692  -0.953  -0.722  0.00  0.00    +0.000 A 
ATOM      5  C   UNL     1      -0.693  -0.802  -0.829  0.00  0.00    +0.000 A 
ATOM      6  C   UNL     1      -1.366   0.164  -0.070  0.00  0.00    +0.000 A 
ATOM      7  C   UNL     1      -0.619   0.994   0.777  0.00  0.00    +0.000 A 
ATOM      8  C   UNL     1       0.766   0.843   0.884  0.00  0.00    +0.000 A 
ENDBRANCH   1   6
BRANCH   2   9
ATOM      9  C   UNL     1      -5.198  -0.358  -0.467  0.00  0.00    +0.000 C 
BRANCH   9  10
ATOM     10  C   UNL     1      -5.970  -1.123   0.575  0.00  0.00    +0.000 A 
ATOM     11  C   UNL     1      -6.767  -2.211   0.228  0.00  0.00    +0.000 A 
ATOM     12  N   UNL     1      -7.483  -2.942   1.110  0.00  0.00    +0.000 NA
ATOM     13  C   UNL     1      -7.394  -2.571   2.403  0.00  0.00    +0.000 A 
ATOM     14  C   UNL     1      -6.634  -1.511   2.863  0.00  0.00    +0.000 A 
ATOM     15  C   UNL     1      -5.910  -0.775   1.929  0.00  0.00    +0.000 A 
ATOM     16 CL   UNL     1      -8.317  -3.527   3.487  0.00  0.00    +0.000 Cl
ENDBRANCH   9  10
ENDBRANCH   2   9
TORSDOF 3
