MODEL 1
REMARK VINA RESULT:      -4.8      0.000      0.000
REMARK  Name = *****
REMARK  5 active torsions:
REMARK  status: ('A' for Active; 'I' for Inactive)
REMARK    1  A    between atoms: C_1  and  C_2
REMARK    2  A    between atoms: C_4  and  C_18
REMARK    3  A    between atoms: C_6  and  O_8
REMARK    4  A    between atoms: O_8  and  C_9
REMARK    5  A    between atoms: C_9  and  C_11
REMARK                            x       y       z     vdW  Elec       q    Type
REMARK                         _______ _______ _______ _____ _____    ______ ____
ROOT
ATOM      1  O   UNL     1      88.165  69.262  85.529  0.00  0.00    +0.000 OA
ENDROOT
BRANCH   1   7
ATOM      2  C   UNL     1      91.390  65.494  85.319  0.00  0.00    +0.000 C 
ATOM      3  C   UNL     1      90.177  66.160  85.900  0.00  0.00    +0.000 A 
ATOM      4  C   UNL     1      89.395  65.499  86.860  0.00  0.00    +0.000 A 
ATOM      5  C   UNL     1      88.244  66.099  87.393  0.00  0.00    +0.000 A 
ATOM      6  C   UNL     1      87.862  67.364  86.935  0.00  0.00    +0.000 A 
ATOM      7  C   UNL     1      88.642  68.022  85.985  0.00  0.00    +0.000 A 
ATOM      8  C   UNL     1      89.779  67.423  85.446  0.00  0.00    +0.000 A 
ATOM      9  C   UNL     1      87.397  65.365  88.390  0.00  0.00    +0.000 C 
ENDBRANCH   1   7
BRANCH   1  10
ATOM     10  C   UNL     1      88.521  70.386  86.250  0.00  0.00    +0.000 C 
ATOM     11  O   UNL     1      89.614  70.921  86.342  0.00  0.00    +0.000 OA
BRANCH  10  12
ATOM     12  C   UNL     1      87.294  70.968  86.820  0.00  0.00    +0.000 A 
ATOM     13  C   UNL     1      86.363  71.505  85.918  0.00  0.00    +0.000 A 
ATOM     14  C   UNL     1      85.176  72.068  86.389  0.00  0.00    +0.000 A 
ATOM     15  C   UNL     1      84.921  72.106  87.759  0.00  0.00    +0.000 A 
ATOM     16  C   UNL     1      85.856  71.590  88.660  0.00  0.00    +0.000 A 
ATOM     17  C   UNL     1      87.048  71.024  88.196  0.00  0.00    +0.000 A 
ATOM     18 CL   UNL     1      88.182  70.471  89.376  0.00  0.00    +0.000 Cl
ENDBRANCH  10  12
ENDBRANCH   1  10
TORSDOF 3
ENDMDL
