MODEL 1
REMARK VINA RESULT:      -4.6      0.000      0.000
REMARK  Name = *****
REMARK  3 active torsions:
REMARK  status: ('A' for Active; 'I' for Inactive)
REMARK    1  A    between atoms: C_4  and  O_7
REMARK    2  A    between atoms: O_7  and  C_8
REMARK    3  A    between atoms: C_8  and  C_10
REMARK                            x       y       z     vdW  Elec       q    Type
REMARK                         _______ _______ _______ _____ _____    ______ ____
ROOT
ATOM      1  C   UNL     1     102.729 125.329  82.537  0.00  0.00    +0.000 C 
ATOM      2  O   UNL     1     102.874 124.957  83.690  0.00  0.00    +0.000 OA
ENDROOT
BRANCH   1   3
ATOM      3  C   UNL     1     103.738 125.087  81.487  0.00  0.00    +0.000 A 
ATOM      4  C   UNL     1     104.273 126.115  80.704  0.00  0.00    +0.000 A 
ATOM      5  C   UNL     1     105.228 125.841  79.725  0.00  0.00    +0.000 A 
ATOM      6  C   UNL     1     105.661 124.530  79.527  0.00  0.00    +0.000 A 
ATOM      7  C   UNL     1     105.137 123.510  80.316  0.00  0.00    +0.000 A 
ATOM      8  C   UNL     1     104.185 123.774  81.295  0.00  0.00    +0.000 A 
ATOM      9  F   UNL     1     105.559 122.253  80.128  0.00  0.00    +0.000 F 
ATOM     10  F   UNL     1     103.911 127.393  80.885  0.00  0.00    +0.000 F 
ENDBRANCH   1   3
BRANCH   1  11
ATOM     11  O   UNL     1     101.635 125.933  82.018  0.00  0.00    +0.000 OA
BRANCH  11  15
ATOM     12  C   UNL     1      99.270 129.180  83.386  0.00  0.00    +0.000 C 
ATOM     13  C   UNL     1      98.593 127.818  83.253  0.00  0.00    +0.000 C 
ATOM     14  C   UNL     1      99.418 126.861  82.400  0.00  0.00    +0.000 C 
ATOM     15  C   UNL     1     100.847 126.718  82.932  0.00  0.00    +0.000 C 
ATOM     16  C   UNL     1     101.520 128.089  83.050  0.00  0.00    +0.000 C 
ATOM     17  C   UNL     1     100.700 129.050  83.903  0.00  0.00    +0.000 C 
ENDBRANCH  11  15
ENDBRANCH   1  11
TORSDOF 3
ENDMDL
