MODEL 1
REMARK VINA RESULT:      -4.8      0.000      0.000
REMARK  Name = *****
REMARK  6 active torsions:
REMARK  status: ('A' for Active; 'I' for Inactive)
REMARK    1  A    between atoms: C_1  and  N_2
REMARK    2  A    between atoms: N_2  and  C_3
REMARK    3  A    between atoms: N_2  and  C_18
REMARK    4  A    between atoms: C_3  and  C_4
REMARK    5  A    between atoms: C_4  and  C_12
REMARK    6  A    between atoms: C_5  and  C_6
REMARK                            x       y       z     vdW  Elec       q    Type
REMARK                         _______ _______ _______ _____ _____    ______ ____
ROOT
ATOM      1  C   UNL     1     102.933 126.035  81.599  0.00  0.00    +0.000 C 
ATOM      2  C   UNL     1     101.894 125.927  82.449  0.00  0.00    +0.000 C 
ENDROOT
BRANCH   2   3
ATOM      3  C   UNL     1     100.934 126.992  82.748  0.00  0.00    +0.000 A 
ATOM      4  C   UNL     1     101.342 128.141  83.437  0.00  0.00    +0.000 A 
ATOM      5  C   UNL     1     100.415 129.136  83.748  0.00  0.00    +0.000 A 
ATOM      6  C   UNL     1      99.081 128.988  83.371  0.00  0.00    +0.000 A 
ATOM      7  C   UNL     1      98.672 127.851  82.678  0.00  0.00    +0.000 A 
ATOM      8  C   UNL     1      99.596 126.853  82.364  0.00  0.00    +0.000 A 
ENDBRANCH   2   3
BRANCH   1   9
ATOM      9  C   UNL     1     103.824 124.875  81.417  0.00  0.00    +0.000 A 
ATOM     10  C   UNL     1     104.421 124.615  80.173  0.00  0.00    +0.000 A 
ATOM     11  C   UNL     1     105.286 123.531  80.019  0.00  0.00    +0.000 A 
ATOM     12  C   UNL     1     105.558 122.696  81.101  0.00  0.00    +0.000 A 
ATOM     13  C   UNL     1     104.961 122.937  82.336  0.00  0.00    +0.000 A 
ATOM     14  C   UNL     1     104.096 124.021  82.496  0.00  0.00    +0.000 A 
ENDBRANCH   1   9
BRANCH   1  15
ATOM     15  C   UNL     1     103.219 127.361  80.976  0.00  0.00    +0.000 C 
BRANCH  15  17
ATOM     16  C   UNL     1     104.907 128.270  82.526  0.00  0.00    +0.000 C 
ATOM     17  N   UNL     1     104.220 128.146  81.210  0.00  0.00    +0.000 NA
ATOM     18  C   UNL     1     104.798 128.961  80.103  0.00  0.00    +0.000 C 
ENDBRANCH  15  17
ENDBRANCH   1  15
TORSDOF 4
ENDMDL
