MODEL 1
REMARK VINA RESULT:      -5.1      0.000      0.000
REMARK  Name = *****
REMARK  1 active torsions:
REMARK  status: ('A' for Active; 'I' for Inactive)
REMARK    1  A    between atoms: C_4  and  C_7
REMARK                            x       y       z     vdW  Elec       q    Type
REMARK                         _______ _______ _______ _____ _____    ______ ____
ROOT
ATOM      1  C   UNL     1     102.718 126.651  81.642  0.00  0.00    +0.000 C 
ATOM      2  C   UNL     1     102.971 125.329  81.686  0.00  0.00    +0.000 C 
ATOM      3  C   UNL     1     104.085 124.795  80.908  0.00  0.00    +0.000 A 
ATOM      4  C   UNL     1     104.502 123.466  81.012  0.00  0.00    +0.000 A 
ATOM      5  C   UNL     1     105.545 123.002  80.211  0.00  0.00    +0.000 A 
ATOM      6  C   UNL     1     106.158 123.860  79.295  0.00  0.00    +0.000 A 
ATOM      7  C   UNL     1     105.738 125.186  79.187  0.00  0.00    +0.000 A 
ATOM      8  C   UNL     1     104.722 125.668  80.016  0.00  0.00    +0.000 A 
ATOM      9  N   UNL     1     104.213 126.980  79.872  0.00  0.00    +0.000 N 
ATOM     10  O   UNL     1     103.474 127.571  80.915  0.00  0.00    +0.000 OA
ATOM     11  H   UNL     1     104.376 127.481  79.041  0.00  0.00    +0.000 HD
ENDROOT
BRANCH   1  15
ATOM     12  C   UNL     1      99.572 128.434  83.945  0.00  0.00    +0.000 A 
ATOM     13  C   UNL     1      99.305 127.313  83.161  0.00  0.00    +0.000 A 
ATOM     14  C   UNL     1     100.325 126.728  82.406  0.00  0.00    +0.000 A 
ATOM     15  C   UNL     1     101.624 127.259  82.421  0.00  0.00    +0.000 A 
ATOM     16  C   UNL     1     101.878 128.382  83.223  0.00  0.00    +0.000 A 
ATOM     17  C   UNL     1     100.858 128.967  83.978  0.00  0.00    +0.000 A 
ENDBRANCH   1  15
TORSDOF 1
ENDMDL
