MODEL 1
REMARK VINA RESULT:      -5.1      0.000      0.000
REMARK  Name = *****
REMARK  3 active torsions:
REMARK  status: ('A' for Active; 'I' for Inactive)
REMARK    1  A    between atoms: C_4  and  C_7
REMARK    2  A    between atoms: C_8  and  C_9
REMARK    3  A    between atoms: C_11  and  C_15
REMARK                            x       y       z     vdW  Elec       q    Type
REMARK                         _______ _______ _______ _____ _____    ______ ____
ROOT
ATOM      1  C   UNL     1     104.006 124.867  80.876  0.00  0.00    +0.000 A 
ATOM      2  C   UNL     1     104.287 123.594  81.380  0.00  0.00    +0.000 A 
ATOM      3  C   UNL     1     105.319 122.819  80.826  0.00  0.00    +0.000 A 
ATOM      4  C   UNL     1     106.065 123.346  79.760  0.00  0.00    +0.000 A 
ATOM      5  C   UNL     1     105.784 124.618  79.256  0.00  0.00    +0.000 A 
ATOM      6  C   UNL     1     104.755 125.376  79.814  0.00  0.00    +0.000 A 
ENDROOT
BRANCH   3   7
ATOM      7  C   UNL     1     105.638 121.446  81.362  0.00  0.00    +0.000 C 
ATOM      8  F   UNL     1     106.737 120.879  80.792  0.00  0.00    +0.000 F 
ATOM      9  F   UNL     1     105.876 121.452  82.703  0.00  0.00    +0.000 F 
ATOM     10  F   UNL     1     104.620 120.563  81.169  0.00  0.00    +0.000 F 
ENDBRANCH   3   7
BRANCH   1  12
ATOM     11  C   UNL     1     102.070 126.303  81.929  0.00  0.00    +0.000 C 
ATOM     12  C   UNL     1     102.952 125.646  81.449  0.00  0.00    +0.000 C 
BRANCH  11  16
ATOM     13  C   UNL     1      98.973 128.628  83.617  0.00  0.00    +0.000 A 
ATOM     14  C   UNL     1     100.305 128.985  83.827  0.00  0.00    +0.000 A 
ATOM     15  C   UNL     1     101.330 128.216  83.269  0.00  0.00    +0.000 A 
ATOM     16  C   UNL     1     101.021 127.091  82.501  0.00  0.00    +0.000 A 
ATOM     17  C   UNL     1      99.686 126.737  82.292  0.00  0.00    +0.000 A 
ATOM     18  C   UNL     1      98.663 127.505  82.850  0.00  0.00    +0.000 A 
ENDBRANCH  11  16
ENDBRANCH   1  12
TORSDOF 3
ENDMDL
