MODEL 1
REMARK VINA RESULT:      -5.2      0.000      0.000
REMARK  Name = *****
REMARK  1 active torsions:
REMARK  status: ('A' for Active; 'I' for Inactive)
REMARK    1  A    between atoms: C_2  and  C_11
REMARK                            x       y       z     vdW  Elec       q    Type
REMARK                         _______ _______ _______ _____ _____    ______ ____
ROOT
ATOM      1  C   UNL     1      88.410  70.840  86.107  0.00  0.00    +0.000 C 
ATOM      2  C   UNL     1      89.081  70.016  87.234  0.00  0.00    +0.000 C 
ATOM      3  C   UNL     1      88.617  70.419  88.615  0.00  0.00    +0.000 C 
ATOM      4  C   UNL     1      87.473  71.081  88.844  0.00  0.00    +0.000 C 
ATOM      5  C   UNL     1      86.566  71.410  87.740  0.00  0.00    +0.000 A 
ATOM      6  C   UNL     1      85.270  71.865  88.004  0.00  0.00    +0.000 A 
ATOM      7  C   UNL     1      84.400  72.166  86.955  0.00  0.00    +0.000 A 
ATOM      8  C   UNL     1      84.821  72.021  85.634  0.00  0.00    +0.000 A 
ATOM      9  C   UNL     1      86.113  71.576  85.360  0.00  0.00    +0.000 A 
ATOM     10  C   UNL     1      86.989  71.260  86.407  0.00  0.00    +0.000 A 
ENDROOT
BRANCH   2  11
ATOM     11  C   UNL     1      88.947  68.517  86.990  0.00  0.00    +0.000 A 
ATOM     12  C   UNL     1      87.816  67.833  87.465  0.00  0.00    +0.000 A 
ATOM     13  C   UNL     1      87.684  66.454  87.277  0.00  0.00    +0.000 A 
ATOM     14  C   UNL     1      88.680  65.741  86.614  0.00  0.00    +0.000 A 
ATOM     15  C   UNL     1      89.810  66.405  86.141  0.00  0.00    +0.000 A 
ATOM     16  C   UNL     1      89.945  67.781  86.331  0.00  0.00    +0.000 A 
ENDBRANCH   2  11
TORSDOF 1
ENDMDL
