REMARK  Name = *****
REMARK  4 active torsions:
REMARK  status: ('A' for Active; 'I' for Inactive)
REMARK    1  A    between atoms: C_3  and  C_19
REMARK    2  A    between atoms: C_6  and  C_7
REMARK    3  A    between atoms: C_8  and  C_9
REMARK    4  A    between atoms: C_12  and  C_15
REMARK                            x       y       z     vdW  Elec       q    Type
REMARK                         _______ _______ _______ _____ _____    ______ ____
ROOT
ATOM      1  C   UNL     1       3.774  -0.093   0.136  0.00  0.00    +0.000 C 
ATOM      2  C   UNL     1       4.531  -1.194   0.272  0.00  0.00    +0.000 C 
ENDROOT
BRANCH   1   8
ATOM      3  C   UNL     1       1.586  -1.126  -0.569  0.00  0.00    +0.000 A 
ATOM      4  C   UNL     1       0.187  -1.094  -0.609  0.00  0.00    +0.000 A 
ATOM      5  C   UNL     1      -0.509  -0.034  -0.022  0.00  0.00    +0.000 A 
ATOM      6  C   UNL     1       0.200   0.999   0.596  0.00  0.00    +0.000 A 
ATOM      7  C   UNL     1       1.598   0.964   0.635  0.00  0.00    +0.000 A 
ATOM      8  C   UNL     1       2.305  -0.107   0.070  0.00  0.00    +0.000 A 
BRANCH   5   9
ATOM      9  C   UNL     1      -1.942  -0.006  -0.054  0.00  0.00    +0.000 C 
ATOM     10  N   UNL     1      -3.102   0.017  -0.077  0.00  0.00    +0.000 NA
ENDBRANCH   5   9
ENDBRANCH   1   8
BRANCH   2  11
ATOM     11  C   UNL     1       5.997  -1.181   0.397  0.00  0.00    +0.000 A 
ATOM     12  C   UNL     1       6.679  -0.176   1.094  0.00  0.00    +0.000 A 
ATOM     13  C   UNL     1       8.068  -0.230   1.252  0.00  0.00    +0.000 A 
ATOM     14  C   UNL     1       8.804  -1.299   0.724  0.00  0.00    +0.000 A 
ATOM     15  C   UNL     1       8.122  -2.310   0.032  0.00  0.00    +0.000 A 
ATOM     16  C   UNL     1       6.733  -2.253  -0.124  0.00  0.00    +0.000 A 
BRANCH  14  17
ATOM     17  C   UNL     1      10.300  -1.384   0.905  0.00  0.00    +0.000 C 
ATOM     18  F   UNL     1      10.831  -0.321   1.573  0.00  0.00    +0.000 F 
ATOM     19  F   UNL     1      10.677  -2.489   1.605  0.00  0.00    +0.000 F 
ATOM     20  F   UNL     1      10.966  -1.448  -0.281  0.00  0.00    +0.000 F 
ENDBRANCH  14  17
ENDBRANCH   2  11
TORSDOF 4
