MODEL 1
REMARK VINA RESULT:      -4.6      0.000      0.000
REMARK  Name = *****
REMARK  3 active torsions:
REMARK  status: ('A' for Active; 'I' for Inactive)
REMARK    1  A    between atoms: C_6  and  C_7
REMARK    2  A    between atoms: C_7  and  O_9
REMARK    3  A    between atoms: O_9  and  C_10
REMARK                            x       y       z     vdW  Elec       q    Type
REMARK                         _______ _______ _______ _____ _____    ______ ____
ROOT
ATOM      1  C   UNL     1      89.707  68.897  85.886  0.00  0.00    +0.000 C 
ATOM      2  O   UNL     1      89.982  69.062  84.707  0.00  0.00    +0.000 OA
ENDROOT
BRANCH   1   8
ATOM      3  C   UNL     1      87.539  70.212  85.994  0.00  0.00    +0.000 A 
ATOM      4  C   UNL     1      86.630  70.983  86.725  0.00  0.00    +0.000 A 
ATOM      5  C   UNL     1      86.883  71.261  88.064  0.00  0.00    +0.000 A 
ATOM      6  C   UNL     1      88.029  70.786  88.689  0.00  0.00    +0.000 A 
ATOM      7  C   UNL     1      88.941  70.016  87.963  0.00  0.00    +0.000 A 
ATOM      8  C   UNL     1      88.699  69.720  86.612  0.00  0.00    +0.000 A 
ATOM      9  F   UNL     1      86.009  72.000  88.759  0.00  0.00    +0.000 F 
ENDBRANCH   1   8
BRANCH   1  10
ATOM     10  O   UNL     1      90.270  67.977  86.750  0.00  0.00    +0.000 OA
BRANCH  10  11
ATOM     11  C   UNL     1      90.083  66.662  86.315  0.00  0.00    +0.000 A 
ATOM     12  C   UNL     1      88.976  65.923  86.744  0.00  0.00    +0.000 A 
ATOM     13  C   UNL     1      88.828  64.602  86.324  0.00  0.00    +0.000 A 
ATOM     14  C   UNL     1      89.792  64.023  85.491  0.00  0.00    +0.000 A 
ATOM     15  C   UNL     1      90.903  64.768  85.087  0.00  0.00    +0.000 A 
ATOM     16  C   UNL     1      91.061  66.088  85.500  0.00  0.00    +0.000 A 
ATOM     17 CL   UNL     1      92.090  64.043  84.074  0.00  0.00    +0.000 Cl
ATOM     18 CL   UNL     1      87.792  66.605  87.794  0.00  0.00    +0.000 Cl
ENDBRANCH  10  11
ENDBRANCH   1  10
TORSDOF 3
ENDMDL
