MODEL 1
REMARK VINA RESULT:      -4.3      0.000      0.000
REMARK  Name = *****
REMARK  4 active torsions:
REMARK  status: ('A' for Active; 'I' for Inactive)
REMARK    1  A    between atoms: C_6  and  C_7
REMARK    2  A    between atoms: C_7  and  C_8
REMARK    3  A    between atoms: C_8  and  C_9
REMARK    4  A    between atoms: C_9  and  C_11
REMARK                            x       y       z     vdW  Elec       q    Type
REMARK                         _______ _______ _______ _____ _____    ______ ____
ROOT
ATOM      1  C   UNL     1      88.638  67.385  86.003  0.00  0.00    +0.000 C 
ATOM      2  O   UNL     1      88.029  67.336  84.934  0.00  0.00    +0.000 OA
ENDROOT
BRANCH   1   3
ATOM      3  C   UNL     1      88.138  66.562  87.144  0.00  0.00    +0.000 A 
ATOM      4  C   UNL     1      87.035  66.923  87.924  0.00  0.00    +0.000 A 
ATOM      5  C   UNL     1      86.606  66.120  88.980  0.00  0.00    +0.000 A 
ATOM      6  C   UNL     1      87.288  64.944  89.258  0.00  0.00    +0.000 A 
ATOM      7  C   UNL     1      88.386  64.558  88.501  0.00  0.00    +0.000 A 
ATOM      8  C   UNL     1      88.812  65.365  87.443  0.00  0.00    +0.000 A 
ATOM      9  F   UNL     1      86.880  64.170  90.272  0.00  0.00    +0.000 F 
ATOM     10  F   UNL     1      86.348  68.048  87.687  0.00  0.00    +0.000 F 
ENDBRANCH   1   3
BRANCH   1  11
ATOM     11  C   UNL     1      89.870  68.251  86.184  0.00  0.00    +0.000 C 
BRANCH  11  12
ATOM     12  C   UNL     1      89.585  69.715  85.846  0.00  0.00    +0.000 C 
BRANCH  12  18
ATOM     13  C   UNL     1      87.361  70.833  86.286  0.00  0.00    +0.000 A 
ATOM     14  C   UNL     1      86.406  71.361  87.157  0.00  0.00    +0.000 A 
ATOM     15  C   UNL     1      86.644  71.362  88.530  0.00  0.00    +0.000 A 
ATOM     16  C   UNL     1      87.831  70.839  89.039  0.00  0.00    +0.000 A 
ATOM     17  C   UNL     1      88.787  70.312  88.169  0.00  0.00    +0.000 A 
ATOM     18  C   UNL     1      88.561  70.308  86.785  0.00  0.00    +0.000 A 
ATOM     19 CL   UNL     1      85.465  72.009  89.602  0.00  0.00    +0.000 Cl
ENDBRANCH  12  18
ENDBRANCH  11  12
ENDBRANCH   1  11
TORSDOF 4
ENDMDL
