REMARK  Name = *****
REMARK  2 active torsions:
REMARK  status: ('A' for Active; 'I' for Inactive)
REMARK    1  A    between atoms: C_4  and  N_8
REMARK    2  A    between atoms: C_9  and  C_10
REMARK                            x       y       z     vdW  Elec       q    Type
REMARK                         _______ _______ _______ _____ _____    ______ ____
ROOT
ATOM      1  N   UNL     1      -0.024   2.413   0.383  0.00  0.00    +0.000 NA
ATOM      2  C   UNL     1       1.046   3.095   0.128  0.00  0.00    +0.000 C 
ENDROOT
BRANCH   1   6
ATOM      3  C   UNL     1       0.150  -1.813   0.092  0.00  0.00    +0.000 A 
ATOM      4  C   UNL     1       0.457  -1.030  -1.019  0.00  0.00    +0.000 A 
ATOM      5  C   UNL     1       0.408   0.362  -0.923  0.00  0.00    +0.000 A 
ATOM      6  C   UNL     1       0.066   1.008   0.273  0.00  0.00    +0.000 A 
ATOM      7  C   UNL     1      -0.248   0.198   1.371  0.00  0.00    +0.000 A 
ATOM      8  C   UNL     1      -0.204  -1.195   1.291  0.00  0.00    +0.000 A 
ATOM      9  F   UNL     1      -0.592   0.756   2.543  0.00  0.00    +0.000 F 
ATOM     10  F   UNL     1       0.713   1.085  -2.013  0.00  0.00    +0.000 F 
ENDBRANCH   1   6
BRANCH   2  11
ATOM     11  C   UNL     1       1.059   4.567   0.206  0.00  0.00    +0.000 A 
ATOM     12  C   UNL     1      -0.085   5.273   0.591  0.00  0.00    +0.000 A 
ATOM     13  C   UNL     1      -0.036   6.662   0.654  0.00  0.00    +0.000 A 
ATOM     14  C   UNL     1       1.125   7.356   0.343  0.00  0.00    +0.000 A 
ATOM     15  C   UNL     1       2.252   6.639  -0.038  0.00  0.00    +0.000 A 
ATOM     16  C   UNL     1       2.235   5.249  -0.110  0.00  0.00    +0.000 A 
ATOM     17  F   UNL     1       3.379   7.297  -0.341  0.00  0.00    +0.000 F 
ATOM     18  F   UNL     1      -1.129   7.343   1.023  0.00  0.00    +0.000 F 
ENDBRANCH   2  11
TORSDOF 2
