MODEL 1
REMARK VINA RESULT:      -4.8      0.000      0.000
REMARK  Name = *****
REMARK  2 active torsions:
REMARK  status: ('A' for Active; 'I' for Inactive)
REMARK    1  A    between atoms: C_10  and  C_11
REMARK    2  A    between atoms: C_11  and  C_12
REMARK                            x       y       z     vdW  Elec       q    Type
REMARK                         _______ _______ _______ _____ _____    ______ ____
ROOT
ATOM      1  C   UNL     1      84.280  72.447  87.424  0.00  0.00    +0.000 A 
ATOM      2  C   UNL     1      84.531  72.260  86.072  0.00  0.00    +0.000 A 
ATOM      3  C   UNL     1      85.729  71.670  85.660  0.00  0.00    +0.000 A 
ATOM      4  C   UNL     1      86.713  71.255  86.586  0.00  0.00    +0.000 A 
ATOM      5  C   UNL     1      86.431  71.440  87.965  0.00  0.00    +0.000 A 
ATOM      6  C   UNL     1      85.222  72.036  88.363  0.00  0.00    +0.000 A 
ATOM      7  C   UNL     1      87.356  71.025  88.934  0.00  0.00    +0.000 A 
ATOM      8  C   UNL     1      88.557  70.427  88.566  0.00  0.00    +0.000 A 
ATOM      9  C   UNL     1      88.855  70.246  87.221  0.00  0.00    +0.000 A 
ATOM     10  C   UNL     1      87.957  70.663  86.220  0.00  0.00    +0.000 A 
ENDROOT
BRANCH  10  11
ATOM     11  C   UNL     1      88.367  70.429  84.774  0.00  0.00    +0.000 C 
BRANCH  11  12
ATOM     12  C   UNL     1      89.178  71.542  84.164  0.00  0.00    +0.000 A 
ATOM     13  C   UNL     1      88.814  72.832  83.824  0.00  0.00    +0.000 A 
ATOM     14  C   UNL     1      89.891  73.572  83.254  0.00  0.00    +0.000 A 
ATOM     15  C   UNL     1      91.047  72.830  83.186  0.00  0.00    +0.000 A 
ATOM     16  S   UNL     1      90.835  71.253  83.807  0.00  0.00    +0.000 S 
ENDBRANCH  11  12
ENDBRANCH  10  11
TORSDOF 2
ENDMDL
