REMARK  Name = *****
REMARK  2 active torsions:
REMARK  status: ('A' for Active; 'I' for Inactive)
REMARK    1  A    between atoms: C_3  and  C_9
REMARK    2  A    between atoms: N_10  and  C_11
REMARK                            x       y       z     vdW  Elec       q    Type
REMARK                         _______ _______ _______ _____ _____    ______ ____
ROOT
ATOM      1  C   UNL     1      -2.742   2.899   0.319  0.00  0.00    +0.000 C 
ATOM      2  N   UNL     1      -1.727   3.700   0.223  0.00  0.00    +0.000 NA
ENDROOT
BRANCH   1   5
ATOM      3  C   UNL     1      -1.578  -0.212  -1.483  0.00  0.00    +0.000 A 
ATOM      4  C   UNL     1      -1.585   1.081  -0.952  0.00  0.00    +0.000 A 
ATOM      5  C   UNL     1      -2.706   1.541  -0.249  0.00  0.00    +0.000 A 
ATOM      6  C   UNL     1      -3.810   0.711  -0.079  0.00  0.00    +0.000 A 
ATOM      7  C   UNL     1      -3.795  -0.574  -0.609  0.00  0.00    +0.000 A 
ATOM      8  C   UNL     1      -2.687  -1.042  -1.310  0.00  0.00    +0.000 A 
ATOM      9  F   UNL     1      -4.854  -1.379  -0.447  0.00  0.00    +0.000 F 
ATOM     10  F   UNL     1      -4.889   1.138   0.596  0.00  0.00    +0.000 F 
ENDBRANCH   1   5
BRANCH   2  11
ATOM     11  C   UNL     1      -1.868   4.984   0.783  0.00  0.00    +0.000 A 
ATOM     12  C   UNL     1      -2.876   5.885   0.398  0.00  0.00    +0.000 A 
ATOM     13  C   UNL     1      -2.964   7.161   0.954  0.00  0.00    +0.000 A 
ATOM     14  C   UNL     1      -2.026   7.560   1.903  0.00  0.00    +0.000 A 
ATOM     15  C   UNL     1      -1.015   6.679   2.277  0.00  0.00    +0.000 A 
ATOM     16  C   UNL     1      -0.926   5.404   1.724  0.00  0.00    +0.000 A 
ATOM     17  F   UNL     1      -0.111   7.066   3.185  0.00  0.00    +0.000 F 
ATOM     18  F   UNL     1      -3.789   5.523  -0.517  0.00  0.00    +0.000 F 
ENDBRANCH   2  11
TORSDOF 2
