MODEL 1
REMARK VINA RESULT:      -4.4      0.000      0.000
REMARK  Name = *****
REMARK  4 active torsions:
REMARK  status: ('A' for Active; 'I' for Inactive)
REMARK    1  A    between atoms: C_1  and  N_2
REMARK    2  A    between atoms: N_2  and  C_3
REMARK    3  A    between atoms: N_2  and  C_9
REMARK    4  A    between atoms: C_9  and  C_11
REMARK                            x       y       z     vdW  Elec       q    Type
REMARK                         _______ _______ _______ _____ _____    ______ ____
ROOT
ATOM      1  C   UNL     1      88.403  70.631  89.233  0.00  0.00    +0.000 C 
ATOM      2  N   UNL     1      88.035  70.641  87.812  0.00  0.00    +0.000 N 
ENDROOT
BRANCH   2   3
ATOM      3  C   UNL     1      86.778  71.238  87.511  0.00  0.00    +0.000 A 
ATOM      4  C   UNL     1      86.346  71.473  86.194  0.00  0.00    +0.000 A 
ATOM      5  C   UNL     1      85.098  72.048  85.924  0.00  0.00    +0.000 A 
ATOM      6  C   UNL     1      84.248  72.400  86.969  0.00  0.00    +0.000 A 
ATOM      7  C   UNL     1      84.648  72.176  88.282  0.00  0.00    +0.000 A 
ATOM      8  C   UNL     1      85.895  71.603  88.545  0.00  0.00    +0.000 A 
ENDBRANCH   2   3
BRANCH   2   9
ATOM      9  C   UNL     1      88.821  69.974  86.860  0.00  0.00    +0.000 C 
ATOM     10  C   UNL     1      89.621  70.598  85.975  0.00  0.00    +0.000 C 
BRANCH   9  11
ATOM     11  C   UNL     1      88.777  68.508  86.834  0.00  0.00    +0.000 C 
ATOM     12  C   UNL     1      87.688  67.810  87.215  0.00  0.00    +0.000 C 
ATOM     13  C   UNL     1      87.619  66.312  87.210  0.00  0.00    +0.000 C 
ATOM     14  C   UNL     1      88.981  65.641  87.030  0.00  0.00    +0.000 C 
ATOM     15  C   UNL     1      89.809  66.356  85.967  0.00  0.00    +0.000 C 
ATOM     16  C   UNL     1      90.032  67.825  86.338  0.00  0.00    +0.000 C 
ENDBRANCH   9  11
ENDBRANCH   2   9
TORSDOF 3
ENDMDL
