MODEL 1
REMARK VINA RESULT:      -4.2      0.000      0.000
REMARK  Name = *****
REMARK  2 active torsions:
REMARK  status: ('A' for Active; 'I' for Inactive)
REMARK    1  A    between atoms: C_4  and  C_6
REMARK    2  A    between atoms: C_7  and  C_8
REMARK                            x       y       z     vdW  Elec       q    Type
REMARK                         _______ _______ _______ _____ _____    ______ ____
ROOT
ATOM      1  C   UNL     1     103.504 125.947  81.321  0.00  0.00    +0.000 C 
ATOM      2  C   UNL     1     102.358 125.724  81.986  0.00  0.00    +0.000 C 
ENDROOT
BRANCH   2   3
ATOM      3  C   UNL     1     101.513 126.799  82.525  0.00  0.00    +0.000 A 
ATOM      4  C   UNL     1     100.115 126.766  82.434  0.00  0.00    +0.000 A 
ATOM      5  C   UNL     1      99.343 127.792  82.987  0.00  0.00    +0.000 A 
ATOM      6  C   UNL     1      99.965 128.851  83.644  0.00  0.00    +0.000 A 
ATOM      7  C   UNL     1     101.352 128.890  83.757  0.00  0.00    +0.000 A 
ATOM      8  C   UNL     1     102.123 127.863  83.204  0.00  0.00    +0.000 A 
ATOM      9 CL   UNL     1      99.015 130.113  84.326  0.00  0.00    +0.000 Cl
ENDBRANCH   2   3
BRANCH   1  13
ATOM     10  C   UNL     1     105.327 122.822  80.344  0.00  0.00    +0.000 A 
ATOM     11  C   UNL     1     106.018 123.647  79.489  0.00  0.00    +0.000 A 
ATOM     12  S   UNL     1     105.491 125.267  79.599  0.00  0.00    +0.000 S 
ATOM     13  C   UNL     1     104.313 124.890  80.808  0.00  0.00    +0.000 A 
ATOM     14  C   UNL     1     104.350 123.535  81.099  0.00  0.00    +0.000 A 
ENDBRANCH   1  13
TORSDOF 2
ENDMDL
