MODEL 1
REMARK VINA RESULT:      -4.9      0.000      0.000
REMARK  Name = *****
REMARK  4 active torsions:
REMARK  status: ('A' for Active; 'I' for Inactive)
REMARK    1  A    between atoms: C_1  and  C_11
REMARK    2  A    between atoms: C_2  and  C_3
REMARK    3  A    between atoms: C_3  and  C_4
REMARK    4  A    between atoms: C_7  and  C_10
REMARK                            x       y       z     vdW  Elec       q    Type
REMARK                         _______ _______ _______ _____ _____    ______ ____
ROOT
ATOM      1  C   UNL     1      87.061  71.040  88.652  0.00  0.00    +0.000 C 
ATOM      2  C   UNL     1      87.357  69.753  88.898  0.00  0.00    +0.000 C 
ENDROOT
BRANCH   1   3
ATOM      3  C   UNL     1      86.179  71.503  87.581  0.00  0.00    +0.000 A 
ATOM      4  C   UNL     1      86.592  71.401  86.248  0.00  0.00    +0.000 A 
ATOM      5  C   UNL     1      85.760  71.845  85.219  0.00  0.00    +0.000 A 
ATOM      6  C   UNL     1      84.511  72.392  85.517  0.00  0.00    +0.000 A 
ATOM      7  C   UNL     1      84.094  72.493  86.844  0.00  0.00    +0.000 A 
ATOM      8  C   UNL     1      84.924  72.049  87.874  0.00  0.00    +0.000 A 
ENDBRANCH   1   3
BRANCH   2   9
ATOM      9  C   UNL     1      86.859  68.543  88.154  0.00  0.00    +0.000 C 
BRANCH   9  10
ATOM     10  C   UNL     1      87.974  67.807  87.450  0.00  0.00    +0.000 A 
ATOM     11  C   UNL     1      88.964  68.519  86.759  0.00  0.00    +0.000 A 
ATOM     12  C   UNL     1      89.993  67.845  86.099  0.00  0.00    +0.000 A 
ATOM     13  C   UNL     1      90.047  66.446  86.108  0.00  0.00    +0.000 A 
ATOM     14  C   UNL     1      89.065  65.734  86.805  0.00  0.00    +0.000 A 
ATOM     15  C   UNL     1      88.033  66.407  87.464  0.00  0.00    +0.000 A 
ATOM     16  C   UNL     1      91.175  65.728  85.430  0.00  0.00    +0.000 C 
ENDBRANCH   9  10
ENDBRANCH   2   9
TORSDOF 3
ENDMDL
