MODEL 1
REMARK VINA RESULT:      -4.2      0.000      0.000
REMARK  Name = *****
REMARK  1 active torsions:
REMARK  status: ('A' for Active; 'I' for Inactive)
REMARK    1  A    between atoms: C_5  and  C_6
REMARK                            x       y       z     vdW  Elec       q    Type
REMARK                         _______ _______ _______ _____ _____    ______ ____
ROOT
ATOM      1  C   UNL     1      87.766  70.654  86.836  0.00  0.00    +0.000 C 
ATOM      2  C   UNL     1      88.150  69.368  86.728  0.00  0.00    +0.000 C 
ATOM      3  S   UNL     1      87.228  67.993  87.279  0.00  0.00    +0.000 S 
ATOM      4  C   UNL     1      88.412  66.778  86.756  0.00  0.00    +0.000 A 
ATOM      5  C   UNL     1      88.225  65.408  86.932  0.00  0.00    +0.000 A 
ATOM      6  C   UNL     1      89.207  64.519  86.490  0.00  0.00    +0.000 A 
ATOM      7  C   UNL     1      90.368  65.000  85.878  0.00  0.00    +0.000 A 
ATOM      8  C   UNL     1      90.552  66.374  85.702  0.00  0.00    +0.000 A 
ATOM      9  C   UNL     1      89.571  67.258  86.145  0.00  0.00    +0.000 A 
ATOM     10  S   UNL     1      89.704  69.020  85.973  0.00  0.00    +0.000 S 
ENDROOT
BRANCH   1  15
ATOM     11  C   UNL     1      86.226  71.438  88.848  0.00  0.00    +0.000 C 
ATOM     12  C   UNL     1      84.887  72.117  88.776  0.00  0.00    +0.000 C 
ATOM     13  C   UNL     1      84.539  72.295  87.494  0.00  0.00    +0.000 C 
ATOM     14  C   UNL     1      85.577  71.767  86.645  0.00  0.00    +0.000 C 
ATOM     15  C   UNL     1      86.576  71.261  87.390  0.00  0.00    +0.000 C 
ENDBRANCH   1  15
TORSDOF 1
ENDMDL
