MODEL 1
REMARK VINA RESULT:      -4.8      0.000      0.000
REMARK  Name = *****
REMARK  5 active torsions:
REMARK  status: ('A' for Active; 'I' for Inactive)
REMARK    1  A    between atoms: C_1  and  C_2
REMARK    2  A    between atoms: C_3  and  C_19
REMARK    3  A    between atoms: C_5  and  O_8
REMARK    4  A    between atoms: O_8  and  C_9
REMARK    5  A    between atoms: C_9  and  C_11
REMARK                            x       y       z     vdW  Elec       q    Type
REMARK                         _______ _______ _______ _____ _____    ______ ____
ROOT
ATOM      1  C   UNL     1     101.745 125.999  82.810  0.00  0.00    +0.000 C 
ATOM      2  O   UNL     1     102.176 125.329  83.737  0.00  0.00    +0.000 OA
ENDROOT
BRANCH   1   3
ATOM      3  C   UNL     1     100.859 127.162  83.022  0.00  0.00    +0.000 A 
ATOM      4  C   UNL     1      99.519 127.169  82.623  0.00  0.00    +0.000 A 
ATOM      5  C   UNL     1      98.719 128.292  82.835  0.00  0.00    +0.000 A 
ATOM      6  C   UNL     1      99.260 129.423  83.444  0.00  0.00    +0.000 A 
ATOM      7  C   UNL     1     100.598 129.420  83.827  0.00  0.00    +0.000 A 
ATOM      8  C   UNL     1     101.404 128.306  83.620  0.00  0.00    +0.000 A 
ATOM      9  F   UNL     1     101.117 130.510  84.406  0.00  0.00    +0.000 F 
ATOM     10  F   UNL     1      98.971 126.115  82.002  0.00  0.00    +0.000 F 
ENDBRANCH   1   3
BRANCH   1  11
ATOM     11  O   UNL     1     101.912 125.782  81.457  0.00  0.00    +0.000 OA
BRANCH  11  16
ATOM     12  C   UNL     1     107.225 126.352  79.476  0.00  0.00    +0.000 C 
ATOM     13  C   UNL     1     105.819 126.190  79.986  0.00  0.00    +0.000 A 
ATOM     14  C   UNL     1     105.207 124.920  80.065  0.00  0.00    +0.000 A 
ATOM     15  C   UNL     1     103.893 124.822  80.543  0.00  0.00    +0.000 A 
ATOM     16  C   UNL     1     103.200 125.966  80.935  0.00  0.00    +0.000 A 
ATOM     17  C   UNL     1     103.807 127.217  80.897  0.00  0.00    +0.000 A 
ATOM     18  C   UNL     1     105.111 127.326  80.415  0.00  0.00    +0.000 A 
ATOM     19  C   UNL     1     105.927 123.673  79.631  0.00  0.00    +0.000 C 
ENDBRANCH  11  16
ENDBRANCH   1  11
TORSDOF 3
ENDMDL
