MODEL 1
REMARK VINA RESULT:      -5.1      0.000      0.000
REMARK  Name = *****
REMARK  5 active torsions:
REMARK  status: ('A' for Active; 'I' for Inactive)
REMARK    1  A    between atoms: C_1  and  N_2
REMARK    2  A    between atoms: N_2  and  C_3
REMARK    3  A    between atoms: N_2  and  C_4
REMARK    4  A    between atoms: C_7  and  C_10
REMARK    5  A    between atoms: C_11  and  C_12
REMARK                            x       y       z     vdW  Elec       q    Type
REMARK                         _______ _______ _______ _____ _____    ______ ____
ROOT
ATOM      1  C   UNL     1     102.858 125.434  82.074  0.00  0.00    +0.000 C 
ATOM      2  C   UNL     1     102.012 126.228  82.385  0.00  0.00    +0.000 C 
ENDROOT
BRANCH   2   3
ATOM      3  C   UNL     1     101.035 127.196  82.780  0.00  0.00    +0.000 A 
ATOM      4  C   UNL     1      99.683 127.003  82.495  0.00  0.00    +0.000 A 
ATOM      5  C   UNL     1      98.751 127.967  82.861  0.00  0.00    +0.000 A 
ATOM      6  C   UNL     1      99.149 129.131  83.512  0.00  0.00    +0.000 A 
ATOM      7  C   UNL     1     100.499 129.330  83.804  0.00  0.00    +0.000 A 
ATOM      8  C   UNL     1     101.441 128.363  83.437  0.00  0.00    +0.000 A 
ATOM      9  F   UNL     1      97.452 127.786  82.583  0.00  0.00    +0.000 F 
ATOM     10  F   UNL     1      99.272 125.893  81.861  0.00  0.00    +0.000 F 
ENDBRANCH   2   3
BRANCH   1  14
ATOM     11  C   UNL     1     105.921 122.630  81.027  0.00  0.00    +0.000 A 
ATOM     12  C   UNL     1     105.464 122.780  82.349  0.00  0.00    +0.000 A 
ATOM     13  C   UNL     1     104.466 123.703  82.697  0.00  0.00    +0.000 A 
ATOM     14  C   UNL     1     103.899 124.519  81.725  0.00  0.00    +0.000 A 
ATOM     15  C   UNL     1     104.346 124.420  80.413  0.00  0.00    +0.000 A 
ATOM     16  C   UNL     1     105.344 123.493  80.077  0.00  0.00    +0.000 A 
BRANCH  11  18
ATOM     17  C   UNL     1     108.199 122.196  80.178  0.00  0.00    +0.000 C 
ATOM     18  N   UNL     1     106.917 121.708  80.684  0.00  0.00    +0.000 N 
ATOM     19  C   UNL     1     106.956 120.422  81.379  0.00  0.00    +0.000 C 
ENDBRANCH  11  18
ENDBRANCH   1  14
TORSDOF 3
ENDMDL
