REMARK  Name = *****
REMARK  5 active torsions:
REMARK  status: ('A' for Active; 'I' for Inactive)
REMARK    1  A    between atoms: C_1  and  C_2
REMARK    2  A    between atoms: C_8  and  C_9
REMARK    3  A    between atoms: C_8  and  C_10
REMARK    4  A    between atoms: C_10  and  C_11
REMARK    5  A    between atoms: C_11  and  C_12
REMARK                            x       y       z     vdW  Elec       q    Type
REMARK                         _______ _______ _______ _____ _____    ______ ____
ROOT
ATOM      1  C   UNL     1       3.982  -0.603   1.091  0.00  0.00    +0.000 C 
ATOM      2  C   UNL     1       2.746  -0.126   0.302  0.00  0.00    +0.000 C 
ATOM      3  C   UNL     1       2.330  -1.216  -0.710  0.00  0.00    +0.000 C 
ATOM      4  C   UNL     1       3.102  -1.153  -1.992  0.00  0.00    +0.000 C 
ATOM      5  C   UNL     1       3.855  -0.105  -2.351  0.00  0.00    +0.000 C 
ATOM      6  C   UNL     1       3.974   1.106  -1.546  0.00  0.00    +0.000 C 
ATOM      7  C   UNL     1       4.974   1.955  -1.840  0.00  0.00    +0.000 C 
ATOM      8  C   UNL     1       2.949   1.277  -0.398  0.00  0.00    +0.000 C 
ATOM      9  C   UNL     1       1.599   1.730  -1.019  0.00  0.00    +0.000 C 
ENDROOT
BRANCH   8  10
ATOM     10  C   UNL     1       3.372   2.315   0.702  0.00  0.00    +0.000 C 
BRANCH  10  11
ATOM     11  C   UNL     1       3.115   3.801   0.396  0.00  0.00    +0.000 C 
BRANCH  11  12
ATOM     12  C   UNL     1       3.754   4.696   1.407  0.00  0.00    +0.000 A 
ATOM     13  C   UNL     1       3.184   5.194   2.561  0.00  0.00    +0.000 A 
ATOM     14  O   UNL     1       4.065   5.974   3.238  0.00  0.00    +0.000 OA
ATOM     15  C   UNL     1       5.215   5.985   2.518  0.00  0.00    +0.000 A 
ATOM     16  C   UNL     1       5.078   5.218   1.385  0.00  0.00    +0.000 A 
ENDBRANCH  11  12
ENDBRANCH  10  11
ENDBRANCH   8  10
TORSDOF 3
