MODEL 1
REMARK VINA RESULT:      -4.9      0.000      0.000
REMARK  Name = *****
REMARK  3 active torsions:
REMARK  status: ('A' for Active; 'I' for Inactive)
REMARK    1  A    between atoms: C_1  and  C_2
REMARK    2  A    between atoms: C_4  and  C_17
REMARK    3  A    between atoms: C_9  and  C_11
REMARK                            x       y       z     vdW  Elec       q    Type
REMARK                         _______ _______ _______ _____ _____    ______ ____
ROOT
ATOM      1  C   UNL     1      99.704 131.079  84.481  0.00  0.00    +0.000 C 
ATOM      2  C   UNL     1     100.041 129.717  83.947  0.00  0.00    +0.000 A 
ATOM      3  C   UNL     1      99.015 128.851  83.524  0.00  0.00    +0.000 A 
ATOM      4  C   UNL     1      99.277 127.575  82.986  0.00  0.00    +0.000 A 
ATOM      5  C   UNL     1     100.629 127.249  82.894  0.00  0.00    +0.000 A 
ATOM      6  C   UNL     1     101.675 128.070  83.281  0.00  0.00    +0.000 A 
ATOM      7  C   UNL     1     101.389 129.332  83.813  0.00  0.00    +0.000 A 
ATOM      8  N   UNL     1     102.874 127.446  83.047  0.00  0.00    +0.000 NA
ATOM      9  C   UNL     1     102.526 126.278  82.535  0.00  0.00    +0.000 A 
ATOM     10  O   UNL     1     101.172 126.092  82.413  0.00  0.00    +0.000 OA
ATOM     11  C   UNL     1      98.163 126.676  82.552  0.00  0.00    +0.000 C 
ENDROOT
BRANCH   9  12
ATOM     12  C   UNL     1     103.381 125.180  82.087  0.00  0.00    +0.000 A 
ATOM     13  C   UNL     1     103.848 124.241  83.021  0.00  0.00    +0.000 A 
ATOM     14  C   UNL     1     104.666 123.181  82.624  0.00  0.00    +0.000 A 
ATOM     15  C   UNL     1     105.029 123.045  81.286  0.00  0.00    +0.000 A 
ATOM     16  C   UNL     1     104.574 123.967  80.346  0.00  0.00    +0.000 A 
ATOM     17  C   UNL     1     103.755 125.028  80.744  0.00  0.00    +0.000 A 
ENDBRANCH   9  12
TORSDOF 1
ENDMDL
