MODEL 1
REMARK VINA RESULT:      -4.5      0.000      0.000
REMARK  Name = *****
REMARK  5 active torsions:
REMARK  status: ('A' for Active; 'I' for Inactive)
REMARK    1  A    between atoms: C_1  and  C_2
REMARK    2  A    between atoms: C_5  and  C_8
REMARK    3  A    between atoms: C_8  and  S_9
REMARK    4  A    between atoms: S_9  and  C_10
REMARK    5  A    between atoms: C_13  and  C_15
REMARK                            x       y       z     vdW  Elec       q    Type
REMARK                         _______ _______ _______ _____ _____    ______ ____
ROOT
ATOM      1  S   UNL     1     103.440 126.502  81.115  0.00  0.00    +0.000 S 
ENDROOT
BRANCH   1   2
ATOM      2  C   UNL     1     104.177 124.979  80.734  0.00  0.00    +0.000 A 
ATOM      3  N   UNL     1     104.961 124.749  79.702  0.00  0.00    +0.000 NA
ATOM      4  N   UNL     1     105.331 123.422  79.765  0.00  0.00    +0.000 NA
ATOM      5  C   UNL     1     104.747 122.923  80.838  0.00  0.00    +0.000 A 
ATOM      6  O   UNL     1     103.994 123.861  81.504  0.00  0.00    +0.000 OA
BRANCH   5   7
ATOM      7  C   UNL     1     104.784 121.550  81.403  0.00  0.00    +0.000 C 
ATOM      8  F   UNL     1     106.024 120.995  81.359  0.00  0.00    +0.000 F 
ATOM      9  F   UNL     1     104.397 121.525  82.708  0.00  0.00    +0.000 F 
ATOM     10  F   UNL     1     103.956 120.700  80.737  0.00  0.00    +0.000 F 
ENDBRANCH   5   7
ENDBRANCH   1   2
BRANCH   1  11
ATOM     11  C   UNL     1     101.982 125.932  82.035  0.00  0.00    +0.000 C 
BRANCH  11  16
ATOM     12  C   UNL     1      99.139 130.426  84.418  0.00  0.00    +0.000 C 
ATOM     13  C   UNL     1      99.868 129.253  83.833  0.00  0.00    +0.000 A 
ATOM     14  C   UNL     1      99.164 128.228  83.193  0.00  0.00    +0.000 A 
ATOM     15  C   UNL     1      99.846 127.152  82.619  0.00  0.00    +0.000 A 
ATOM     16  C   UNL     1     101.245 127.086  82.668  0.00  0.00    +0.000 A 
ATOM     17  C   UNL     1     101.948 128.128  83.289  0.00  0.00    +0.000 A 
ATOM     18  C   UNL     1     101.265 129.202  83.863  0.00  0.00    +0.000 A 
ENDBRANCH  11  16
ENDBRANCH   1  11
TORSDOF 4
ENDMDL
