MODEL 1
REMARK VINA RESULT:      -4.7      0.000      0.000
REMARK  Name = *****
REMARK  2 active torsions:
REMARK  status: ('A' for Active; 'I' for Inactive)
REMARK    1  A    between atoms: C_4  and  C_7
REMARK    2  A    between atoms: C_8  and  C_9
REMARK                            x       y       z     vdW  Elec       q    Type
REMARK                         _______ _______ _______ _____ _____    ______ ____
ROOT
ATOM      1  C   UNL     1     103.070 125.561  81.436  0.00  0.00    +0.000 C 
ATOM      2  C   UNL     1     102.214 126.247  81.925  0.00  0.00    +0.000 C 
ENDROOT
BRANCH   1   6
ATOM      3  C   UNL     1     106.349 123.220  79.935  0.00  0.00    +0.000 C 
ATOM      4  C   UNL     1     105.171 122.468  80.544  0.00  0.00    +0.000 C 
ATOM      5  C   UNL     1     104.348 123.379  81.457  0.00  0.00    +0.000 C 
ATOM      6  C   UNL     1     104.088 124.742  80.863  0.00  0.00    +0.000 C 
ATOM      7  C   UNL     1     104.775 125.198  79.801  0.00  0.00    +0.000 C 
ATOM      8  C   UNL     1     105.874 124.429  79.128  0.00  0.00    +0.000 C 
ENDBRANCH   1   6
BRANCH   2   9
ATOM      9  C   UNL     1     101.199 127.068  82.501  0.00  0.00    +0.000 C 
ATOM     10  C   UNL     1      99.909 126.716  82.353  0.00  0.00    +0.000 C 
ATOM     11  C   UNL     1      98.761 127.510  82.906  0.00  0.00    +0.000 C 
ATOM     12  C   UNL     1      99.165 128.902  83.392  0.00  0.00    +0.000 C 
ATOM     13  C   UNL     1     100.485 128.859  84.154  0.00  0.00    +0.000 C 
ATOM     14  C   UNL     1     101.607 128.295  83.278  0.00  0.00    +0.000 C 
ENDBRANCH   2   9
TORSDOF 2
ENDMDL
