MODEL 1
REMARK VINA RESULT:      -5.0      0.000      0.000
REMARK  Name = *****
REMARK  6 active torsions:
REMARK  status: ('A' for Active; 'I' for Inactive)
REMARK    1  A    between atoms: C_1  and  C_2
REMARK    2  A    between atoms: C_4  and  C_9
REMARK    3  A    between atoms: C_6  and  C_8
REMARK    4  A    between atoms: C_10  and  C_11
REMARK    5  A    between atoms: C_14  and  O_17
REMARK    6  A    between atoms: O_17  and  C_18
REMARK                            x       y       z     vdW  Elec       q    Type
REMARK                         _______ _______ _______ _____ _____    ______ ____
ROOT
ATOM      1  C   UNL     1     103.273 126.161  81.282  0.00  0.00    +0.000 C 
ATOM      2  C   UNL     1     102.117 125.895  81.911  0.00  0.00    +0.000 C 
ENDROOT
BRANCH   1   6
ATOM      3  C   UNL     1     106.796 124.606  78.068  0.00  0.00    +0.000 C 
ATOM      4  C   UNL     1     105.850 124.358  79.205  0.00  0.00    +0.000 A 
ATOM      5  C   UNL     1     105.026 125.380  79.662  0.00  0.00    +0.000 A 
ATOM      6  C   UNL     1     104.152 125.125  80.720  0.00  0.00    +0.000 A 
ATOM      7  C   UNL     1     104.161 123.856  81.298  0.00  0.00    +0.000 A 
ATOM      8  C   UNL     1     105.013 122.883  80.786  0.00  0.00    +0.000 A 
ATOM      9  N   UNL     1     105.851 123.120  79.751  0.00  0.00    +0.000 NA
ATOM     10  C   UNL     1     105.032 121.509  81.384  0.00  0.00    +0.000 C 
ENDBRANCH   1   6
BRANCH   2  11
ATOM     11  C   UNL     1     101.247 126.928  82.491  0.00  0.00    +0.000 A 
ATOM     12  C   UNL     1      99.850 126.842  82.450  0.00  0.00    +0.000 A 
ATOM     13  C   UNL     1      99.051 127.830  83.039  0.00  0.00    +0.000 A 
ATOM     14  C   UNL     1      99.641 128.915  83.688  0.00  0.00    +0.000 A 
ATOM     15  C   UNL     1     101.033 128.997  83.746  0.00  0.00    +0.000 A 
ATOM     16  C   UNL     1     101.831 128.009  83.158  0.00  0.00    +0.000 A 
BRANCH  14  17
ATOM     17  O   UNL     1      98.981 129.944  84.301  0.00  0.00    +0.000 OA
ATOM     18  C   UNL     1      99.525 131.247  84.133  0.00  0.00    +0.000 C 
ENDBRANCH  14  17
ENDBRANCH   2  11
TORSDOF 3
ENDMDL
