MODEL 1
REMARK VINA RESULT:      -4.0      0.000      0.000
REMARK  Name = *****
REMARK  5 active torsions:
REMARK  status: ('A' for Active; 'I' for Inactive)
REMARK    1  A    between atoms: C_1  and  C_2
REMARK    2  A    between atoms: C_2  and  C_12
REMARK    3  A    between atoms: N_3  and  O_4
REMARK    4  A    between atoms: O_4  and  C_5
REMARK    5  A    between atoms: C_5  and  C_6
REMARK                            x       y       z     vdW  Elec       q    Type
REMARK                         _______ _______ _______ _____ _____    ______ ____
ROOT
ATOM      1  C   UNL     1      87.918  70.819  89.856  0.00  0.00    +0.000 C 
ATOM      2  C   UNL     1      87.468  69.965  88.692  0.00  0.00    +0.000 C 
ATOM      3  N   UNL     1      86.812  68.877  88.972  0.00  0.00    +0.000 NA
ENDROOT
BRANCH   2   4
ATOM      4  C   UNL     1      87.811  70.449  87.334  0.00  0.00    +0.000 A 
ATOM      5  C   UNL     1      86.841  71.067  86.537  0.00  0.00    +0.000 A 
ATOM      6  C   UNL     1      87.181  71.540  85.268  0.00  0.00    +0.000 A 
ATOM      7  C   UNL     1      88.488  71.402  84.795  0.00  0.00    +0.000 A 
ATOM      8  C   UNL     1      89.457  70.791  85.591  0.00  0.00    +0.000 A 
ATOM      9  C   UNL     1      89.115  70.320  86.856  0.00  0.00    +0.000 A 
ATOM     10  F   UNL     1      90.064  69.737  87.603  0.00  0.00    +0.000 F 
ENDBRANCH   2   4
BRANCH   3  11
ATOM     11  O   UNL     1      86.504  68.132  87.824  0.00  0.00    +0.000 OA
BRANCH  11  12
ATOM     12  C   UNL     1      87.260  66.922  87.840  0.00  0.00    +0.000 C 
BRANCH  12  13
ATOM     13  C   UNL     1      88.188  66.924  86.655  0.00  0.00    +0.000 A 
ATOM     14  C   UNL     1      89.537  66.574  86.808  0.00  0.00    +0.000 A 
ATOM     15  C   UNL     1      90.403  66.596  85.713  0.00  0.00    +0.000 A 
ATOM     16  C   UNL     1      89.931  66.975  84.457  0.00  0.00    +0.000 A 
ATOM     17  C   UNL     1      88.595  67.339  84.296  0.00  0.00    +0.000 A 
ATOM     18  C   UNL     1      87.729  67.318  85.390  0.00  0.00    +0.000 A 
ENDBRANCH  12  13
ENDBRANCH  11  12
ENDBRANCH   3  11
TORSDOF 4
ENDMDL
