MODEL 1
REMARK VINA RESULT:      -4.4      0.000      0.000
REMARK  Name = *****
REMARK  5 active torsions:
REMARK  status: ('A' for Active; 'I' for Inactive)
REMARK    1  A    between atoms: C_1  and  C_2
REMARK    2  A    between atoms: C_5  and  S_8
REMARK    3  A    between atoms: S_8  and  C_9
REMARK    4  A    between atoms: C_9  and  O_11
REMARK    5  A    between atoms: O_11  and  C_12
REMARK                            x       y       z     vdW  Elec       q    Type
REMARK                         _______ _______ _______ _____ _____    ______ ____
ROOT
ATOM      1  C   UNL     1      89.621  67.652  86.015  0.00  0.00    +0.000 C 
ATOM      2  O   UNL     1      90.649  67.297  86.583  0.00  0.00    +0.000 OA
ENDROOT
BRANCH   1   3
ATOM      3  S   UNL     1      89.484  69.276  85.335  0.00  0.00    +0.000 S 
BRANCH   3   8
ATOM      4  C   UNL     1      86.256  71.875  89.802  0.00  0.00    +0.000 C 
ATOM      5  C   UNL     1      87.060  71.263  88.693  0.00  0.00    +0.000 A 
ATOM      6  C   UNL     1      86.551  71.216  87.391  0.00  0.00    +0.000 A 
ATOM      7  C   UNL     1      87.286  70.616  86.364  0.00  0.00    +0.000 A 
ATOM      8  C   UNL     1      88.538  70.053  86.627  0.00  0.00    +0.000 A 
ATOM      9  C   UNL     1      89.037  70.077  87.932  0.00  0.00    +0.000 A 
ATOM     10  C   UNL     1      88.302  70.677  88.959  0.00  0.00    +0.000 A 
ENDBRANCH   3   8
ENDBRANCH   1   3
BRANCH   1  11
ATOM     11  O   UNL     1      88.492  66.864  85.825  0.00  0.00    +0.000 OA
BRANCH  11  12
ATOM     12  C   UNL     1      88.231  66.065  86.933  0.00  0.00    +0.000 A 
ATOM     13  C   UNL     1      87.353  66.508  87.916  0.00  0.00    +0.000 A 
ATOM     14  C   UNL     1      87.064  65.702  89.015  0.00  0.00    +0.000 A 
ATOM     15  C   UNL     1      87.654  64.441  89.125  0.00  0.00    +0.000 A 
ATOM     16  C   UNL     1      88.527  63.989  88.130  0.00  0.00    +0.000 A 
ATOM     17  C   UNL     1      88.808  64.804  87.036  0.00  0.00    +0.000 A 
ATOM     18  F   UNL     1      89.637  64.361  86.082  0.00  0.00    +0.000 F 
ATOM     19  F   UNL     1      86.777  67.713  87.812  0.00  0.00    +0.000 F 
ENDBRANCH  11  12
ENDBRANCH   1  11
TORSDOF 4
ENDMDL
