REMARK  Name = *****
REMARK  4 active torsions:
REMARK  status: ('A' for Active; 'I' for Inactive)
REMARK    1  A    between atoms: C_4  and  C_7
REMARK    2  A    between atoms: C_7  and  S_8
REMARK    3  A    between atoms: S_8  and  C_9
REMARK    4  A    between atoms: C_10  and  C_11
REMARK                            x       y       z     vdW  Elec       q    Type
REMARK                         _______ _______ _______ _____ _____    ______ ____
ROOT
ATOM      1  S   UNL     1      -3.513  -1.112  -1.048  0.00  0.00    +0.000 S 
ENDROOT
BRANCH   1   2
ATOM      2  C   UNL     1      -5.200  -0.897  -0.724  0.00  0.00    +0.000 C 
ATOM      3  C   UNL     1      -6.157  -1.797  -1.001  0.00  0.00    +0.000 C 
BRANCH   3   4
ATOM      4  C   UNL     1      -5.994  -3.110  -1.636  0.00  0.00    +0.000 A 
ATOM      5  C   UNL     1      -6.324  -4.265  -0.918  0.00  0.00    +0.000 A 
ATOM      6  C   UNL     1      -6.205  -5.524  -1.512  0.00  0.00    +0.000 A 
ATOM      7  C   UNL     1      -5.765  -5.635  -2.830  0.00  0.00    +0.000 A 
ATOM      8  C   UNL     1      -5.443  -4.488  -3.555  0.00  0.00    +0.000 A 
ATOM      9  C   UNL     1      -5.561  -3.230  -2.962  0.00  0.00    +0.000 A 
ENDBRANCH   3   4
ENDBRANCH   1   2
BRANCH   1  10
ATOM     10  C   UNL     1      -2.832   0.403  -0.310  0.00  0.00    +0.000 C 
BRANCH  10  14
ATOM     11  C   UNL     1       1.460   0.569  -0.715  0.00  0.00    +0.000 A 
ATOM     12  C   UNL     1       0.645   1.134  -1.694  0.00  0.00    +0.000 A 
ATOM     13  C   UNL     1      -0.744   1.082  -1.564  0.00  0.00    +0.000 A 
ATOM     14  C   UNL     1      -1.332   0.468  -0.448  0.00  0.00    +0.000 A 
ATOM     15  C   UNL     1      -0.501  -0.107   0.525  0.00  0.00    +0.000 A 
ATOM     16  C   UNL     1       0.887  -0.054   0.392  0.00  0.00    +0.000 A 
ENDBRANCH  10  14
ENDBRANCH   1  10
TORSDOF 4
