MODEL 1
REMARK VINA RESULT:      -4.8      0.000      0.000
REMARK  Name = *****
REMARK  4 active torsions:
REMARK  status: ('A' for Active; 'I' for Inactive)
REMARK    1  A    between atoms: C_1  and  C_2
REMARK    2  A    between atoms: C_2  and  C_3
REMARK    3  A    between atoms: C_2  and  C_11
REMARK    4  A    between atoms: C_4  and  C_5
REMARK                            x       y       z     vdW  Elec       q    Type
REMARK                         _______ _______ _______ _____ _____    ______ ____
ROOT
ATOM      1  C   UNL     1      89.830  70.373  85.358  0.00  0.00    +0.000 C 
ATOM      2  C   UNL     1      89.319  69.864  86.711  0.00  0.00    +0.000 C 
ENDROOT
BRANCH   2   3
ATOM      3  C   UNL     1      89.191  68.348  86.758  0.00  0.00    +0.000 A 
ATOM      4  C   UNL     1      88.061  67.766  87.355  0.00  0.00    +0.000 A 
ATOM      5  C   UNL     1      87.909  66.379  87.400  0.00  0.00    +0.000 A 
ATOM      6  C   UNL     1      88.881  65.552  86.842  0.00  0.00    +0.000 A 
ATOM      7  C   UNL     1      90.002  66.113  86.234  0.00  0.00    +0.000 A 
ATOM      8  C   UNL     1      90.156  67.500  86.189  0.00  0.00    +0.000 A 
ENDBRANCH   2   3
BRANCH   2   9
ATOM      9  C   UNL     1      88.009  70.532  87.064  0.00  0.00    +0.000 C 
ATOM     10  C   UNL     1      87.158  71.039  86.155  0.00  0.00    +0.000 C 
BRANCH  10  11
ATOM     11  C   UNL     1      85.885  71.686  86.496  0.00  0.00    +0.000 A 
ATOM     12  C   UNL     1      84.999  72.153  85.516  0.00  0.00    +0.000 A 
ATOM     13  C   UNL     1      83.781  72.736  85.877  0.00  0.00    +0.000 A 
ATOM     14  C   UNL     1      83.432  72.846  87.221  0.00  0.00    +0.000 A 
ATOM     15  C   UNL     1      84.296  72.369  88.204  0.00  0.00    +0.000 A 
ATOM     16  C   UNL     1      85.514  71.786  87.843  0.00  0.00    +0.000 A 
ENDBRANCH  10  11
ENDBRANCH   2   9
TORSDOF 3
ENDMDL
