MODEL 1
REMARK VINA RESULT:      -4.4      0.000      0.000
REMARK  Name = *****
REMARK  4 active torsions:
REMARK  status: ('A' for Active; 'I' for Inactive)
REMARK    1  A    between atoms: C_1  and  C_2
REMARK    2  A    between atoms: C_4  and  N_8
REMARK    3  A    between atoms: N_8  and  C_9
REMARK    4  A    between atoms: C_9  and  C_10
REMARK                            x       y       z     vdW  Elec       q    Type
REMARK                         _______ _______ _______ _____ _____    ______ ____
ROOT
ATOM      1  N   UNL     1     102.893 125.520  81.667  0.00  0.00    +0.000 NA
ENDROOT
BRANCH   1   5
ATOM      2  C   UNL     1     106.289 124.576  78.248  0.00  0.00    +0.000 C 
ATOM      3  C   UNL     1     105.545 124.205  79.496  0.00  0.00    +0.000 A 
ATOM      4  C   UNL     1     104.543 125.042  80.001  0.00  0.00    +0.000 A 
ATOM      5  C   UNL     1     103.889 124.692  81.179  0.00  0.00    +0.000 A 
ATOM      6  C   UNL     1     104.210 123.536  81.880  0.00  0.00    +0.000 A 
ATOM      7  C   UNL     1     105.218 122.708  81.389  0.00  0.00    +0.000 A 
ATOM      8  C   UNL     1     105.886 123.044  80.207  0.00  0.00    +0.000 A 
ENDBRANCH   1   5
BRANCH   1   9
ATOM      9  C   UNL     1     102.090 126.187  82.059  0.00  0.00    +0.000 C 
BRANCH   9  10
ATOM     10  C   UNL     1     101.060 127.042  82.561  0.00  0.00    +0.000 A 
ATOM     11  C   UNL     1     101.394 128.193  83.277  0.00  0.00    +0.000 A 
ATOM     12  C   UNL     1     100.387 129.028  83.767  0.00  0.00    +0.000 A 
ATOM     13  C   UNL     1      99.047 128.711  83.542  0.00  0.00    +0.000 A 
ATOM     14  C   UNL     1      98.712 127.561  82.828  0.00  0.00    +0.000 A 
ATOM     15  C   UNL     1      99.718 126.725  82.337  0.00  0.00    +0.000 A 
ENDBRANCH   9  10
ENDBRANCH   1   9
TORSDOF 3
ENDMDL
