REMARK  Name = *****
REMARK  5 active torsions:
REMARK  status: ('A' for Active; 'I' for Inactive)
REMARK    1  A    between atoms: C_1  and  C_2
REMARK    2  A    between atoms: C_5  and  O_8
REMARK    3  A    between atoms: O_8  and  C_9
REMARK    4  A    between atoms: C_9  and  C_10
REMARK    5  A    between atoms: C_12  and  C_16
REMARK                            x       y       z     vdW  Elec       q    Type
REMARK                         _______ _______ _______ _____ _____    ______ ____
ROOT
ATOM      1  C   UNL     1      -2.115  -3.353   0.154  0.00  0.00    +0.000 C 
ENDROOT
BRANCH   1   2
ATOM      2  C   UNL     1      -3.504  -3.930   0.330  0.00  0.00    +0.000 A 
ATOM      3  C   UNL     1      -3.784  -5.230  -0.125  0.00  0.00    +0.000 A 
ATOM      4  C   UNL     1      -5.051  -5.808   0.062  0.00  0.00    +0.000 A 
ATOM      5  C   UNL     1      -6.042  -5.069   0.726  0.00  0.00    +0.000 A 
ATOM      6  C   UNL     1      -5.771  -3.785   1.194  0.00  0.00    +0.000 A 
ATOM      7  C   UNL     1      -4.509  -3.222   1.004  0.00  0.00    +0.000 A 
BRANCH   4   8
ATOM      8  C   UNL     1      -5.355  -7.201  -0.431  0.00  0.00    +0.000 C 
ATOM      9  F   UNL     1      -4.307  -7.794  -1.068  0.00  0.00    +0.000 F 
ATOM     10  F   UNL     1      -5.701  -8.047   0.579  0.00  0.00    +0.000 F 
ATOM     11  F   UNL     1      -6.392  -7.230  -1.314  0.00  0.00    +0.000 F 
ENDBRANCH   4   8
ENDBRANCH   1   2
BRANCH   1  12
ATOM     12  O   UNL     1      -2.183  -1.938  -0.012  0.00  0.00    +0.000 OA
BRANCH  12  17
ATOM     13  C   UNL     1       2.527   1.194  -0.606  0.00  0.00    +0.000 C 
ATOM     14  C   UNL     1       1.296   0.352  -0.447  0.00  0.00    +0.000 A 
ATOM     15  C   UNL     1       0.026   0.932  -0.400  0.00  0.00    +0.000 A 
ATOM     16  C   UNL     1      -1.102   0.127  -0.252  0.00  0.00    +0.000 A 
ATOM     17  C   UNL     1      -1.000  -1.264  -0.147  0.00  0.00    +0.000 A 
ATOM     18  C   UNL     1       0.269  -1.844  -0.193  0.00  0.00    +0.000 A 
ATOM     19  C   UNL     1       1.408  -1.040  -0.341  0.00  0.00    +0.000 A 
ATOM     20  F   UNL     1      -2.307   0.717  -0.209  0.00  0.00    +0.000 F 
ENDBRANCH  12  17
ENDBRANCH   1  12
TORSDOF 4
