MODEL 1
REMARK VINA RESULT:      -4.1      0.000      0.000
REMARK  Name = *****
REMARK  3 active torsions:
REMARK  status: ('A' for Active; 'I' for Inactive)
REMARK    1  A    between atoms: C_1  and  C_2
REMARK    2  A    between atoms: C_2  and  C_11
REMARK    3  A    between atoms: C_4  and  C_5
REMARK                            x       y       z     vdW  Elec       q    Type
REMARK                         _______ _______ _______ _____ _____    ______ ____
ROOT
ATOM      1  C   UNL     1      89.409  71.219  85.046  0.00  0.00    +0.000 C 
ATOM      2  C   UNL     1      88.668  70.329  86.028  0.00  0.00    +0.000 C 
ATOM      3  C   UNL     1      89.516  69.576  87.018  0.00  0.00    +0.000 C 
ATOM      4  C   UNL     1      88.817  68.782  85.929  0.00  0.00    +0.000 C 
ATOM      5 CL   UNL     1      89.877  68.169  84.616  0.00  0.00    +0.000 Cl
ENDROOT
BRANCH   2   6
ATOM      6  C   UNL     1      87.344  70.947  86.472  0.00  0.00    +0.000 A 
ATOM      7  C   UNL     1      86.423  71.448  85.534  0.00  0.00    +0.000 A 
ATOM      8  C   UNL     1      85.216  72.025  85.933  0.00  0.00    +0.000 A 
ATOM      9  C   UNL     1      84.909  72.130  87.287  0.00  0.00    +0.000 A 
ATOM     10  C   UNL     1      85.810  71.663  88.238  0.00  0.00    +0.000 A 
ATOM     11  C   UNL     1      87.016  71.083  87.832  0.00  0.00    +0.000 A 
ENDBRANCH   2   6
BRANCH   4  12
ATOM     12  C   UNL     1      87.681  67.810  86.379  0.00  0.00    +0.000 A 
ATOM     13  C   UNL     1      87.558  67.224  87.626  0.00  0.00    +0.000 A 
ATOM     14  C   UNL     1      86.407  66.389  87.732  0.00  0.00    +0.000 A 
ATOM     15  C   UNL     1      85.689  66.351  86.560  0.00  0.00    +0.000 A 
ATOM     16  S   UNL     1      86.403  67.314  85.345  0.00  0.00    +0.000 S 
ENDBRANCH   4  12
TORSDOF 2
ENDMDL
