MODEL 1
REMARK VINA RESULT:      -4.7      0.000      0.000
REMARK  Name = *****
REMARK  2 active torsions:
REMARK  status: ('A' for Active; 'I' for Inactive)
REMARK    1  A    between atoms: C_8  and  C_9
REMARK    2  A    between atoms: C_9  and  C_10
REMARK                            x       y       z     vdW  Elec       q    Type
REMARK                         _______ _______ _______ _____ _____    ______ ____
ROOT
ATOM      1  C   UNL     1     103.862 127.733  80.394  0.00  0.00    +0.000 C 
ATOM      2  C   UNL     1     103.683 126.497  80.896  0.00  0.00    +0.000 C 
ATOM      3  C   UNL     1     103.927 125.277  80.035  0.00  0.00    +0.000 C 
ATOM      4  C   UNL     1     105.230 124.574  80.404  0.00  0.00    +0.000 C 
ATOM      5  C   UNL     1     105.124 123.567  81.548  0.00  0.00    +0.000 C 
ATOM      6  C   UNL     1     104.162 123.895  82.688  0.00  0.00    +0.000 C 
ATOM      7  C   UNL     1     104.153 125.356  83.134  0.00  0.00    +0.000 C 
ATOM      8  C   UNL     1     103.226 126.300  82.334  0.00  0.00    +0.000 C 
ENDROOT
BRANCH   8   9
ATOM      9  C   UNL     1     101.725 125.916  82.372  0.00  0.00    +0.000 C 
BRANCH   9  10
ATOM     10  C   UNL     1     100.804 127.058  82.742  0.00  0.00    +0.000 A 
ATOM     11  C   UNL     1      99.431 126.980  82.467  0.00  0.00    +0.000 A 
ATOM     12  C   UNL     1      98.583 128.037  82.801  0.00  0.00    +0.000 A 
ATOM     13  C   UNL     1      99.095 129.178  83.413  0.00  0.00    +0.000 A 
ATOM     14  C   UNL     1     100.458 129.264  83.694  0.00  0.00    +0.000 A 
ATOM     15  C   UNL     1     101.308 128.209  83.360  0.00  0.00    +0.000 A 
ENDBRANCH   9  10
ENDBRANCH   8   9
TORSDOF 2
ENDMDL
