REMARK  Name = *****
REMARK  5 active torsions:
REMARK  status: ('A' for Active; 'I' for Inactive)
REMARK    1  A    between atoms: C_1  and  C_2
REMARK    2  A    between atoms: C_4  and  C_18
REMARK    3  A    between atoms: C_5  and  N_8
REMARK    4  A    between atoms: N_8  and  C_9
REMARK    5  A    between atoms: C_10  and  C_12
REMARK                            x       y       z     vdW  Elec       q    Type
REMARK                         _______ _______ _______ _____ _____    ______ ____
ROOT
ATOM      1  N   UNL     1      -2.473  -1.876   0.307  0.00  0.00    +0.000 N 
ATOM      2  C   UNL     1      -3.655  -1.268   0.920  0.00  0.00    +0.000 C 
ATOM      3  C   UNL     1      -2.586  -3.046  -0.466  0.00  0.00    +0.000 C 
ATOM      4  O   UNL     1      -1.817  -3.397  -1.357  0.00  0.00    +0.000 OA
ENDROOT
BRANCH   1   9
ATOM      5  C   UNL     1       2.104   1.565  -0.410  0.00  0.00    +0.000 C 
ATOM      6  C   UNL     1       0.919   0.664  -0.230  0.00  0.00    +0.000 A 
ATOM      7  C   UNL     1       1.096  -0.690   0.074  0.00  0.00    +0.000 A 
ATOM      8  C   UNL     1      -0.002  -1.551   0.282  0.00  0.00    +0.000 A 
ATOM      9  C   UNL     1      -1.312  -1.044   0.147  0.00  0.00    +0.000 A 
ATOM     10  C   UNL     1      -1.476   0.328  -0.117  0.00  0.00    +0.000 A 
ATOM     11  C   UNL     1      -0.376   1.171  -0.302  0.00  0.00    +0.000 A 
ATOM     12  C   UNL     1       0.306  -2.973   0.670  0.00  0.00    +0.000 C 
ENDBRANCH   1   9
BRANCH   3  13
ATOM     13  C   UNL     1      -3.747  -3.929  -0.224  0.00  0.00    +0.000 A 
ATOM     14  C   UNL     1      -4.670  -4.135  -1.253  0.00  0.00    +0.000 A 
ATOM     15  C   UNL     1      -5.757  -4.983  -1.042  0.00  0.00    +0.000 A 
ATOM     16  C   UNL     1      -5.909  -5.632   0.185  0.00  0.00    +0.000 A 
ATOM     17  C   UNL     1      -4.971  -5.443   1.203  0.00  0.00    +0.000 A 
ATOM     18  C   UNL     1      -3.882  -4.596   0.999  0.00  0.00    +0.000 A 
ENDBRANCH   3  13
TORSDOF 2
