MODEL 1
REMARK VINA RESULT:      -4.1      0.000      0.000
REMARK  Name = *****
REMARK  5 active torsions:
REMARK  status: ('A' for Active; 'I' for Inactive)
REMARK    1  A    between atoms: N_3  and  C_10
REMARK    2  A    between atoms: C_6  and  C_7
REMARK    3  A    between atoms: C_7  and  C_8
REMARK    4  A    between atoms: C_10  and  O_12
REMARK    5  A    between atoms: O_12  and  C_13
REMARK                            x       y       z     vdW  Elec       q    Type
REMARK                         _______ _______ _______ _____ _____    ______ ____
ROOT
ATOM      1  C   UNL     1      88.481  70.467  89.175  0.00  0.00    +0.000 C 
ATOM      2  C   UNL     1      89.163  70.470  87.808  0.00  0.00    +0.000 C 
ATOM      3  N   UNL     1      88.737  69.348  86.961  0.00  0.00    +0.000 N 
ATOM      4  C   UNL     1      87.288  69.138  86.868  0.00  0.00    +0.000 C 
ATOM      5  C   UNL     1      86.606  69.131  88.234  0.00  0.00    +0.000 C 
ATOM      6  C   UNL     1      86.952  70.362  89.081  0.00  0.00    +0.000 C 
ENDROOT
BRANCH   3   7
ATOM      7  C   UNL     1      89.585  68.804  85.982  0.00  0.00    +0.000 C 
ATOM      8  S   UNL     1      89.662  69.250  84.368  0.00  0.00    +0.000 S 
BRANCH   7   9
ATOM      9  O   UNL     1      90.416  67.787  86.488  0.00  0.00    +0.000 OA
BRANCH   9  10
ATOM     10  C   UNL     1      90.296  66.406  86.208  0.00  0.00    +0.000 A 
ATOM     11  C   UNL     1      89.173  65.716  86.659  0.00  0.00    +0.000 A 
ATOM     12  C   UNL     1      89.038  64.367  86.336  0.00  0.00    +0.000 A 
ATOM     13  C   UNL     1      90.010  63.734  85.558  0.00  0.00    +0.000 A 
ATOM     14  C   UNL     1      91.121  64.447  85.096  0.00  0.00    +0.000 A 
ATOM     15  C   UNL     1      91.264  65.796  85.415  0.00  0.00    +0.000 A 
ENDBRANCH   9  10
ENDBRANCH   7   9
ENDBRANCH   3   7
BRANCH   6  16
ATOM     16  C   UNL     1      86.332  71.677  88.564  0.00  0.00    +0.000 C 
BRANCH  16  17
ATOM     17  C   UNL     1      84.873  71.522  88.145  0.00  0.00    +0.000 C 
ATOM     18 CL   UNL     1      84.584  72.360  86.601  0.00  0.00    +0.000 Cl
ENDBRANCH  16  17
ENDBRANCH   6  16
TORSDOF 5
ENDMDL
