MODEL 1
REMARK VINA RESULT:      -3.5      0.000      0.000
REMARK  Name = *****
REMARK  4 active torsions:
REMARK  status: ('A' for Active; 'I' for Inactive)
REMARK    1  A    between atoms: C_4  and  S_7
REMARK    2  A    between atoms: S_7  and  C_8
REMARK    3  A    between atoms: C_8  and  C_9
REMARK    4  A    between atoms: C_9  and  C_10
REMARK                            x       y       z     vdW  Elec       q    Type
REMARK                         _______ _______ _______ _____ _____    ______ ____
ROOT
ATOM      1  C   UNL     1      87.630  63.273  86.725  0.00  0.00    +0.000 C 
ENDROOT
BRANCH   1   2
ATOM      2  S   UNL     1      88.005  65.048  86.924  0.00  0.00    +0.000 S 
BRANCH   2   6
ATOM      3  C   UNL     1      87.158  64.177  91.405  0.00  0.00    +0.000 C 
ATOM      4  C   UNL     1      88.581  63.944  90.906  0.00  0.00    +0.000 C 
ATOM      5  C   UNL     1      88.646  63.897  89.379  0.00  0.00    +0.000 C 
ATOM      6  C   UNL     1      88.036  65.157  88.755  0.00  0.00    +0.000 C 
ATOM      7  C   UNL     1      86.602  65.378  89.254  0.00  0.00    +0.000 C 
ATOM      8  C   UNL     1      86.545  65.426  90.781  0.00  0.00    +0.000 C 
ENDBRANCH   2   6
ENDBRANCH   1   2
BRANCH   1   9
ATOM      9  C   UNL     1      86.123  63.070  86.562  0.00  0.00    +0.000 C 
BRANCH   9  10
ATOM     10  C   UNL     1      85.504  62.537  87.833  0.00  0.00    +0.000 A 
ATOM     11  C   UNL     1      86.232  61.682  88.672  0.00  0.00    +0.000 A 
ATOM     12  C   UNL     1      85.652  61.171  89.834  0.00  0.00    +0.000 A 
ATOM     13  C   UNL     1      84.340  61.507  90.166  0.00  0.00    +0.000 A 
ATOM     14  C   UNL     1      83.606  62.352  89.335  0.00  0.00    +0.000 A 
ATOM     15  C   UNL     1      84.184  62.864  88.172  0.00  0.00    +0.000 A 
ENDBRANCH   9  10
ENDBRANCH   1   9
TORSDOF 4
ENDMDL
