MODEL 1
REMARK VINA RESULT:      -4.7      0.000      0.000
REMARK  Name = *****
REMARK  2 active torsions:
REMARK  status: ('A' for Active; 'I' for Inactive)
REMARK    1  A    between atoms: C_5  and  O_8
REMARK    2  A    between atoms: O_8  and  N_9
REMARK                            x       y       z     vdW  Elec       q    Type
REMARK                         _______ _______ _______ _____ _____    ______ ____
ROOT
ATOM      1  N   UNL     1      88.095  65.118  87.117  0.00  0.00    +0.000 N 
ATOM      2  C   UNL     1      88.231  66.476  87.186  0.00  0.00    +0.000 A 
ATOM      3  C   UNL     1      89.404  66.694  86.474  0.00  0.00    +0.000 A 
ATOM      4  C   UNL     1      89.878  68.001  86.307  0.00  0.00    +0.000 A 
ATOM      5  C   UNL     1      89.141  69.042  86.881  0.00  0.00    +0.000 A 
ATOM      6  C   UNL     1      87.969  68.799  87.603  0.00  0.00    +0.000 A 
ATOM      7  C   UNL     1      87.482  67.498  87.775  0.00  0.00    +0.000 A 
ATOM      8 CL   UNL     1      89.696  70.664  86.698  0.00  0.00    +0.000 Cl
ATOM      9  N   UNL     1      89.915  65.496  86.044  0.00  0.00    +0.000 NA
ATOM     10  N   UNL     1      89.115  64.528  86.478  0.00  0.00    +0.000 NA
ENDROOT
BRANCH   1  11
ATOM     11  O   UNL     1      87.113  64.356  87.744  0.00  0.00    +0.000 OA
BRANCH  11  16
ATOM     12  C   UNL     1      86.059  63.501  91.408  0.00  0.00    +0.000 C 
ATOM     13  C   UNL     1      85.682  62.180  90.747  0.00  0.00    +0.000 C 
ATOM     14  C   UNL     1      85.475  62.238  89.237  0.00  0.00    +0.000 C 
ATOM     15  C   UNL     1      86.780  62.057  88.462  0.00  0.00    +0.000 C 
ATOM     16  C   UNL     1      87.720  63.267  88.454  0.00  0.00    +0.000 C 
ATOM     17  C   UNL     1      88.106  63.766  89.856  0.00  0.00    +0.000 C 
ATOM     18  C   UNL     1      86.975  64.442  90.631  0.00  0.00    +0.000 C 
ENDBRANCH  11  16
ENDBRANCH   1  11
TORSDOF 2
ENDMDL
