MODEL 1
REMARK VINA RESULT:      -4.2      0.000      0.000
REMARK  Name = *****
REMARK  4 active torsions:
REMARK  status: ('A' for Active; 'I' for Inactive)
REMARK    1  A    between atoms: C_4  and  O_7
REMARK    2  A    between atoms: O_7  and  N_8
REMARK    3  A    between atoms: N_8  and  C_9
REMARK    4  A    between atoms: C_9  and  C_10
REMARK                            x       y       z     vdW  Elec       q    Type
REMARK                         _______ _______ _______ _____ _____    ______ ____
ROOT
ATOM      1  C   UNL     1     104.532 124.397  80.281  0.00  0.00    +0.000 C 
ENDROOT
BRANCH   1   2
ATOM      2  C   UNL     1     104.545 123.314  81.282  0.00  0.00    +0.000 A 
ATOM      3  C   UNL     1     104.385 123.608  82.641  0.00  0.00    +0.000 A 
ATOM      4  C   UNL     1     104.386 122.572  83.568  0.00  0.00    +0.000 A 
ATOM      5  C   UNL     1     104.546 121.253  83.167  0.00  0.00    +0.000 A 
ATOM      6  C   UNL     1     104.708 120.978  81.816  0.00  0.00    +0.000 A 
ATOM      7  C   UNL     1     104.711 121.994  80.863  0.00  0.00    +0.000 A 
ATOM      8  F   UNL     1     104.863 119.707  81.420  0.00  0.00    +0.000 F 
ATOM      9  F   UNL     1     104.228 122.853  84.868  0.00  0.00    +0.000 F 
ENDBRANCH   1   2
BRANCH   1  10
ATOM     10  N   UNL     1     103.513 125.184  80.177  0.00  0.00    +0.000 NA
BRANCH  10  11
ATOM     11  O   UNL     1     103.831 126.444  80.700  0.00  0.00    +0.000 OA
BRANCH  11  15
ATOM     12  C   UNL     1     101.107 127.812  83.554  0.00  0.00    +0.000 A 
ATOM     13  C   UNL     1     100.816 126.635  82.866  0.00  0.00    +0.000 A 
ATOM     14  C   UNL     1     101.704 126.153  81.902  0.00  0.00    +0.000 A 
ATOM     15  C   UNL     1     102.887 126.844  81.623  0.00  0.00    +0.000 A 
ATOM     16  C   UNL     1     103.170 128.026  82.312  0.00  0.00    +0.000 A 
ATOM     17  C   UNL     1     102.282 128.509  83.277  0.00  0.00    +0.000 A 
ENDBRANCH  11  15
ENDBRANCH  10  11
ENDBRANCH   1  10
TORSDOF 4
ENDMDL
