REMARK  Name = *****
REMARK  5 active torsions:
REMARK  status: ('A' for Active; 'I' for Inactive)
REMARK    1  A    between atoms: C_1  and  N_2
REMARK    2  A    between atoms: C_4  and  C_11
REMARK    3  A    between atoms: C_5  and  C_7
REMARK    4  A    between atoms: C_11  and  S_12
REMARK    5  A    between atoms: S_12  and  C_13
REMARK                            x       y       z     vdW  Elec       q    Type
REMARK                         _______ _______ _______ _____ _____    ______ ____
ROOT
ATOM      1  C   UNL     1       2.247   1.534  -1.150  0.00  0.00    +0.000 C 
ATOM      2  N   UNL     1       3.071   0.544  -0.497  0.00  0.00    +0.000 N 
ATOM      3  C   UNL     1       3.995  -0.282  -1.056  0.00  0.00    +0.000 A 
ATOM      4  C   UNL     1       4.527  -1.061  -0.057  0.00  0.00    +0.000 A 
ATOM      5  C   UNL     1       3.842  -0.614   1.125  0.00  0.00    +0.000 A 
ATOM      6  N   UNL     1       2.963   0.372   0.836  0.00  0.00    +0.000 NA
ATOM      7 CL   UNL     1       4.314  -0.232  -2.727  0.00  0.00    +0.000 Cl
ENDROOT
BRANCH   5   8
ATOM      8  C   UNL     1       4.022  -1.139   2.531  0.00  0.00    +0.000 C 
ATOM      9  F   UNL     1       5.303  -1.543   2.758  0.00  0.00    +0.000 F 
ATOM     10  F   UNL     1       3.747  -0.211   3.487  0.00  0.00    +0.000 F 
ATOM     11  F   UNL     1       3.227  -2.212   2.783  0.00  0.00    +0.000 F 
ENDBRANCH   5   8
BRANCH   4  12
ATOM     12  C   UNL     1       5.573  -2.114  -0.170  0.00  0.00    +0.000 C 
BRANCH  12  13
ATOM     13  S   UNL     1       4.823  -3.770  -0.039  0.00  0.00    +0.000 S 
BRANCH  13  14
ATOM     14  C   UNL     1       6.221  -4.790  -0.471  0.00  0.00    +0.000 A 
ATOM     15  C   UNL     1       7.457  -4.670   0.173  0.00  0.00    +0.000 A 
ATOM     16  C   UNL     1       8.525  -5.493  -0.192  0.00  0.00    +0.000 A 
ATOM     17  C   UNL     1       8.361  -6.449  -1.193  0.00  0.00    +0.000 A 
ATOM     18  C   UNL     1       7.128  -6.587  -1.826  0.00  0.00    +0.000 A 
ATOM     19  C   UNL     1       6.060  -5.763  -1.463  0.00  0.00    +0.000 A 
ENDBRANCH  13  14
ENDBRANCH  12  13
ENDBRANCH   4  12
TORSDOF 4
