MODEL 1
REMARK VINA RESULT:      -4.2      0.000      0.000
REMARK  Name = *****
REMARK  2 active torsions:
REMARK  status: ('A' for Active; 'I' for Inactive)
REMARK    1  A    between atoms: C_4  and  C_7
REMARK    2  A    between atoms: N_9  and  C_10
REMARK                            x       y       z     vdW  Elec       q    Type
REMARK                         _______ _______ _______ _____ _____    ______ ____
ROOT
ATOM      1  C   UNL     1      88.141  68.719  87.037  0.00  0.00    +0.000 C 
ATOM      2  C   UNL     1      89.539  68.544  86.518  0.00  0.00    +0.000 C 
ATOM      3  N   UNL     1      88.466  68.919  85.607  0.00  0.00    +0.000 N 
ATOM      4 CL   UNL     1      90.197  66.941  86.338  0.00  0.00    +0.000 Cl
ENDROOT
BRANCH   1   8
ATOM      5  C   UNL     1      87.080  71.903  89.780  0.00  0.00    +0.000 A 
ATOM      6  C   UNL     1      86.123  71.375  88.919  0.00  0.00    +0.000 A 
ATOM      7  C   UNL     1      86.470  70.350  88.036  0.00  0.00    +0.000 A 
ATOM      8  C   UNL     1      87.779  69.839  87.977  0.00  0.00    +0.000 A 
ATOM      9  C   UNL     1      88.719  70.379  88.872  0.00  0.00    +0.000 A 
ATOM     10  C   UNL     1      88.378  71.403  89.760  0.00  0.00    +0.000 A 
ENDBRANCH   1   8
BRANCH   3  11
ATOM     11  C   UNL     1      88.474  70.192  84.984  0.00  0.00    +0.000 A 
ATOM     12  C   UNL     1      87.357  70.881  84.493  0.00  0.00    +0.000 A 
ATOM     13  C   UNL     1      87.491  72.142  83.901  0.00  0.00    +0.000 A 
ATOM     14  C   UNL     1      88.744  72.740  83.797  0.00  0.00    +0.000 A 
ATOM     15  C   UNL     1      89.865  72.078  84.284  0.00  0.00    +0.000 A 
ATOM     16  C   UNL     1      89.728  70.817  84.872  0.00  0.00    +0.000 A 
ENDBRANCH   3  11
TORSDOF 2
ENDMDL
