REMARK  Name = *****
REMARK  1 active torsions:
REMARK  status: ('A' for Active; 'I' for Inactive)
REMARK    1  A    between atoms: N_7  and  C_9
REMARK                            x       y       z     vdW  Elec       q    Type
REMARK                         _______ _______ _______ _____ _____    ______ ____
ROOT
ATOM      1  C   UNL     1      -1.106  -2.682   0.470  0.00  0.00    +0.000 A 
ATOM      2  C   UNL     1      -2.285  -3.110  -0.161  0.00  0.00    +0.000 A 
ATOM      3  C   UNL     1      -2.668  -4.468  -0.202  0.00  0.00    +0.000 A 
ATOM      4  C   UNL     1      -3.849  -4.881  -0.842  0.00  0.00    +0.000 A 
ATOM      5  C   UNL     1      -4.217  -6.227  -0.871  0.00  0.00    +0.000 A 
ATOM      6  C   UNL     1      -3.408  -7.181  -0.261  0.00  0.00    +0.000 A 
ATOM      7  C   UNL     1      -2.231  -6.790   0.378  0.00  0.00    +0.000 A 
ATOM      8  C   UNL     1      -1.851  -5.438   0.414  0.00  0.00    +0.000 A 
ATOM      9  C   UNL     1      -0.677  -5.026   1.052  0.00  0.00    +0.000 A 
ATOM     10  C   UNL     1      -0.319  -3.673   1.078  0.00  0.00    +0.000 A 
ENDROOT
BRANCH   1  17
ATOM     11  C   UNL     1      -0.611  -0.123  -1.547  0.00  0.00    +0.000 C 
ATOM     12  C   UNL     1       0.885   0.122  -1.238  0.00  0.00    +0.000 C 
ATOM     13  C   UNL     1       1.072   0.216   0.290  0.00  0.00    +0.000 C 
ATOM     14  C   UNL     1       0.144   1.265   0.851  0.00  0.00    +0.000 C 
ATOM     15  C   UNL     1      -1.148   1.007   0.591  0.00  0.00    +0.000 C 
ATOM     16  C   UNL     1      -1.373  -0.262  -0.214  0.00  0.00    +0.000 C 
ATOM     17  N   UNL     1      -0.701  -1.340   0.545  0.00  0.00    +0.000 N 
ATOM     18  O   UNL     1       0.678  -1.062   0.860  0.00  0.00    +0.000 OA
ENDBRANCH   1  17
TORSDOF 1
