REMARK  Name = *****
REMARK  3 active torsions:
REMARK  status: ('A' for Active; 'I' for Inactive)
REMARK    1  A    between atoms: C_4  and  C_7
REMARK    2  A    between atoms: C_8  and  C_9
REMARK    3  A    between atoms: C_8  and  C_11
REMARK                            x       y       z     vdW  Elec       q    Type
REMARK                         _______ _______ _______ _____ _____    ______ ____
ROOT
ATOM      1  C   UNL     1      -2.845   0.209  -0.378  0.00  0.00    +0.000 C 
ATOM      2  C   UNL     1      -3.747  -0.775  -0.186  0.00  0.00    +0.000 C 
ENDROOT
BRANCH   2   3
ATOM      3  C   UNL     1      -5.180  -0.470  -0.390  0.00  0.00    +0.000 A 
ATOM      4  C   UNL     1      -5.647  -0.012  -1.633  0.00  0.00    +0.000 A 
ATOM      5  C   UNL     1      -7.003   0.271  -1.822  0.00  0.00    +0.000 A 
ATOM      6  C   UNL     1      -7.901   0.095  -0.771  0.00  0.00    +0.000 A 
ATOM      7  C   UNL     1      -7.454  -0.363   0.467  0.00  0.00    +0.000 A 
ATOM      8  C   UNL     1      -6.099  -0.647   0.656  0.00  0.00    +0.000 A 
ATOM      9 CL   UNL     1      -9.568   0.445  -1.003  0.00  0.00    +0.000 Cl
ENDBRANCH   2   3
BRANCH   1  13
ATOM     10  C   UNL     1       1.387  -0.039   0.134  0.00  0.00    +0.000 A 
ATOM     11  C   UNL     1       0.755  -0.872  -0.787  0.00  0.00    +0.000 A 
ATOM     12  C   UNL     1      -0.629  -0.803  -0.960  0.00  0.00    +0.000 A 
ATOM     13  C   UNL     1      -1.391   0.095  -0.204  0.00  0.00    +0.000 A 
ATOM     14  C   UNL     1      -0.747   0.938   0.710  0.00  0.00    +0.000 A 
ATOM     15  C   UNL     1       0.637   0.868   0.881  0.00  0.00    +0.000 A 
ENDBRANCH   1  13
BRANCH   2  16
ATOM     16  C   UNL     1      -3.380  -2.087   0.252  0.00  0.00    +0.000 C 
ATOM     17  N   UNL     1      -3.103  -3.158   0.605  0.00  0.00    +0.000 NA
ENDBRANCH   2  16
TORSDOF 3
