REMARK  Name = *****
REMARK  6 active torsions:
REMARK  status: ('A' for Active; 'I' for Inactive)
REMARK    1  A    between atoms: C_1  and  C_2
REMARK    2  A    between atoms: C_4  and  C_17
REMARK    3  A    between atoms: C_6  and  N_8
REMARK    4  A    between atoms: N_8  and  C_9
REMARK    5  A    between atoms: N_8  and  C_10
REMARK    6  A    between atoms: C_10  and  C_11
REMARK                            x       y       z     vdW  Elec       q    Type
REMARK                         _______ _______ _______ _____ _____    ______ ____
ROOT
ATOM      1  N   UNL     1      -0.191  -3.123  -0.326  0.00  0.00    +0.000 N 
ATOM      2  C   UNL     1      -1.446  -3.831  -0.095  0.00  0.00    +0.000 C 
ENDROOT
BRANCH   1   8
ATOM      3  C   UNL     1       2.307   1.115  -0.900  0.00  0.00    +0.000 C 
ATOM      4  C   UNL     1       1.068   0.399  -0.452  0.00  0.00    +0.000 A 
ATOM      5  C   UNL     1      -0.011   1.096   0.092  0.00  0.00    +0.000 A 
ATOM      6  C   UNL     1      -1.161   0.412   0.486  0.00  0.00    +0.000 A 
ATOM      7  C   UNL     1      -1.215  -0.987   0.343  0.00  0.00    +0.000 A 
ATOM      8  C   UNL     1      -0.143  -1.733  -0.175  0.00  0.00    +0.000 A 
ATOM      9  C   UNL     1       0.988  -0.999  -0.577  0.00  0.00    +0.000 A 
ATOM     10  C   UNL     1      -2.331   1.145   1.073  0.00  0.00    +0.000 C 
ENDBRANCH   1   8
BRANCH   1  11
ATOM     11  C   UNL     1       1.032  -3.890  -0.028  0.00  0.00    +0.000 C 
BRANCH  11  12
ATOM     12  C   UNL     1       1.839  -4.240  -1.264  0.00  0.00    +0.000 A 
ATOM     13  C   UNL     1       3.220  -4.467  -1.137  0.00  0.00    +0.000 A 
ATOM     14  C   UNL     1       3.990  -4.824  -2.246  0.00  0.00    +0.000 A 
ATOM     15  C   UNL     1       3.390  -4.970  -3.494  0.00  0.00    +0.000 A 
ATOM     16  C   UNL     1       2.020  -4.761  -3.634  0.00  0.00    +0.000 A 
ATOM     17  C   UNL     1       1.249  -4.404  -2.525  0.00  0.00    +0.000 A 
ENDBRANCH  11  12
ENDBRANCH   1  11
TORSDOF 3
