MODEL 1
REMARK VINA RESULT:      -4.7      0.000      0.000
REMARK  Name = *****
REMARK  5 active torsions:
REMARK  status: ('A' for Active; 'I' for Inactive)
REMARK    1  A    between atoms: C_3  and  N_17
REMARK    2  A    between atoms: C_6  and  C_7
REMARK    3  A    between atoms: C_7  and  C_8
REMARK    4  A    between atoms: C_8  and  C_9
REMARK    5  A    between atoms: C_12  and  N_15
REMARK                            x       y       z     vdW  Elec       q    Type
REMARK                         _______ _______ _______ _____ _____    ______ ____
ROOT
ATOM      1  C   UNL     1     102.462 127.841  82.956  0.00  0.00    +0.000 C 
ENDROOT
BRANCH   1   7
ATOM      2  C   UNL     1     100.188 128.603  83.753  0.00  0.00    +0.000 A 
ATOM      3  C   UNL     1      98.796 128.471  83.803  0.00  0.00    +0.000 A 
ATOM      4  C   UNL     1      98.149 127.421  83.134  0.00  0.00    +0.000 A 
ATOM      5  C   UNL     1      98.927 126.517  82.402  0.00  0.00    +0.000 A 
ATOM      6  C   UNL     1     100.320 126.646  82.348  0.00  0.00    +0.000 A 
ATOM      7  C   UNL     1     100.961 127.687  83.029  0.00  0.00    +0.000 A 
BRANCH   4   8
ATOM      8  N   UNL     1      96.778 127.249  83.133  0.00  0.00    +0.000 NA
ATOM      9  O   UNL     1      96.413 126.069  83.089  0.00  0.00    +0.000 OA
ENDBRANCH   4   8
ENDBRANCH   1   7
BRANCH   1  10
ATOM     10  C   UNL     1     103.005 127.444  81.581  0.00  0.00    +0.000 C 
BRANCH  10  11
ATOM     11  C   UNL     1     103.558 126.040  81.586  0.00  0.00    +0.000 A 
ATOM     12  C   UNL     1     103.928 125.418  80.387  0.00  0.00    +0.000 A 
ATOM     13  C   UNL     1     104.422 124.108  80.390  0.00  0.00    +0.000 A 
ATOM     14  C   UNL     1     104.555 123.394  81.590  0.00  0.00    +0.000 A 
ATOM     15  C   UNL     1     104.176 124.020  82.784  0.00  0.00    +0.000 A 
ATOM     16  C   UNL     1     103.682 125.328  82.785  0.00  0.00    +0.000 A 
BRANCH  14  17
ATOM     17  N   UNL     1     105.025 122.094  81.661  0.00  0.00    +0.000 NA
ATOM     18  O   UNL     1     104.453 121.299  80.906  0.00  0.00    +0.000 OA
ENDBRANCH  14  17
ENDBRANCH  10  11
ENDBRANCH   1  10
TORSDOF 5
ENDMDL
