MODEL 1
REMARK VINA RESULT:      -4.5      0.000      0.000
REMARK  Name = *****
REMARK  3 active torsions:
REMARK  status: ('A' for Active; 'I' for Inactive)
REMARK    1  A    between atoms: C_4  and  C_7
REMARK    2  A    between atoms: C_7  and  N_8
REMARK    3  A    between atoms: N_8  and  C_9
REMARK                            x       y       z     vdW  Elec       q    Type
REMARK                         _______ _______ _______ _____ _____    ______ ____
ROOT
ATOM      1  C   UNL     1     102.903 125.680  83.486  0.00  0.00    +0.000 C 
ATOM      2  O   UNL     1     102.652 124.918  84.438  0.00  0.00    +0.000 OA
ENDROOT
BRANCH   1   6
ATOM      3  C   UNL     1     104.944 123.368  80.496  0.00  0.00    +0.000 A 
ATOM      4  C   UNL     1     104.857 122.884  81.804  0.00  0.00    +0.000 A 
ATOM      5  C   UNL     1     104.183 123.625  82.776  0.00  0.00    +0.000 A 
ATOM      6  C   UNL     1     103.586 124.850  82.439  0.00  0.00    +0.000 A 
ATOM      7  C   UNL     1     103.674 125.326  81.126  0.00  0.00    +0.000 A 
ATOM      8  C   UNL     1     104.353 124.587  80.156  0.00  0.00    +0.000 A 
ENDBRANCH   1   6
BRANCH   1   9
ATOM      9  N   UNL     1     102.637 126.949  83.361  0.00  0.00    +0.000 NA
BRANCH   9  10
ATOM     10  C   UNL     1     101.316 127.422  83.258  0.00  0.00    +0.000 A 
ATOM     11  C   UNL     1     100.370 126.664  82.551  0.00  0.00    +0.000 A 
ATOM     12  C   UNL     1      99.055 127.107  82.393  0.00  0.00    +0.000 A 
ATOM     13  C   UNL     1      98.669 128.334  82.925  0.00  0.00    +0.000 A 
ATOM     14  C   UNL     1      99.600 129.119  83.604  0.00  0.00    +0.000 A 
ATOM     15  C   UNL     1     100.920 128.670  83.763  0.00  0.00    +0.000 A 
ATOM     16  I   UNL     1     102.257 129.945  84.761  0.00  0.00    +0.000 I 
ENDBRANCH   9  10
ENDBRANCH   1   9
TORSDOF 3
ENDMDL
