MODEL 1
REMARK VINA RESULT:      -4.6      0.000      0.000
REMARK  Name = *****
REMARK  4 active torsions:
REMARK  status: ('A' for Active; 'I' for Inactive)
REMARK    1  A    between atoms: C_1  and  C_2
REMARK    2  A    between atoms: C_4  and  O_8
REMARK    3  A    between atoms: O_8  and  C_9
REMARK    4  A    between atoms: C_9  and  C_11
REMARK                            x       y       z     vdW  Elec       q    Type
REMARK                         _______ _______ _______ _____ _____    ______ ____
ROOT
ATOM      1  C   UNL     1      99.325 127.435  83.001  0.00  0.00    +0.000 C 
ATOM      2  O   UNL     1      98.616 127.137  82.057  0.00  0.00    +0.000 OA
ENDROOT
BRANCH   1   3
ATOM      3  C   UNL     1      99.065 128.596  83.869  0.00  0.00    +0.000 A 
ATOM      4  C   UNL     1      99.520 129.846  83.422  0.00  0.00    +0.000 A 
ATOM      5  C   UNL     1      99.302 130.985  84.198  0.00  0.00    +0.000 A 
ATOM      6  C   UNL     1      98.623 130.881  85.411  0.00  0.00    +0.000 A 
ATOM      7  C   UNL     1      98.152 129.640  85.847  0.00  0.00    +0.000 A 
ATOM      8  C   UNL     1      98.367 128.493  85.076  0.00  0.00    +0.000 A 
ATOM      9 CL   UNL     1      97.702 127.006  85.651  0.00  0.00    +0.000 Cl
ENDBRANCH   1   3
BRANCH   1  10
ATOM     10  O   UNL     1     100.526 126.875  83.402  0.00  0.00    +0.000 OA
BRANCH  10  14
ATOM     11  C   UNL     1     104.722 129.106  81.853  0.00  0.00    +0.000 C 
ATOM     12  C   UNL     1     103.741 127.972  81.838  0.00  0.00    +0.000 A 
ATOM     13  C   UNL     1     102.596 128.005  82.647  0.00  0.00    +0.000 A 
ATOM     14  C   UNL     1     101.695 126.942  82.615  0.00  0.00    +0.000 A 
ATOM     15  C   UNL     1     101.943 125.822  81.820  0.00  0.00    +0.000 A 
ATOM     16  C   UNL     1     103.089 125.776  81.030  0.00  0.00    +0.000 A 
ATOM     17  C   UNL     1     103.984 126.847  81.038  0.00  0.00    +0.000 A 
ENDBRANCH  10  14
ENDBRANCH   1  10
TORSDOF 3
ENDMDL
