REMARK  Name = *****
REMARK  3 active torsions:
REMARK  status: ('A' for Active; 'I' for Inactive)
REMARK    1  A    between atoms: C_4  and  C_7
REMARK    2  A    between atoms: C_7  and  N_8
REMARK    3  A    between atoms: N_8  and  C_9
REMARK                            x       y       z     vdW  Elec       q    Type
REMARK                         _______ _______ _______ _____ _____    ______ ____
ROOT
ATOM      1  N   UNL     1       4.053   0.257  -0.450  0.00  0.00    +0.000 NA
ENDROOT
BRANCH   1   2
ATOM      2  C   UNL     1       5.424   0.343  -0.612  0.00  0.00    +0.000 A 
ATOM      3  C   UNL     1       6.020   1.599  -0.677  0.00  0.00    +0.000 A 
ATOM      4  C   UNL     1       7.403   1.684  -0.843  0.00  0.00    +0.000 A 
ATOM      5  C   UNL     1       8.162   0.516  -0.941  0.00  0.00    +0.000 A 
ATOM      6  C   UNL     1       7.552  -0.739  -0.874  0.00  0.00    +0.000 A 
ATOM      7  C   UNL     1       6.169  -0.828  -0.707  0.00  0.00    +0.000 A 
ATOM      8 CL   UNL     1       9.868   0.623  -1.147  0.00  0.00    +0.000 Cl
ENDBRANCH   1   2
BRANCH   1   9
ATOM      9  C   UNL     1       2.948   0.188  -0.321  0.00  0.00    +0.000 C 
BRANCH   9  13
ATOM     10  C   UNL     1      -1.240  -0.074   0.154  0.00  0.00    +0.000 A 
ATOM     11  C   UNL     1      -0.624   1.175   0.075  0.00  0.00    +0.000 A 
ATOM     12  C   UNL     1       0.761   1.263  -0.081  0.00  0.00    +0.000 A 
ATOM     13  C   UNL     1       1.530   0.099  -0.159  0.00  0.00    +0.000 A 
ATOM     14  C   UNL     1       0.912  -1.151  -0.080  0.00  0.00    +0.000 A 
ATOM     15  C   UNL     1      -0.473  -1.236   0.076  0.00  0.00    +0.000 A 
ENDBRANCH   9  13
ENDBRANCH   1   9
TORSDOF 3
