MODEL 1
REMARK VINA RESULT:      -4.5      0.000      0.000
REMARK  Name = *****
REMARK  7 active torsions:
REMARK  status: ('A' for Active; 'I' for Inactive)
REMARK    1  A    between atoms: C_1  and  C_2
REMARK    2  A    between atoms: C_2  and  O_3
REMARK    3  A    between atoms: O_3  and  C_4
REMARK    4  A    between atoms: C_4  and  C_12
REMARK    5  A    between atoms: N_5  and  C_6
REMARK    6  A    between atoms: C_15  and  O_18
REMARK    7  A    between atoms: O_18  and  C_19
REMARK                            x       y       z     vdW  Elec       q    Type
REMARK                         _______ _______ _______ _____ _____    ______ ____
ROOT
ATOM      1  C   UNL     1     102.749 126.134  81.600  0.00  0.00    +0.000 C 
ATOM      2  N   UNL     1     101.706 126.021  82.345  0.00  0.00    +0.000 NA
ENDROOT
BRANCH   2   3
ATOM      3  C   UNL     1     100.818 127.181  82.465  0.00  0.00    +0.000 C 
ATOM      4  C   UNL     1     101.114 127.911  83.780  0.00  0.00    +0.000 C 
ATOM      5  C   UNL     1     100.119 129.040  84.032  0.00  0.00    +0.000 C 
ATOM      6  C   UNL     1      98.678 128.537  83.997  0.00  0.00    +0.000 C 
ATOM      7  C   UNL     1      98.373 127.793  82.699  0.00  0.00    +0.000 C 
ATOM      8  C   UNL     1      99.374 126.667  82.449  0.00  0.00    +0.000 C 
ENDBRANCH   2   3
BRANCH   1   9
ATOM      9  C   UNL     1     103.682 125.000  81.417  0.00  0.00    +0.000 A 
ATOM     10  C   UNL     1     104.026 124.178  82.495  0.00  0.00    +0.000 A 
ATOM     11  C   UNL     1     104.918 123.115  82.309  0.00  0.00    +0.000 A 
ATOM     12  C   UNL     1     105.476 122.880  81.050  0.00  0.00    +0.000 A 
ATOM     13  C   UNL     1     105.144 123.722  79.984  0.00  0.00    +0.000 A 
ATOM     14  C   UNL     1     104.256 124.784  80.163  0.00  0.00    +0.000 A 
BRANCH  12  15
ATOM     15  O   UNL     1     106.352 121.880  80.734  0.00  0.00    +0.000 OA
ATOM     16  C   UNL     1     107.656 122.271  80.318  0.00  0.00    +0.000 C 
ENDBRANCH  12  15
ENDBRANCH   1   9
BRANCH   1  17
ATOM     17  O   UNL     1     103.043 127.272  80.925  0.00  0.00    +0.000 OA
BRANCH  17  19
ATOM     18  C   UNL     1     104.786 128.781  80.287  0.00  0.00    +0.000 C 
ATOM     19  C   UNL     1     104.050 128.155  81.457  0.00  0.00    +0.000 C 
ENDBRANCH  17  19
ENDBRANCH   1  17
TORSDOF 5
ENDMDL
