MODEL 1
REMARK VINA RESULT:      -4.9      0.000      0.000
REMARK  Name = *****
REMARK  6 active torsions:
REMARK  status: ('A' for Active; 'I' for Inactive)
REMARK    1  A    between atoms: C_1  and  C_2
REMARK    2  A    between atoms: C_4  and  O_8
REMARK    3  A    between atoms: O_8  and  P_9
REMARK    4  A    between atoms: P_9  and  O_10
REMARK    5  A    between atoms: O_10  and  C_11
REMARK    6  A    between atoms: C_15  and  C_17
REMARK                            x       y       z     vdW  Elec       q    Type
REMARK                         _______ _______ _______ _____ _____    ______ ____
ROOT
ATOM      1  P   UNL     1      89.367  69.076  86.190  0.00  0.00    +0.000 P 
ATOM      2  F   UNL     1      90.305  70.056  85.389  0.00  0.00    +0.000 F 
ENDROOT
BRANCH   1   3
ATOM      3  O   UNL     1      90.416  67.899  86.548  0.00  0.00    +0.000 OA
BRANCH   3   7
ATOM      4  C   UNL     1      91.816  63.704  84.275  0.00  0.00    +0.000 C 
ATOM      5  C   UNL     1      90.878  64.489  85.144  0.00  0.00    +0.000 A 
ATOM      6  C   UNL     1      91.118  65.847  85.398  0.00  0.00    +0.000 A 
ATOM      7  C   UNL     1      90.263  66.574  86.233  0.00  0.00    +0.000 A 
ATOM      8  C   UNL     1      89.187  65.930  86.848  0.00  0.00    +0.000 A 
ATOM      9  C   UNL     1      88.950  64.575  86.614  0.00  0.00    +0.000 A 
ATOM     10  C   UNL     1      89.794  63.857  85.767  0.00  0.00    +0.000 A 
ENDBRANCH   3   7
ENDBRANCH   1   3
BRANCH   1  11
ATOM     11  O   UNL     1      89.348  69.813  87.627  0.00  0.00    +0.000 OA
BRANCH  11  12
ATOM     12  C   UNL     1      88.293  70.479  88.197  0.00  0.00    +0.000 A 
ATOM     13  C   UNL     1      88.432  70.748  89.562  0.00  0.00    +0.000 A 
ATOM     14  C   UNL     1      87.432  71.430  90.253  0.00  0.00    +0.000 A 
ATOM     15  C   UNL     1      86.282  71.845  89.585  0.00  0.00    +0.000 A 
ATOM     16  C   UNL     1      86.119  71.571  88.222  0.00  0.00    +0.000 A 
ATOM     17  C   UNL     1      87.137  70.897  87.529  0.00  0.00    +0.000 A 
ATOM     18  C   UNL     1      84.896  72.049  87.494  0.00  0.00    +0.000 C 
ENDBRANCH  11  12
ENDBRANCH   1  11
TORSDOF 4
ENDMDL
