MODEL 1
REMARK VINA RESULT:      -4.4      0.000      0.000
REMARK  Name = *****
REMARK  5 active torsions:
REMARK  status: ('A' for Active; 'I' for Inactive)
REMARK    1  A    between atoms: C_1  and  C_2
REMARK    2  A    between atoms: C_2  and  C_3
REMARK    3  A    between atoms: C_2  and  C_11
REMARK    4  A    between atoms: C_3  and  C_4
REMARK    5  A    between atoms: C_4  and  C_5
REMARK                            x       y       z     vdW  Elec       q    Type
REMARK                         _______ _______ _______ _____ _____    ______ ____
ROOT
ATOM      1  C   UNL     1      87.181  68.757  88.307  0.00  0.00    +0.000 C 
ATOM      2  C   UNL     1      87.466  70.262  88.389  0.00  0.00    +0.000 C 
ENDROOT
BRANCH   2   3
ATOM      3  C   UNL     1      86.411  71.045  87.624  0.00  0.00    +0.000 A 
ATOM      4  C   UNL     1      85.376  71.686  88.321  0.00  0.00    +0.000 A 
ATOM      5  C   UNL     1      84.401  72.415  87.638  0.00  0.00    +0.000 A 
ATOM      6  C   UNL     1      84.446  72.512  86.249  0.00  0.00    +0.000 A 
ATOM      7  C   UNL     1      85.465  71.878  85.543  0.00  0.00    +0.000 A 
ATOM      8  C   UNL     1      86.441  71.149  86.225  0.00  0.00    +0.000 A 
ENDBRANCH   2   3
BRANCH   2   9
ATOM      9  C   UNL     1      88.902  70.563  87.915  0.00  0.00    +0.000 C 
BRANCH   9  10
ATOM     10  C   UNL     1      89.543  69.378  87.180  0.00  0.00    +0.000 C 
BRANCH  10  11
ATOM     11  C   UNL     1      89.734  69.678  85.713  0.00  0.00    +0.000 A 
ATOM     12  C   UNL     1      90.061  70.974  85.292  0.00  0.00    +0.000 A 
ATOM     13  C   UNL     1      90.221  71.257  83.935  0.00  0.00    +0.000 A 
ATOM     14  C   UNL     1      90.050  70.250  82.987  0.00  0.00    +0.000 A 
ATOM     15  C   UNL     1      89.719  68.959  83.395  0.00  0.00    +0.000 A 
ATOM     16  C   UNL     1      89.559  68.674  84.752  0.00  0.00    +0.000 A 
ENDBRANCH  10  11
ENDBRANCH   9  10
ENDBRANCH   2   9
TORSDOF 4
ENDMDL
