REMARK  Name = *****
REMARK  3 active torsions:
REMARK  status: ('A' for Active; 'I' for Inactive)
REMARK    1  A    between atoms: C_5  and  C_7
REMARK    2  A    between atoms: C_8  and  C_9
REMARK    3  A    between atoms: C_8  and  C_11
REMARK                            x       y       z     vdW  Elec       q    Type
REMARK                         _______ _______ _______ _____ _____    ______ ____
ROOT
ATOM      1  C   UNL     1      -0.615  -2.355  -0.023  0.00  0.00    +0.000 C 
ATOM      2  C   UNL     1      -1.955  -2.477  -0.101  0.00  0.00    +0.000 C 
ENDROOT
BRANCH   1   7
ATOM      3  C   UNL     1       0.932   0.688   1.555  0.00  0.00    +0.000 A 
ATOM      4  C   UNL     1       1.563   1.291   0.468  0.00  0.00    +0.000 A 
ATOM      5  C   UNL     1       1.490   0.703  -0.795  0.00  0.00    +0.000 A 
ATOM      6  C   UNL     1       0.784  -0.490  -0.973  0.00  0.00    +0.000 A 
ATOM      7  C   UNL     1       0.142  -1.103   0.115  0.00  0.00    +0.000 A 
ATOM      8  C   UNL     1       0.227  -0.505   1.382  0.00  0.00    +0.000 A 
ATOM      9 CL   UNL     1       0.725  -1.169  -2.562  0.00  0.00    +0.000 Cl
ENDBRANCH   1   7
BRANCH   2  10
ATOM     10  C   UNL     1      -2.533  -3.831  -0.227  0.00  0.00    +0.000 A 
ATOM     11  C   UNL     1      -3.393  -4.329   0.764  0.00  0.00    +0.000 A 
ATOM     12  C   UNL     1      -3.932  -5.613   0.652  0.00  0.00    +0.000 A 
ATOM     13  C   UNL     1      -3.614  -6.396  -0.450  0.00  0.00    +0.000 A 
ATOM     14  C   UNL     1      -2.769  -5.921  -1.446  0.00  0.00    +0.000 A 
ATOM     15  C   UNL     1      -2.228  -4.638  -1.336  0.00  0.00    +0.000 A 
ATOM     16  F   UNL     1      -4.131  -7.627  -0.557  0.00  0.00    +0.000 F 
ENDBRANCH   2  10
BRANCH   2  17
ATOM     17  C   UNL     1      -2.849  -1.279  -0.050  0.00  0.00    +0.000 C 
ATOM     18  O   UNL     1      -4.071  -1.353   0.008  0.00  0.00    +0.000 OA
ENDBRANCH   2  17
TORSDOF 3
