REMARK  Name = *****
REMARK  5 active torsions:
REMARK  status: ('A' for Active; 'I' for Inactive)
REMARK    1  A    between atoms: C_4  and  O_7
REMARK    2  A    between atoms: O_7  and  C_8
REMARK    3  A    between atoms: C_8  and  O_10
REMARK    4  A    between atoms: O_10  and  O_11
REMARK    5  A    between atoms: O_11  and  C_12
REMARK                            x       y       z     vdW  Elec       q    Type
REMARK                         _______ _______ _______ _____ _____    ______ ____
ROOT
ATOM      1  C   UNL     1       3.219  -2.000  -0.423  0.00  0.00    +0.000 C 
ATOM      2  O   UNL     1       2.751  -2.891   0.271  0.00  0.00    +0.000 OA
ENDROOT
BRANCH   1   3
ATOM      3  O   UNL     1       2.545  -0.902  -0.861  0.00  0.00    +0.000 OA
BRANCH   3   7
ATOM      4  C   UNL     1      -1.577   0.062  -1.122  0.00  0.00    +0.000 C 
ATOM      5  C   UNL     1      -1.197  -1.416  -1.095  0.00  0.00    +0.000 C 
ATOM      6  C   UNL     1       0.285  -1.620  -1.393  0.00  0.00    +0.000 C 
ATOM      7  C   UNL     1       1.172  -0.802  -0.449  0.00  0.00    +0.000 C 
ATOM      8  C   UNL     1       0.787   0.679  -0.494  0.00  0.00    +0.000 C 
ATOM      9  C   UNL     1      -0.693   0.888  -0.192  0.00  0.00    +0.000 C 
ENDBRANCH   3   7
ENDBRANCH   1   3
BRANCH   1  10
ATOM     10  O   UNL     1       4.491  -1.941  -0.923  0.00  0.00    +0.000 OA
BRANCH  10  11
ATOM     11  O   UNL     1       5.227  -3.101  -0.408  0.00  0.00    +0.000 OA
BRANCH  11  12
ATOM     12  C   UNL     1       5.345  -4.022  -1.496  0.00  0.00    +0.000 C 
ATOM     13  C   UNL     1       5.615  -5.408  -0.908  0.00  0.00    +0.000 C 
ATOM     14  C   UNL     1       5.876  -6.443  -1.997  0.00  0.00    +0.000 C 
ATOM     15  C   UNL     1       7.004  -6.005  -2.928  0.00  0.00    +0.000 C 
ATOM     16  C   UNL     1       6.748  -4.619  -3.512  0.00  0.00    +0.000 C 
ATOM     17  C   UNL     1       6.485  -3.588  -2.419  0.00  0.00    +0.000 C 
ENDBRANCH  11  12
ENDBRANCH  10  11
ENDBRANCH   1  10
TORSDOF 5
