MODEL 1
REMARK VINA RESULT:      -4.5      0.000      0.000
REMARK  Name = *****
REMARK  6 active torsions:
REMARK  status: ('A' for Active; 'I' for Inactive)
REMARK    1  A    between atoms: C_1  and  C_2
REMARK    2  A    between atoms: C_5  and  O_8
REMARK    3  A    between atoms: O_8  and  C_9
REMARK    4  A    between atoms: C_9  and  O_11
REMARK    5  A    between atoms: O_11  and  C_12
REMARK    6  A    between atoms: C_12  and  C_13
REMARK                            x       y       z     vdW  Elec       q    Type
REMARK                         _______ _______ _______ _____ _____    ______ ____
ROOT
ATOM      1  C   UNL     1      90.085  66.615  85.560  0.00  0.00    +0.000 C 
ATOM      2  O   UNL     1      90.694  66.401  84.523  0.00  0.00    +0.000 OA
ENDROOT
BRANCH   1   3
ATOM      3  O   UNL     1      90.374  67.552  86.512  0.00  0.00    +0.000 OA
BRANCH   3   8
ATOM      4  C   UNL     1      86.675  70.822  86.760  0.00  0.00    +0.000 C 
ATOM      5  C   UNL     1      88.141  70.531  86.830  0.00  0.00    +0.000 C 
ATOM      6  C   UNL     1      88.965  70.816  85.576  0.00  0.00    +0.000 C 
ATOM      7  C   UNL     1      89.878  69.625  85.425  0.00  0.00    +0.000 C 
ATOM      8  C   UNL     1      89.682  68.767  86.441  0.00  0.00    +0.000 C 
ATOM      9  C   UNL     1      88.633  69.201  87.384  0.00  0.00    +0.000 C 
ATOM     10  C   UNL     1      88.816  70.462  88.183  0.00  0.00    +0.000 C 
ENDBRANCH   3   8
ENDBRANCH   1   3
BRANCH   1  11
ATOM     11  O   UNL     1      88.962  65.960  85.959  0.00  0.00    +0.000 OA
BRANCH  11  12
ATOM     12  C   UNL     1      89.185  64.755  86.694  0.00  0.00    +0.000 C 
BRANCH  12  13
ATOM     13  C   UNL     1      88.394  64.782  87.976  0.00  0.00    +0.000 A 
ATOM     14  C   UNL     1      88.634  63.832  88.978  0.00  0.00    +0.000 A 
ATOM     15  C   UNL     1      87.888  63.846  90.159  0.00  0.00    +0.000 A 
ATOM     16  C   UNL     1      86.891  64.802  90.344  0.00  0.00    +0.000 A 
ATOM     17  C   UNL     1      86.635  65.742  89.347  0.00  0.00    +0.000 A 
ATOM     18  C   UNL     1      87.380  65.731  88.167  0.00  0.00    +0.000 A 
ENDBRANCH  12  13
ENDBRANCH  11  12
ENDBRANCH   1  11
TORSDOF 5
ENDMDL
