MODEL 1
REMARK VINA RESULT:      -5.2      0.000      0.000
REMARK  Name = *****
REMARK  2 active torsions:
REMARK  status: ('A' for Active; 'I' for Inactive)
REMARK    1  A    between atoms: C_1  and  C_2
REMARK    2  A    between atoms: C_9  and  C_11
REMARK                            x       y       z     vdW  Elec       q    Type
REMARK                         _______ _______ _______ _____ _____    ______ ____
ROOT
ATOM      1  C   UNL     1      99.392 130.811  84.407  0.00  0.00    +0.000 C 
ATOM      2  C   UNL     1      99.814 129.505  83.797  0.00  0.00    +0.000 A 
ATOM      3  C   UNL     1     101.168 129.117  83.816  0.00  0.00    +0.000 A 
ATOM      4  C   UNL     1     101.521 127.886  83.248  0.00  0.00    +0.000 A 
ATOM      5  C   UNL     1     100.530 127.095  82.695  0.00  0.00    +0.000 A 
ATOM      6  C   UNL     1      99.183 127.426  82.654  0.00  0.00    +0.000 A 
ATOM      7  C   UNL     1      98.844 128.660  83.225  0.00  0.00    +0.000 A 
ATOM      8  O   UNL     1     101.119 125.964  82.214  0.00  0.00    +0.000 OA
ATOM      9  C   UNL     1     102.449 126.129  82.505  0.00  0.00    +0.000 A 
ATOM     10  N   UNL     1     102.737 127.263  83.123  0.00  0.00    +0.000 NA
ENDROOT
BRANCH   9  11
ATOM     11  C   UNL     1     103.361 125.063  82.104  0.00  0.00    +0.000 A 
ATOM     12  C   UNL     1     103.801 124.887  80.784  0.00  0.00    +0.000 A 
ATOM     13  C   UNL     1     104.676 123.853  80.440  0.00  0.00    +0.000 A 
ATOM     14  C   UNL     1     105.127 122.972  81.419  0.00  0.00    +0.000 A 
ATOM     15  C   UNL     1     104.699 123.136  82.729  0.00  0.00    +0.000 A 
ATOM     16  C   UNL     1     103.827 124.165  83.078  0.00  0.00    +0.000 A 
ATOM     17  F   UNL     1     105.130 122.291  83.673  0.00  0.00    +0.000 F 
ATOM     18  F   UNL     1     103.396 125.707  79.803  0.00  0.00    +0.000 F 
ENDBRANCH   9  11
TORSDOF 1
ENDMDL
