REMARK  Name = *****
REMARK  3 active torsions:
REMARK  status: ('A' for Active; 'I' for Inactive)
REMARK    1  A    between atoms: C_6  and  C_7
REMARK    2  A    between atoms: C_7  and  C_8
REMARK    3  A    between atoms: C_8  and  C_10
REMARK                            x       y       z     vdW  Elec       q    Type
REMARK                         _______ _______ _______ _____ _____    ______ ____
ROOT
ATOM      1  C   UNL     1      -3.385  -0.124   0.047  0.00  0.00    +0.000 C 
ATOM      2 BR   UNL     1      -4.088   1.702  -0.083  0.00  0.00    +0.000 Br
ENDROOT
BRANCH   1   8
ATOM      3  C   UNL     1      -1.011   0.288   0.884  0.00  0.00    +0.000 A 
ATOM      4  C   UNL     1       0.368   0.330   0.671  0.00  0.00    +0.000 A 
ATOM      5  C   UNL     1       0.878   0.020  -0.582  0.00  0.00    +0.000 A 
ATOM      6  C   UNL     1       0.035  -0.328  -1.630  0.00  0.00    +0.000 A 
ATOM      7  C   UNL     1      -1.345  -0.371  -1.420  0.00  0.00    +0.000 A 
ATOM      8  C   UNL     1      -1.887  -0.074  -0.155  0.00  0.00    +0.000 A 
ATOM      9  F   UNL     1       2.201   0.061  -0.787  0.00  0.00    +0.000 F 
ENDBRANCH   1   8
BRANCH   1  10
ATOM     10  C   UNL     1      -3.832  -0.724   1.373  0.00  0.00    +0.000 C 
ATOM     11  O   UNL     1      -3.953  -0.076   2.413  0.00  0.00    +0.000 OA
BRANCH  10  12
ATOM     12  C   UNL     1      -4.118  -2.191   1.431  0.00  0.00    +0.000 A 
ATOM     13  C   UNL     1      -3.617  -3.098   0.487  0.00  0.00    +0.000 A 
ATOM     14  C   UNL     1      -3.919  -4.459   0.596  0.00  0.00    +0.000 A 
ATOM     15  C   UNL     1      -4.713  -4.910   1.644  0.00  0.00    +0.000 A 
ATOM     16  C   UNL     1      -5.211  -4.027   2.593  0.00  0.00    +0.000 A 
ATOM     17  C   UNL     1      -4.911  -2.667   2.489  0.00  0.00    +0.000 A 
ATOM     18  F   UNL     1      -4.998  -6.215   1.741  0.00  0.00    +0.000 F 
ENDBRANCH  10  12
ENDBRANCH   1  10
TORSDOF 3
