MODEL 1
REMARK VINA RESULT:      -4.3      0.000      0.000
REMARK  Name = *****
REMARK  4 active torsions:
REMARK  status: ('A' for Active; 'I' for Inactive)
REMARK    1  A    between atoms: C_4  and  C_7
REMARK    2  A    between atoms: C_7  and  O_8
REMARK    3  A    between atoms: O_8  and  C_9
REMARK    4  A    between atoms: C_9  and  C_10
REMARK                            x       y       z     vdW  Elec       q    Type
REMARK                         _______ _______ _______ _____ _____    ______ ____
ROOT
ATOM      1  O   UNL     1     103.420 125.075  80.161  0.00  0.00    +0.000 OA
ENDROOT
BRANCH   1   2
ATOM      2  C   UNL     1     103.587 126.472  80.398  0.00  0.00    +0.000 C 
BRANCH   2   6
ATOM      3  C   UNL     1     101.315 127.699  83.859  0.00  0.00    +0.000 A 
ATOM      4  C   UNL     1     102.369 128.490  83.407  0.00  0.00    +0.000 A 
ATOM      5  C   UNL     1     103.113 128.094  82.294  0.00  0.00    +0.000 A 
ATOM      6  C   UNL     1     102.819 126.896  81.626  0.00  0.00    +0.000 A 
ATOM      7  C   UNL     1     101.746 126.117  82.083  0.00  0.00    +0.000 A 
ATOM      8  C   UNL     1     101.002 126.514  83.197  0.00  0.00    +0.000 A 
ENDBRANCH   2   6
ENDBRANCH   1   2
BRANCH   1   9
ATOM      9  C   UNL     1     104.670 124.390  80.153  0.00  0.00    +0.000 C 
BRANCH   9  10
ATOM     10  C   UNL     1     104.640 123.246  81.138  0.00  0.00    +0.000 A 
ATOM     11  C   UNL     1     104.510 123.474  82.517  0.00  0.00    +0.000 A 
ATOM     12  C   UNL     1     104.448 122.402  83.406  0.00  0.00    +0.000 A 
ATOM     13  C   UNL     1     104.500 121.091  82.938  0.00  0.00    +0.000 A 
ATOM     14  C   UNL     1     104.613 120.850  81.570  0.00  0.00    +0.000 A 
ATOM     15  C   UNL     1     104.677 121.920  80.674  0.00  0.00    +0.000 A 
ATOM     16 CL   UNL     1     104.299 122.699  85.095  0.00  0.00    +0.000 Cl
ENDBRANCH   9  10
ENDBRANCH   1   9
TORSDOF 4
ENDMDL
