MODEL 1
REMARK VINA RESULT:      -4.5      0.000      0.000
REMARK  Name = *****
REMARK  3 active torsions:
REMARK  status: ('A' for Active; 'I' for Inactive)
REMARK    1  A    between atoms: C_4  and  C_7
REMARK    2  A    between atoms: C_7  and  S_9
REMARK    3  A    between atoms: S_9  and  C_10
REMARK                            x       y       z     vdW  Elec       q    Type
REMARK                         _______ _______ _______ _____ _____    ______ ____
ROOT
ATOM      1  C   UNL     1      87.794  70.765  85.818  0.00  0.00    +0.000 C 
ATOM      2  O   UNL     1      87.868  70.587  84.607  0.00  0.00    +0.000 OA
ENDROOT
BRANCH   1   6
ATOM      3  C   UNL     1      84.304  72.382  87.748  0.00  0.00    +0.000 A 
ATOM      4  C   UNL     1      84.393  72.436  86.359  0.00  0.00    +0.000 A 
ATOM      5  C   UNL     1      85.514  71.917  85.703  0.00  0.00    +0.000 A 
ATOM      6  C   UNL     1      86.560  71.339  86.436  0.00  0.00    +0.000 A 
ATOM      7  C   UNL     1      86.458  71.294  87.837  0.00  0.00    +0.000 A 
ATOM      8  C   UNL     1      85.336  71.811  88.489  0.00  0.00    +0.000 A 
ENDBRANCH   1   6
BRANCH   1   9
ATOM      9  S   UNL     1      89.161  70.370  86.857  0.00  0.00    +0.000 S 
BRANCH   9  10
ATOM     10  C   UNL     1      89.091  68.589  86.818  0.00  0.00    +0.000 A 
ATOM     11  C   UNL     1      90.133  67.878  86.214  0.00  0.00    +0.000 A 
ATOM     12  C   UNL     1      90.087  66.485  86.163  0.00  0.00    +0.000 A 
ATOM     13  C   UNL     1      89.008  65.790  86.704  0.00  0.00    +0.000 A 
ATOM     14  C   UNL     1      87.961  66.494  87.297  0.00  0.00    +0.000 A 
ATOM     15  C   UNL     1      88.001  67.889  87.349  0.00  0.00    +0.000 A 
ATOM     16 CL   UNL     1      91.377  65.617  85.425  0.00  0.00    +0.000 Cl
ENDBRANCH   9  10
ENDBRANCH   1   9
TORSDOF 3
ENDMDL
