MODEL 1
REMARK VINA RESULT:      -4.2      0.000      0.000
REMARK  Name = *****
REMARK  4 active torsions:
REMARK  status: ('A' for Active; 'I' for Inactive)
REMARK    1  A    between atoms: C_1  and  C_2
REMARK    2  A    between atoms: C_7  and  O_8
REMARK    3  A    between atoms: O_8  and  C_9
REMARK    4  A    between atoms: C_9  and  C_10
REMARK                            x       y       z     vdW  Elec       q    Type
REMARK                         _______ _______ _______ _____ _____    ______ ____
ROOT
ATOM      1  C   UNL     1      86.593  67.605  87.906  0.00  0.00    +0.000 C 
ATOM      2  C   UNL     1      87.915  67.323  87.260  0.00  0.00    +0.000 A 
ATOM      3  C   UNL     1      88.260  66.026  86.861  0.00  0.00    +0.000 A 
ATOM      4  C   UNL     1      89.496  65.800  86.266  0.00  0.00    +0.000 A 
ATOM      5  C   UNL     1      90.351  66.875  86.087  0.00  0.00    +0.000 A 
ATOM      6  N   UNL     1      90.054  68.142  86.459  0.00  0.00    +0.000 NA
ATOM      7  C   UNL     1      88.846  68.339  87.036  0.00  0.00    +0.000 A 
ATOM      8 BR   UNL     1      89.994  64.067  85.716  0.00  0.00    +0.000 Br
ENDROOT
BRANCH   7   9
ATOM      9  O   UNL     1      88.491  69.612  87.436  0.00  0.00    +0.000 OA
BRANCH   9  10
ATOM     10  C   UNL     1      88.210  70.490  86.348  0.00  0.00    +0.000 C 
BRANCH  10  11
ATOM     11  C   UNL     1      86.881  71.157  86.618  0.00  0.00    +0.000 A 
ATOM     12  C   UNL     1      86.082  71.594  85.551  0.00  0.00    +0.000 A 
ATOM     13  C   UNL     1      84.854  72.214  85.792  0.00  0.00    +0.000 A 
ATOM     14  C   UNL     1      84.413  72.401  87.101  0.00  0.00    +0.000 A 
ATOM     15  C   UNL     1      85.198  71.968  88.169  0.00  0.00    +0.000 A 
ATOM     16  C   UNL     1      86.425  71.348  87.929  0.00  0.00    +0.000 A 
ENDBRANCH  10  11
ENDBRANCH   9  10
ENDBRANCH   7   9
TORSDOF 3
ENDMDL
