REMARK  Name = *****
REMARK  2 active torsions:
REMARK  status: ('A' for Active; 'I' for Inactive)
REMARK    1  A    between atoms: C_4  and  C_7
REMARK    2  A    between atoms: C_8  and  C_11
REMARK                            x       y       z     vdW  Elec       q    Type
REMARK                         _______ _______ _______ _____ _____    ______ ____
ROOT
ATOM      1  C   UNL     1      -2.848   0.416  -0.184  0.00  0.00    +0.000 C 
ATOM      2  C   UNL     1      -3.852  -0.081   0.847  0.00  0.00    +0.000 C 
ATOM      3  C   UNL     1      -3.818  -0.683  -0.539  0.00  0.00    +0.000 C 
ATOM      4 BR   UNL     1      -3.286  -2.513  -0.674  0.00  0.00    +0.000 Br
ENDROOT
BRANCH   1   8
ATOM      5  C   UNL     1       1.416  -0.199   0.346  0.00  0.00    +0.000 A 
ATOM      6  C   UNL     1       0.829  -0.385  -0.902  0.00  0.00    +0.000 A 
ATOM      7  C   UNL     1      -0.545  -0.190  -1.064  0.00  0.00    +0.000 A 
ATOM      8  C   UNL     1      -1.367   0.182   0.013  0.00  0.00    +0.000 A 
ATOM      9  C   UNL     1      -0.745   0.378   1.258  0.00  0.00    +0.000 A 
ATOM     10  C   UNL     1       0.629   0.186   1.427  0.00  0.00    +0.000 A 
ENDBRANCH   1   8
BRANCH   2  11
ATOM     11  C   UNL     1      -5.011   0.799   1.256  0.00  0.00    +0.000 A 
ATOM     12  C   UNL     1      -6.333   0.323   1.222  0.00  0.00    +0.000 A 
ATOM     13  C   UNL     1      -7.407   1.128   1.611  0.00  0.00    +0.000 A 
ATOM     14  C   UNL     1      -7.178   2.428   2.051  0.00  0.00    +0.000 A 
ATOM     15  C   UNL     1      -5.877   2.920   2.107  0.00  0.00    +0.000 A 
ATOM     16  C   UNL     1      -4.807   2.110   1.717  0.00  0.00    +0.000 A 
ENDBRANCH   2  11
TORSDOF 2
