MODEL 1
REMARK VINA RESULT:      -4.9      0.000      0.000
REMARK  Name = *****
REMARK  3 active torsions:
REMARK  status: ('A' for Active; 'I' for Inactive)
REMARK    1  A    between atoms: C_1  and  C_2
REMARK    2  A    between atoms: C_7  and  C_8
REMARK    3  A    between atoms: C_9  and  C_10
REMARK                            x       y       z     vdW  Elec       q    Type
REMARK                         _______ _______ _______ _____ _____    ______ ____
ROOT
ATOM      1  C   UNL     1     102.152 126.017  82.319  0.00  0.00    +0.000 C 
ATOM      2  C   UNL     1     102.806 126.064  81.147  0.00  0.00    +0.000 C 
ENDROOT
BRANCH   1   9
ATOM      3  C   UNL     1     102.828 128.557  83.690  0.00  0.00    +0.000 C 
ATOM      4  C   UNL     1     101.414 128.196  83.323  0.00  0.00    +0.000 A 
ATOM      5  C   UNL     1     100.381 129.100  83.620  0.00  0.00    +0.000 A 
ATOM      6  C   UNL     1      99.057 128.806  83.294  0.00  0.00    +0.000 A 
ATOM      7  C   UNL     1      98.748 127.606  82.660  0.00  0.00    +0.000 A 
ATOM      8  C   UNL     1      99.764 126.701  82.353  0.00  0.00    +0.000 A 
ATOM      9  C   UNL     1     101.100 126.979  82.684  0.00  0.00    +0.000 A 
ENDBRANCH   1   9
BRANCH   2  10
ATOM     10  C   UNL     1     103.856 125.113  80.760  0.00  0.00    +0.000 A 
ATOM     11  C   UNL     1     104.714 125.350  79.677  0.00  0.00    +0.000 A 
ATOM     12  C   UNL     1     105.722 124.437  79.357  0.00  0.00    +0.000 A 
ATOM     13  C   UNL     1     105.890 123.285  80.123  0.00  0.00    +0.000 A 
ATOM     14  C   UNL     1     105.054 123.047  81.212  0.00  0.00    +0.000 A 
ATOM     15  C   UNL     1     104.046 123.961  81.533  0.00  0.00    +0.000 A 
ENDBRANCH   2  10
TORSDOF 2
ENDMDL
