MODEL 1
REMARK VINA RESULT:      -3.6      0.000      0.000
REMARK  Name = *****
REMARK  6 active torsions:
REMARK  status: ('A' for Active; 'I' for Inactive)
REMARK    1  A    between atoms: C_1  and  N_2
REMARK    2  A    between atoms: N_2  and  C_3
REMARK    3  A    between atoms: N_2  and  N_9
REMARK    4  A    between atoms: N_9  and  C_10
REMARK    5  A    between atoms: C_10  and  C_11
REMARK    6  A    between atoms: C_11  and  C_12
REMARK                            x       y       z     vdW  Elec       q    Type
REMARK                         _______ _______ _______ _____ _____    ______ ____
ROOT
ATOM      1  N   UNL     1      90.321  69.131  83.016  0.00  0.00    +0.000 NA
ENDROOT
BRANCH   1   3
ATOM      2  C   UNL     1      88.056  68.679  82.505  0.00  0.00    +0.000 C 
ATOM      3  N   UNL     1      89.311  68.203  83.106  0.00  0.00    +0.000 N 
BRANCH   3   4
ATOM      4  C   UNL     1      89.057  67.658  84.404  0.00  0.00    +0.000 A 
ATOM      5  C   UNL     1      90.128  67.204  85.193  0.00  0.00    +0.000 A 
ATOM      6  C   UNL     1      89.914  66.679  86.470  0.00  0.00    +0.000 A 
ATOM      7  C   UNL     1      88.622  66.605  86.984  0.00  0.00    +0.000 A 
ATOM      8  C   UNL     1      87.547  67.059  86.224  0.00  0.00    +0.000 A 
ATOM      9  C   UNL     1      87.765  67.585  84.947  0.00  0.00    +0.000 A 
ENDBRANCH   3   4
ENDBRANCH   1   3
BRANCH   1  10
ATOM     10  C   UNL     1      89.913  70.342  83.241  0.00  0.00    +0.000 C 
BRANCH  10  11
ATOM     11  C   UNL     1      90.318  71.073  84.490  0.00  0.00    +0.000 C 
BRANCH  11  12
ATOM     12  C   UNL     1      89.295  70.915  85.585  0.00  0.00    +0.000 A 
ATOM     13  C   UNL     1      89.670  70.466  86.858  0.00  0.00    +0.000 A 
ATOM     14  C   UNL     1      88.713  70.310  87.863  0.00  0.00    +0.000 A 
ATOM     15  C   UNL     1      87.374  70.596  87.604  0.00  0.00    +0.000 A 
ATOM     16  C   UNL     1      86.990  71.040  86.341  0.00  0.00    +0.000 A 
ATOM     17  C   UNL     1      87.944  71.200  85.336  0.00  0.00    +0.000 A 
ENDBRANCH  11  12
ENDBRANCH  10  11
ENDBRANCH   1  10
TORSDOF 5
ENDMDL
