MODEL 1
REMARK VINA RESULT:      -4.5      0.000      0.000
REMARK  Name = *****
REMARK  3 active torsions:
REMARK  status: ('A' for Active; 'I' for Inactive)
REMARK    1  A    between atoms: C_4  and  C_7
REMARK    2  A    between atoms: C_8  and  C_9
REMARK    3  A    between atoms: C_12  and  C_15
REMARK                            x       y       z     vdW  Elec       q    Type
REMARK                         _______ _______ _______ _____ _____    ______ ____
ROOT
ATOM      1  C   UNL     1      87.118  68.891  88.249  0.00  0.00    +0.000 C 
ATOM      2  C   UNL     1      87.508  68.733  86.973  0.00  0.00    +0.000 C 
ATOM      3 CL   UNL     1      86.417  67.551  89.097  0.00  0.00    +0.000 Cl
ENDROOT
BRANCH   1   7
ATOM      4  C   UNL     1      87.482  72.492  90.517  0.00  0.00    +0.000 A 
ATOM      5  C   UNL     1      88.616  71.739  90.218  0.00  0.00    +0.000 A 
ATOM      6  C   UNL     1      88.499  70.564  89.472  0.00  0.00    +0.000 A 
ATOM      7  C   UNL     1      87.245  70.135  89.021  0.00  0.00    +0.000 A 
ATOM      8  C   UNL     1      86.111  70.900  89.324  0.00  0.00    +0.000 A 
ATOM      9  C   UNL     1      86.229  72.075  90.070  0.00  0.00    +0.000 A 
ENDBRANCH   1   7
BRANCH   2  10
ATOM     10  C   UNL     1      88.096  69.785  86.137  0.00  0.00    +0.000 A 
ATOM     11  C   UNL     1      89.485  69.853  85.981  0.00  0.00    +0.000 A 
ATOM     12  C   UNL     1      90.054  70.860  85.199  0.00  0.00    +0.000 A 
ATOM     13  C   UNL     1      89.232  71.797  84.566  0.00  0.00    +0.000 A 
ATOM     14  C   UNL     1      87.844  71.733  84.709  0.00  0.00    +0.000 A 
ATOM     15  C   UNL     1      87.278  70.725  85.495  0.00  0.00    +0.000 A 
BRANCH  13  16
ATOM     16  C   UNL     1      89.826  72.868  83.741  0.00  0.00    +0.000 C 
ATOM     17  O   UNL     1      89.364  74.001  83.711  0.00  0.00    +0.000 OA
ENDBRANCH  13  16
ENDBRANCH   2  10
TORSDOF 3
ENDMDL
