MODEL 1
REMARK VINA RESULT:      -4.7      0.000      0.000
REMARK  Name = *****
REMARK  5 active torsions:
REMARK  status: ('A' for Active; 'I' for Inactive)
REMARK    1  A    between atoms: C_1  and  C_2
REMARK    2  A    between atoms: C_4  and  C_8
REMARK    3  A    between atoms: C_8  and  O_10
REMARK    4  A    between atoms: O_10  and  C_11
REMARK    5  A    between atoms: C_11  and  C_12
REMARK                            x       y       z     vdW  Elec       q    Type
REMARK                         _______ _______ _______ _____ _____    ______ ____
ROOT
ATOM      1  C   UNL     1     103.724 126.438  80.526  0.00  0.00    +0.000 C 
ATOM      2  O   UNL     1     104.641 127.104  80.057  0.00  0.00    +0.000 OA
ENDROOT
BRANCH   1   6
ATOM      3  C   UNL     1      99.538 126.870  82.404  0.00  0.00    +0.000 C 
ATOM      4  C   UNL     1     100.829 126.600  83.180  0.00  0.00    +0.000 C 
ATOM      5  C   UNL     1     101.912 125.975  82.280  0.00  0.00    +0.000 C 
ATOM      6  C   UNL     1     102.640 127.022  81.421  0.00  0.00    +0.000 C 
ATOM      7  C   UNL     1     103.275 128.100  82.318  0.00  0.00    +0.000 C 
ATOM      8  C   UNL     1     102.404 128.530  83.461  0.00  0.00    +0.000 C 
ATOM      9  C   UNL     1     101.301 127.868  83.838  0.00  0.00    +0.000 C 
ENDBRANCH   1   6
BRANCH   1  10
ATOM     10  O   UNL     1     103.515 125.122  80.266  0.00  0.00    +0.000 OA
BRANCH  10  11
ATOM     11  C   UNL     1     104.691 124.315  80.129  0.00  0.00    +0.000 C 
BRANCH  11  12
ATOM     12  C   UNL     1     104.637 123.177  81.115  0.00  0.00    +0.000 A 
ATOM     13  C   UNL     1     104.635 121.848  80.671  0.00  0.00    +0.000 A 
ATOM     14  C   UNL     1     104.564 120.796  81.587  0.00  0.00    +0.000 A 
ATOM     15  C   UNL     1     104.482 121.063  82.952  0.00  0.00    +0.000 A 
ATOM     16  C   UNL     1     104.469 122.382  83.403  0.00  0.00    +0.000 A 
ATOM     17  C   UNL     1     104.543 123.434  82.491  0.00  0.00    +0.000 A 
ENDBRANCH  11  12
ENDBRANCH  10  11
ENDBRANCH   1  10
TORSDOF 4
ENDMDL
