MODEL 1
REMARK VINA RESULT:      -4.5      0.000      0.000
REMARK  Name = *****
REMARK  4 active torsions:
REMARK  status: ('A' for Active; 'I' for Inactive)
REMARK    1  A    between atoms: C_1  and  C_2
REMARK    2  A    between atoms: C_5  and  S_8
REMARK    3  A    between atoms: S_8  and  O_10
REMARK    4  A    between atoms: O_10  and  C_11
REMARK                            x       y       z     vdW  Elec       q    Type
REMARK                         _______ _______ _______ _____ _____    ______ ____
ROOT
ATOM      1  S   UNL     1     103.121 126.588  81.694  0.00  0.00    +0.000 S 
ATOM      2  O   UNL     1     103.169 127.074  80.275  0.00  0.00    +0.000 OA
ENDROOT
BRANCH   1   7
ATOM      3  C   UNL     1     105.566 120.972  81.674  0.00  0.00    +0.000 C 
ATOM      4  C   UNL     1     104.988 122.356  81.683  0.00  0.00    +0.000 A 
ATOM      5  C   UNL     1     104.489 122.911  82.868  0.00  0.00    +0.000 A 
ATOM      6  C   UNL     1     103.921 124.188  82.867  0.00  0.00    +0.000 A 
ATOM      7  C   UNL     1     103.830 124.921  81.679  0.00  0.00    +0.000 A 
ATOM      8  C   UNL     1     104.318 124.364  80.493  0.00  0.00    +0.000 A 
ATOM      9  C   UNL     1     104.887 123.087  80.495  0.00  0.00    +0.000 A 
ENDBRANCH   1   7
BRANCH   1  10
ATOM     10  O   UNL     1     101.628 126.048  81.976  0.00  0.00    +0.000 OA
BRANCH  10  11
ATOM     11  C   UNL     1     100.863 126.792  82.925  0.00  0.00    +0.000 C 
ATOM     12  C   UNL     1      99.445 126.962  82.371  0.00  0.00    +0.000 C 
ATOM     13  C   UNL     1      98.603 127.878  83.253  0.00  0.00    +0.000 C 
ATOM     14  C   UNL     1      99.279 129.230  83.464  0.00  0.00    +0.000 C 
ATOM     15  C   UNL     1     100.699 129.074  84.002  0.00  0.00    +0.000 C 
ATOM     16  C   UNL     1     101.536 128.153  83.120  0.00  0.00    +0.000 C 
ENDBRANCH  10  11
ENDBRANCH   1  10
TORSDOF 3
ENDMDL
