MODEL 1
REMARK VINA RESULT:      -4.3      0.000      0.000
REMARK  Name = *****
REMARK  3 active torsions:
REMARK  status: ('A' for Active; 'I' for Inactive)
REMARK    1  A    between atoms: C_1  and  C_2
REMARK    2  A    between atoms: C_5  and  C_7
REMARK    3  A    between atoms: C_8  and  C_9
REMARK                            x       y       z     vdW  Elec       q    Type
REMARK                         _______ _______ _______ _____ _____    ______ ____
ROOT
ATOM      1  C   UNL     1     102.964 125.475  81.663  0.00  0.00    +0.000 C 
ATOM      2  C   UNL     1     102.097 126.200  82.071  0.00  0.00    +0.000 C 
ENDROOT
BRANCH   1   7
ATOM      3  C   UNL     1     106.640 121.794  80.900  0.00  0.00    +0.000 C 
ATOM      4  C   UNL     1     105.692 122.932  80.803  0.00  0.00    +0.000 A 
ATOM      5  C   UNL     1     105.489 123.824  79.770  0.00  0.00    +0.000 A 
ATOM      6  N   UNL     1     104.521 124.784  79.987  0.00  0.00    +0.000 NA
ATOM      7  C   UNL     1     103.993 124.617  81.180  0.00  0.00    +0.000 A 
ATOM      8  S   UNL     1     104.628 123.308  82.094  0.00  0.00    +0.000 S 
ENDBRANCH   1   7
BRANCH   2   9
ATOM      9  C   UNL     1     101.066 127.065  82.555  0.00  0.00    +0.000 A 
ATOM     10  C   UNL     1      99.724 126.744  82.336  0.00  0.00    +0.000 A 
ATOM     11  C   UNL     1      98.718 127.588  82.808  0.00  0.00    +0.000 A 
ATOM     12  C   UNL     1      99.052 128.753  83.499  0.00  0.00    +0.000 A 
ATOM     13  C   UNL     1     100.391 129.076  83.719  0.00  0.00    +0.000 A 
ATOM     14  C   UNL     1     101.399 128.232  83.247  0.00  0.00    +0.000 A 
ENDBRANCH   2   9
TORSDOF 2
ENDMDL
