REMARK  Name = *****
REMARK  2 active torsions:
REMARK  status: ('A' for Active; 'I' for Inactive)
REMARK    1  A    between atoms: C_4  and  C_7
REMARK    2  A    between atoms: C_8  and  C_9
REMARK                            x       y       z     vdW  Elec       q    Type
REMARK                         _______ _______ _______ _____ _____    ______ ____
ROOT
ATOM      1  C   UNL     1      -2.811   0.502  -0.231  0.00  0.00    +0.000 C 
ATOM      2  C   UNL     1      -3.755  -0.450  -0.325  0.00  0.00    +0.000 C 
ENDROOT
BRANCH   1   6
ATOM      3  C   UNL     1       1.385  -0.220   0.180  0.00  0.00    +0.000 A 
ATOM      4  C   UNL     1       0.629  -1.034  -0.660  0.00  0.00    +0.000 A 
ATOM      5  C   UNL     1      -0.744  -0.814  -0.798  0.00  0.00    +0.000 A 
ATOM      6  C   UNL     1      -1.376   0.216  -0.089  0.00  0.00    +0.000 A 
ATOM      7  C   UNL     1      -0.601   1.038   0.740  0.00  0.00    +0.000 A 
ATOM      8  C   UNL     1       0.772   0.818   0.878  0.00  0.00    +0.000 A 
ENDBRANCH   1   6
BRANCH   2   9
ATOM      9  C   UNL     1      -5.176  -0.191  -0.446  0.00  0.00    +0.000 A 
ATOM     10  C   UNL     1      -5.692   0.760  -1.237  0.00  0.00    +0.000 A 
ATOM     11  C   UNL     1      -7.164   0.877  -1.278  0.00  0.00    +0.000 A 
ATOM     12  S   UNL     1      -8.007   1.971  -2.219  0.00  0.00    +0.000 S 
ATOM     13  S   UNL     1      -7.950  -0.262  -0.199  0.00  0.00    +0.000 S 
ATOM     14  S   UNL     1      -6.265  -1.241   0.406  0.00  0.00    +0.000 S 
ENDBRANCH   2   9
TORSDOF 2
