REMARK  Name = *****
REMARK  7 active torsions:
REMARK  status: ('A' for Active; 'I' for Inactive)
REMARK    1  A    between atoms: C_1  and  C_2
REMARK    2  A    between atoms: C_2  and  C_3
REMARK    3  A    between atoms: C_3  and  C_4
REMARK    4  A    between atoms: C_3  and  C_10
REMARK    5  A    between atoms: C_10  and  C_12
REMARK    6  A    between atoms: C_13  and  C_19
REMARK    7  A    between atoms: C_16  and  C_18
REMARK                            x       y       z     vdW  Elec       q    Type
REMARK                         _______ _______ _______ _____ _____    ______ ____
ROOT
ATOM      1  C   UNL     1       4.767  -0.299  -1.366  0.00  0.00    +0.000 C 
ATOM      2  O   UNL     1       5.385   0.753  -1.527  0.00  0.00    +0.000 OA
ENDROOT
BRANCH   1   3
ATOM      3  C   UNL     1       5.525  -1.573  -1.471  0.00  0.00    +0.000 A 
ATOM      4  C   UNL     1       5.180  -2.613  -2.350  0.00  0.00    +0.000 A 
ATOM      5  C   UNL     1       5.946  -3.790  -2.320  0.00  0.00    +0.000 A 
ATOM      6  C   UNL     1       7.049  -3.912  -1.470  0.00  0.00    +0.000 A 
ATOM      7  C   UNL     1       7.411  -2.863  -0.621  0.00  0.00    +0.000 A 
ATOM      8  C   UNL     1       6.651  -1.689  -0.639  0.00  0.00    +0.000 A 
ATOM      9  C   UNL     1       8.632  -2.967   0.243  0.00  0.00    +0.000 C 
ATOM     10  C   UNL     1       4.040  -2.525  -3.321  0.00  0.00    +0.000 C 
ENDBRANCH   1   3
BRANCH   1  11
ATOM     11  C   UNL     1       3.300  -0.365  -0.922  0.00  0.00    +0.000 C 
BRANCH  11  12
ATOM     12  C   UNL     1       2.332   0.167  -1.974  0.00  0.00    +0.000 A 
ATOM     13  C   UNL     1       2.532   1.401  -2.611  0.00  0.00    +0.000 A 
ATOM     14  C   UNL     1       1.619   1.874  -3.556  0.00  0.00    +0.000 A 
ATOM     15  C   UNL     1       0.487   1.125  -3.870  0.00  0.00    +0.000 A 
ATOM     16  C   UNL     1       0.264  -0.093  -3.235  0.00  0.00    +0.000 A 
ATOM     17  C   UNL     1       1.176  -0.567  -2.289  0.00  0.00    +0.000 A 
ENDBRANCH  11  12
BRANCH  11  19
ATOM     18  C   UNL     1       3.796  -0.252   1.582  0.00  0.00    +0.000 C 
ATOM     19  C   UNL     1       3.103   0.409   0.398  0.00  0.00    +0.000 C 
ENDBRANCH  11  19
ENDBRANCH   1  11
TORSDOF 4
