MODEL 1
REMARK VINA RESULT:      -4.1      0.000      0.000
REMARK  Name = *****
REMARK  3 active torsions:
REMARK  status: ('A' for Active; 'I' for Inactive)
REMARK    1  A    between atoms: C_8  and  C_9
REMARK    2  A    between atoms: C_9  and  C_10
REMARK    3  A    between atoms: C_10  and  C_11
REMARK                            x       y       z     vdW  Elec       q    Type
REMARK                         _______ _______ _______ _____ _____    ______ ____
ROOT
ATOM      1  C   UNL     1      84.155  72.611  86.872  0.00  0.00    +0.000 C 
ATOM      2  C   UNL     1      85.104  71.977  86.164  0.00  0.00    +0.000 C 
ATOM      3  C   UNL     1      85.332  72.247  84.696  0.00  0.00    +0.000 C 
ATOM      4  C   UNL     1      85.320  70.955  83.876  0.00  0.00    +0.000 C 
ATOM      5  C   UNL     1      86.278  69.919  84.462  0.00  0.00    +0.000 C 
ATOM      6  C   UNL     1      85.980  69.660  85.941  0.00  0.00    +0.000 C 
ATOM      7  C   UNL     1      85.962  70.943  86.745  0.00  0.00    +0.000 C 
ATOM      8  C   UNL     1      86.662  71.179  87.872  0.00  0.00    +0.000 C 
ENDROOT
BRANCH   8   9
ATOM      9  C   UNL     1      87.600  70.248  88.593  0.00  0.00    +0.000 C 
BRANCH   9  10
ATOM     10  C   UNL     1      89.057  70.545  88.231  0.00  0.00    +0.000 C 
BRANCH  10  11
ATOM     11  C   UNL     1      89.415  70.009  86.866  0.00  0.00    +0.000 A 
ATOM     12  C   UNL     1      89.691  70.885  85.808  0.00  0.00    +0.000 A 
ATOM     13  C   UNL     1      90.002  70.387  84.542  0.00  0.00    +0.000 A 
ATOM     14  C   UNL     1      90.036  69.012  84.320  0.00  0.00    +0.000 A 
ATOM     15  C   UNL     1      89.757  68.132  85.365  0.00  0.00    +0.000 A 
ATOM     16  C   UNL     1      89.446  68.627  86.632  0.00  0.00    +0.000 A 
ENDBRANCH  10  11
ENDBRANCH   9  10
ENDBRANCH   8   9
TORSDOF 3
ENDMDL
