MODEL 1
REMARK VINA RESULT:      -5.0      0.000      0.000
REMARK  Name = *****
REMARK  1 active torsions:
REMARK  status: ('A' for Active; 'I' for Inactive)
REMARK    1  A    between atoms: N_3  and  C_11
REMARK                            x       y       z     vdW  Elec       q    Type
REMARK                         _______ _______ _______ _____ _____    ______ ____
ROOT
ATOM      1  C   UNL     1     102.971 128.254  83.087  0.00  0.00    +0.000 C 
ATOM      2  C   UNL     1     103.714 126.918  83.095  0.00  0.00    +0.000 C 
ATOM      3  N   UNL     1     103.100 125.938  82.130  0.00  0.00    +0.000 N 
ATOM      4  C   UNL     1     101.830 125.967  81.872  0.00  0.00    +0.000 C 
ATOM      5  C   UNL     1     100.927 126.960  82.475  0.00  0.00    +0.000 A 
ATOM      6  C   UNL     1      99.545 126.783  82.399  0.00  0.00    +0.000 A 
ATOM      7  C   UNL     1      98.707 127.737  82.978  0.00  0.00    +0.000 A 
ATOM      8  C   UNL     1      99.250 128.854  83.614  0.00  0.00    +0.000 A 
ATOM      9  C   UNL     1     100.635 129.029  83.676  0.00  0.00    +0.000 A 
ATOM     10  C   UNL     1     101.483 128.073  83.114  0.00  0.00    +0.000 A 
ENDROOT
BRANCH   3  11
ATOM     11  C   UNL     1     103.957 124.959  81.497  0.00  0.00    +0.000 A 
ATOM     12  C   UNL     1     104.582 125.202  80.261  0.00  0.00    +0.000 A 
ATOM     13  C   UNL     1     105.403 124.233  79.671  0.00  0.00    +0.000 A 
ATOM     14  C   UNL     1     105.617 123.007  80.288  0.00  0.00    +0.000 A 
ATOM     15  C   UNL     1     105.007 122.745  81.508  0.00  0.00    +0.000 A 
ATOM     16  C   UNL     1     104.186 123.710  82.107  0.00  0.00    +0.000 A 
ATOM     17 CL   UNL     1     106.160 124.572  78.164  0.00  0.00    +0.000 Cl
ENDBRANCH   3  11
TORSDOF 1
ENDMDL
