MODEL 1
REMARK VINA RESULT:      -4.4      0.000      0.000
REMARK  Name = *****
REMARK  5 active torsions:
REMARK  status: ('A' for Active; 'I' for Inactive)
REMARK    1  A    between atoms: C_1  and  C_2
REMARK    2  A    between atoms: C_2  and  S_4
REMARK    3  A    between atoms: S_4  and  C_5
REMARK    4  A    between atoms: C_8  and  C_11
REMARK    5  A    between atoms: C_12  and  C_13
REMARK                            x       y       z     vdW  Elec       q    Type
REMARK                         _______ _______ _______ _____ _____    ______ ____
ROOT
ATOM      1  C   UNL     1     105.959 122.666  81.224  0.00  0.00    +0.000 A 
ATOM      2  C   UNL     1     105.373 123.416  80.198  0.00  0.00    +0.000 A 
ATOM      3  C   UNL     1     104.346 124.318  80.484  0.00  0.00    +0.000 A 
ATOM      4  C   UNL     1     103.892 124.471  81.796  0.00  0.00    +0.000 A 
ATOM      5  C   UNL     1     104.470 123.722  82.822  0.00  0.00    +0.000 A 
ATOM      6  C   UNL     1     105.499 122.819  82.535  0.00  0.00    +0.000 A 
ENDROOT
BRANCH   4   7
ATOM      7  C   UNL     1     102.830 125.384  82.083  0.00  0.00    +0.000 C 
ATOM      8  C   UNL     1     101.945 126.154  82.343  0.00  0.00    +0.000 C 
BRANCH   8   9
ATOM      9  C   UNL     1     100.899 127.067  82.674  0.00  0.00    +0.000 A 
ATOM     10  C   UNL     1     101.167 128.259  83.333  0.00  0.00    +0.000 A 
ATOM     11  C   UNL     1     100.100 129.111  83.607  0.00  0.00    +0.000 A 
ATOM     12  C   UNL     1      98.816 128.742  83.215  0.00  0.00    +0.000 A 
ATOM     13  C   UNL     1      98.652 127.529  82.564  0.00  0.00    +0.000 A 
ATOM     14  N   UNL     1      99.665 126.682  82.284  0.00  0.00    +0.000 NA
ENDBRANCH   8   9
ENDBRANCH   4   7
BRANCH   1  15
ATOM     15  S   UNL     1     107.237 121.485  80.852  0.00  0.00    +0.000 S 
BRANCH  15  17
ATOM     16  C   UNL     1     108.971 123.601  80.902  0.00  0.00    +0.000 C 
ATOM     17  C   UNL     1     108.430 122.497  80.038  0.00  0.00    +0.000 C 
ATOM     18  O   UNL     1     108.789 122.320  78.880  0.00  0.00    +0.000 OA
ENDBRANCH  15  17
ENDBRANCH   1  15
TORSDOF 4
ENDMDL
