MODEL 1
REMARK VINA RESULT:      -4.9      0.000      0.000
REMARK  Name = *****
REMARK  3 active torsions:
REMARK  status: ('A' for Active; 'I' for Inactive)
REMARK    1  A    between atoms: C_2  and  C_13
REMARK    2  A    between atoms: C_3  and  C_4
REMARK    3  A    between atoms: C_4  and  C_6
REMARK                            x       y       z     vdW  Elec       q    Type
REMARK                         _______ _______ _______ _____ _____    ______ ____
ROOT
ATOM      1  C   UNL     1     104.784 124.938  79.767  0.00  0.00    +0.000 C 
ATOM      2  C   UNL     1     104.740 124.665  81.250  0.00  0.00    +0.000 C 
ATOM      3  C   UNL     1     103.547 125.295  80.547  0.00  0.00    +0.000 C 
ENDROOT
BRANCH   2   4
ATOM      4  C   UNL     1     104.623 123.251  81.768  0.00  0.00    +0.000 A 
ATOM      5  C   UNL     1     104.711 122.143  80.910  0.00  0.00    +0.000 A 
ATOM      6  C   UNL     1     104.609 120.836  81.394  0.00  0.00    +0.000 A 
ATOM      7  C   UNL     1     104.420 120.610  82.755  0.00  0.00    +0.000 A 
ATOM      8  C   UNL     1     104.343 121.690  83.629  0.00  0.00    +0.000 A 
ATOM      9  C   UNL     1     104.448 122.994  83.139  0.00  0.00    +0.000 A 
ENDBRANCH   2   4
BRANCH   3  10
ATOM     10  C   UNL     1     103.208 126.725  80.789  0.00  0.00    +0.000 C 
ATOM     11  O   UNL     1     103.617 127.599  80.033  0.00  0.00    +0.000 OA
BRANCH  10  12
ATOM     12  C   UNL     1     102.372 127.079  81.970  0.00  0.00    +0.000 A 
ATOM     13  C   UNL     1     101.260 126.315  82.350  0.00  0.00    +0.000 A 
ATOM     14  C   UNL     1     100.514 126.679  83.477  0.00  0.00    +0.000 A 
ATOM     15  C   UNL     1     100.874 127.803  84.218  0.00  0.00    +0.000 A 
ATOM     16  C   UNL     1     101.971 128.574  83.841  0.00  0.00    +0.000 A 
ATOM     17  C   UNL     1     102.718 128.214  82.717  0.00  0.00    +0.000 A 
ATOM     18 CL   UNL     1      99.957 128.241  85.605  0.00  0.00    +0.000 Cl
ENDBRANCH  10  12
ENDBRANCH   3  10
TORSDOF 3
ENDMDL
