MODEL 1
REMARK VINA RESULT:      -4.5      0.000      0.000
REMARK  Name = *****
REMARK  5 active torsions:
REMARK  status: ('A' for Active; 'I' for Inactive)
REMARK    1  A    between atoms: C_1  and  O_2
REMARK    2  A    between atoms: O_2  and  C_3
REMARK    3  A    between atoms: C_3  and  C_4
REMARK    4  A    between atoms: C_3  and  C_11
REMARK    5  A    between atoms: C_4  and  C_5
REMARK                            x       y       z     vdW  Elec       q    Type
REMARK                         _______ _______ _______ _____ _____    ______ ____
ROOT
ATOM      1  C   UNL     1      88.721  70.302  86.744  0.00  0.00    +0.000 C 
ENDROOT
BRANCH   1   2
ATOM      2  C   UNL     1      88.774  68.781  86.811  0.00  0.00    +0.000 A 
ATOM      3  C   UNL     1      87.751  68.033  87.416  0.00  0.00    +0.000 A 
ATOM      4  C   UNL     1      87.830  66.640  87.490  0.00  0.00    +0.000 A 
ATOM      5  C   UNL     1      88.937  65.983  86.961  0.00  0.00    +0.000 A 
ATOM      6  C   UNL     1      89.964  66.705  86.359  0.00  0.00    +0.000 A 
ATOM      7  C   UNL     1      89.883  68.098  86.285  0.00  0.00    +0.000 A 
ATOM      8 CL   UNL     1      89.039  64.267  87.053  0.00  0.00    +0.000 Cl
ENDBRANCH   1   2
BRANCH   1  10
ATOM      9  C   UNL     1      89.736  71.408  84.890  0.00  0.00    +0.000 C 
ATOM     10  O   UNL     1      89.929  70.815  86.165  0.00  0.00    +0.000 OA
ENDBRANCH   1  10
BRANCH   1  11
ATOM     11  C   UNL     1      87.460  70.818  86.004  0.00  0.00    +0.000 C 
BRANCH  11  12
ATOM     12  C   UNL     1      86.334  71.344  86.877  0.00  0.00    +0.000 C 
ATOM     13  C   UNL     1      86.460  71.427  88.215  0.00  0.00    +0.000 C 
ATOM     14  C   UNL     1      85.376  71.919  89.131  0.00  0.00    +0.000 C 
ATOM     15  C   UNL     1      84.016  72.043  88.444  0.00  0.00    +0.000 C 
ATOM     16  C   UNL     1      84.158  72.651  87.055  0.00  0.00    +0.000 C 
ATOM     17  C   UNL     1      85.075  71.799  86.174  0.00  0.00    +0.000 C 
ENDBRANCH  11  12
ENDBRANCH   1  11
TORSDOF 4
ENDMDL
