MODEL 1
REMARK VINA RESULT:      -4.8      0.000      0.000
REMARK  Name = *****
REMARK  3 active torsions:
REMARK  status: ('A' for Active; 'I' for Inactive)
REMARK    1  A    between atoms: C_3  and  O_9
REMARK    2  A    between atoms: O_9  and  C_10
REMARK    3  A    between atoms: C_10  and  C_12
REMARK                            x       y       z     vdW  Elec       q    Type
REMARK                         _______ _______ _______ _____ _____    ______ ____
ROOT
ATOM      1  O   UNL     1     102.643 126.899  83.041  0.00  0.00    +0.000 OA
ENDROOT
BRANCH   1   4
ATOM      2  C   UNL     1      99.022 127.061  82.445  0.00  0.00    +0.000 A 
ATOM      3  C   UNL     1     100.332 126.591  82.476  0.00  0.00    +0.000 A 
ATOM      4  C   UNL     1     101.342 127.410  82.990  0.00  0.00    +0.000 A 
ATOM      5  C   UNL     1     101.061 128.682  83.506  0.00  0.00    +0.000 A 
ATOM      6  C   UNL     1      99.740 129.143  83.470  0.00  0.00    +0.000 A 
ATOM      7  C   UNL     1      98.726 128.334  82.937  0.00  0.00    +0.000 A 
ATOM      8 CL   UNL     1      99.283 130.697  84.076  0.00  0.00    +0.000 Cl
ATOM      9 CL   UNL     1     102.342 129.631  84.181  0.00  0.00    +0.000 Cl
ENDBRANCH   1   4
BRANCH   1  10
ATOM     10  C   UNL     1     103.178 126.697  81.784  0.00  0.00    +0.000 C 
ATOM     11  O   UNL     1     103.178 127.483  80.848  0.00  0.00    +0.000 OA
BRANCH  10  12
ATOM     12  C   UNL     1     103.742 125.322  81.693  0.00  0.00    +0.000 A 
ATOM     13  C   UNL     1     104.186 124.768  80.483  0.00  0.00    +0.000 A 
ATOM     14  C   UNL     1     104.702 123.469  80.456  0.00  0.00    +0.000 A 
ATOM     15  C   UNL     1     104.772 122.731  81.632  0.00  0.00    +0.000 A 
ATOM     16  C   UNL     1     104.333 123.263  82.839  0.00  0.00    +0.000 A 
ATOM     17  C   UNL     1     103.814 124.560  82.870  0.00  0.00    +0.000 A 
ATOM     18  F   UNL     1     105.268 121.488  81.602  0.00  0.00    +0.000 F 
ENDBRANCH  10  12
ENDBRANCH   1  10
TORSDOF 3
ENDMDL
