REMARK  Name = *****
REMARK  5 active torsions:
REMARK  status: ('A' for Active; 'I' for Inactive)
REMARK    1  A    between atoms: C_4  and  C_7
REMARK    2  A    between atoms: C_8  and  C_9
REMARK    3  A    between atoms: C_11  and  N_17
REMARK    4  A    between atoms: C_12  and  N_15
REMARK    5  A    between atoms: N_17  and  O_18
REMARK                            x       y       z     vdW  Elec       q    Type
REMARK                         _______ _______ _______ _____ _____    ______ ____
ROOT
ATOM      1  C   UNL     1      -5.130  -0.274  -0.610  0.00  0.00    +0.000 A 
ATOM      2  C   UNL     1      -5.602   0.797  -1.384  0.00  0.00    +0.000 A 
ATOM      3  C   UNL     1      -6.979   1.012  -1.583  0.00  0.00    +0.000 A 
ATOM      4  C   UNL     1      -7.903   0.138  -0.955  0.00  0.00    +0.000 A 
ATOM      5  C   UNL     1      -7.426  -0.934  -0.188  0.00  0.00    +0.000 A 
ATOM      6  C   UNL     1      -6.054  -1.146  -0.028  0.00  0.00    +0.000 A 
ENDROOT
BRANCH   1   8
ATOM      7  C   UNL     1      -2.770   0.420  -0.272  0.00  0.00    +0.000 C 
ATOM      8  C   UNL     1      -3.695  -0.540  -0.430  0.00  0.00    +0.000 C 
BRANCH   7  12
ATOM      9  C   UNL     1       1.415  -0.254   0.304  0.00  0.00    +0.000 A 
ATOM     10  C   UNL     1       0.703  -1.072  -0.571  0.00  0.00    +0.000 A 
ATOM     11  C   UNL     1      -0.666  -0.867  -0.763  0.00  0.00    +0.000 A 
ATOM     12  C   UNL     1      -1.338   0.151  -0.074  0.00  0.00    +0.000 A 
ATOM     13  C   UNL     1      -0.607   0.977   0.790  0.00  0.00    +0.000 A 
ATOM     14  C   UNL     1       0.762   0.772   0.982  0.00  0.00    +0.000 A 
ENDBRANCH   7  12
ENDBRANCH   1   8
BRANCH   4  15
ATOM     15  N   UNL     1      -9.274   0.308  -1.036  0.00  0.00    +0.000 NA
ATOM     16  O   UNL     1      -9.682   0.348  -2.204  0.00  0.00    +0.000 OA
ENDBRANCH   4  15
BRANCH   3  17
ATOM     17  N   UNL     1      -7.420   2.167  -2.295  0.00  0.00    +0.000 N 
ATOM     18  H   UNL     1      -8.340   2.500  -2.182  0.00  0.00    +0.000 HD
BRANCH  17  19
ATOM     19  O   UNL     1      -6.534   2.821  -3.152  0.00  0.00    +0.000 OA
ATOM     20  H   UNL     1      -5.679   2.363  -3.143  0.00  0.00    +0.000 HD
ENDBRANCH  17  19
ENDBRANCH   3  17
TORSDOF 5
