MODEL 1
REMARK VINA RESULT:      -4.4      0.000      0.000
REMARK  Name = *****
REMARK  3 active torsions:
REMARK  status: ('A' for Active; 'I' for Inactive)
REMARK    1  A    between atoms: C_2  and  C_3
REMARK    2  A    between atoms: C_2  and  O_9
REMARK    3  A    between atoms: O_9  and  C_10
REMARK                            x       y       z     vdW  Elec       q    Type
REMARK                         _______ _______ _______ _____ _____    ______ ____
ROOT
ATOM      1  C   UNL     1     103.542 127.396  80.461  0.00  0.00    +0.000 C 
ATOM      2  C   UNL     1     103.446 126.674  81.590  0.00  0.00    +0.000 C 
ENDROOT
BRANCH   2   3
ATOM      3  C   UNL     1     103.882 125.263  81.667  0.00  0.00    +0.000 A 
ATOM      4  C   UNL     1     104.293 124.592  80.503  0.00  0.00    +0.000 A 
ATOM      5  C   UNL     1     104.719 123.261  80.553  0.00  0.00    +0.000 A 
ATOM      6  C   UNL     1     104.749 122.585  81.769  0.00  0.00    +0.000 A 
ATOM      7  C   UNL     1     104.359 123.237  82.936  0.00  0.00    +0.000 A 
ATOM      8  C   UNL     1     103.931 124.568  82.885  0.00  0.00    +0.000 A 
ENDBRANCH   2   3
BRANCH   2   9
ATOM      9  O   UNL     1     102.864 127.154  82.755  0.00  0.00    +0.000 OA
BRANCH   9  10
ATOM     10  C   UNL     1     101.510 127.467  82.804  0.00  0.00    +0.000 C 
ATOM     11  C   UNL     1     100.616 126.570  82.361  0.00  0.00    +0.000 C 
ATOM     12  C   UNL     1      99.131 126.771  82.437  0.00  0.00    +0.000 C 
ATOM     13  C   UNL     1      98.732 128.192  82.841  0.00  0.00    +0.000 C 
ATOM     14  C   UNL     1      99.635 128.727  83.948  0.00  0.00    +0.000 C 
ATOM     15  C   UNL     1     101.101 128.742  83.501  0.00  0.00    +0.000 C 
ENDBRANCH   9  10
ENDBRANCH   2   9
TORSDOF 3
ENDMDL
