REMARK  Name = *****
REMARK  2 active torsions:
REMARK  status: ('A' for Active; 'I' for Inactive)
REMARK    1  A    between atoms: C_6  and  C_10
REMARK    2  A    between atoms: C_10  and  C_11
REMARK                            x       y       z     vdW  Elec       q    Type
REMARK                         _______ _______ _______ _____ _____    ______ ____
ROOT
ATOM      1  C   UNL     1      -0.999  -2.225   0.336  0.00  0.00    +0.000 C 
ATOM      2  C   UNL     1       0.518  -2.274   0.533  0.00  0.00    +0.000 C 
ATOM      3  C   UNL     1       1.235  -1.186  -0.255  0.00  0.00    +0.000 C 
ATOM      4  C   UNL     1       0.779   0.204   0.201  0.00  0.00    +0.000 C 
ATOM      5  C   UNL     1       0.996   1.253  -0.847  0.00  0.00    +0.000 C 
ATOM      6  C   UNL     1      -0.074   2.045  -0.996  0.00  0.00    +0.000 C 
ATOM      7  C   UNL     1      -1.187   1.656  -0.071  0.00  0.00    +0.000 C 
ATOM      8  C   UNL     1      -0.738   0.294   0.485  0.00  0.00    +0.000 C 
ATOM      9  C   UNL     1      -1.512  -0.869  -0.150  0.00  0.00    +0.000 C 
ENDROOT
BRANCH   6  10
ATOM     10  C   UNL     1      -0.208   3.203  -1.936  0.00  0.00    +0.000 C 
BRANCH  10  11
ATOM     11  C   UNL     1      -0.391   4.527  -1.232  0.00  0.00    +0.000 A 
ATOM     12  C   UNL     1       0.701   5.163  -0.623  0.00  0.00    +0.000 A 
ATOM     13  C   UNL     1       0.534   6.380   0.038  0.00  0.00    +0.000 A 
ATOM     14  C   UNL     1      -0.726   6.973   0.100  0.00  0.00    +0.000 A 
ATOM     15  C   UNL     1      -1.819   6.348  -0.496  0.00  0.00    +0.000 A 
ATOM     16  C   UNL     1      -1.654   5.130  -1.158  0.00  0.00    +0.000 A 
ENDBRANCH  10  11
ENDBRANCH   6  10
TORSDOF 2
