MODEL 1
REMARK VINA RESULT:      -4.8      0.000      0.000
REMARK  Name = *****
REMARK  2 active torsions:
REMARK  status: ('A' for Active; 'I' for Inactive)
REMARK    1  A    between atoms: C_3  and  C_8
REMARK    2  A    between atoms: N_10  and  C_11
REMARK                            x       y       z     vdW  Elec       q    Type
REMARK                         _______ _______ _______ _____ _____    ______ ____
ROOT
ATOM      1  C   UNL     1     102.700 126.573  82.389  0.00  0.00    +0.000 C 
ATOM      2  O   UNL     1     103.630 126.802  83.151  0.00  0.00    +0.000 OA
ATOM      3  N   UNL     1     102.741 125.817  81.232  0.00  0.00    +0.000 N 
ATOM      4  H   UNL     1     101.915 125.791  80.696  0.00  0.00    +0.000 HD
ENDROOT
BRANCH   1   7
ATOM      5  C   UNL     1      98.963 127.084  82.532  0.00  0.00    +0.000 A 
ATOM      6  C   UNL     1     100.218 126.529  82.276  0.00  0.00    +0.000 A 
ATOM      7  C   UNL     1     101.380 127.198  82.685  0.00  0.00    +0.000 A 
ATOM      8  C   UNL     1     101.284 128.439  83.325  0.00  0.00    +0.000 A 
ATOM      9  C   UNL     1     100.024 128.984  83.575  0.00  0.00    +0.000 A 
ATOM     10  C   UNL     1      98.865 128.311  83.188  0.00  0.00    +0.000 A 
ATOM     11 CL   UNL     1      99.901 130.506  84.368  0.00  0.00    +0.000 Cl
ENDBRANCH   1   7
BRANCH   3  12
ATOM     12  C   UNL     1     103.836 125.078  80.733  0.00  0.00    +0.000 A 
ATOM     13  C   UNL     1     104.150 123.778  81.134  0.00  0.00    +0.000 A 
ATOM     14  C   UNL     1     105.251 123.122  80.579  0.00  0.00    +0.000 A 
ATOM     15  C   UNL     1     106.048 123.748  79.622  0.00  0.00    +0.000 A 
ATOM     16  C   UNL     1     105.739 125.043  79.214  0.00  0.00    +0.000 A 
ATOM     17  C   UNL     1     104.639 125.703  79.766  0.00  0.00    +0.000 A 
ATOM     18 CL   UNL     1     105.632 121.518  81.076  0.00  0.00    +0.000 Cl
ENDBRANCH   3  12
TORSDOF 2
ENDMDL
