MODEL 1
REMARK VINA RESULT:      -4.3      0.000      0.000
REMARK  Name = *****
REMARK  3 active torsions:
REMARK  status: ('A' for Active; 'I' for Inactive)
REMARK    1  A    between atoms: C_4  and  S_7
REMARK    2  A    between atoms: S_7  and  C_8
REMARK    3  A    between atoms: C_9  and  C_10
REMARK                            x       y       z     vdW  Elec       q    Type
REMARK                         _______ _______ _______ _____ _____    ______ ____
ROOT
ATOM      1  C   UNL     1     102.861 125.670  82.740  0.00  0.00    +0.000 C 
ATOM      2  C   UNL     1     101.859 125.980  83.577  0.00  0.00    +0.000 C 
ENDROOT
BRANCH   2   3
ATOM      3  C   UNL     1     100.844 127.027  83.407  0.00  0.00    +0.000 A 
ATOM      4  C   UNL     1     101.092 128.312  83.900  0.00  0.00    +0.000 A 
ATOM      5  C   UNL     1     100.151 129.329  83.726  0.00  0.00    +0.000 A 
ATOM      6  C   UNL     1      98.960 129.069  83.051  0.00  0.00    +0.000 A 
ATOM      7  C   UNL     1      98.708 127.793  82.549  0.00  0.00    +0.000 A 
ATOM      8  C   UNL     1      99.649 126.775  82.724  0.00  0.00    +0.000 A 
ENDBRANCH   2   3
BRANCH   1   9
ATOM      9  S   UNL     1     103.160 126.450  81.223  0.00  0.00    +0.000 S 
BRANCH   9  13
ATOM     10  C   UNL     1     106.308 123.350  79.821  0.00  0.00    +0.000 C 
ATOM     11  C   UNL     1     105.017 122.813  80.432  0.00  0.00    +0.000 C 
ATOM     12  C   UNL     1     104.253 123.903  81.184  0.00  0.00    +0.000 C 
ATOM     13  C   UNL     1     103.980 125.114  80.282  0.00  0.00    +0.000 C 
ATOM     14  C   UNL     1     105.287 125.656  79.688  0.00  0.00    +0.000 C 
ATOM     15  C   UNL     1     106.049 124.564  78.936  0.00  0.00    +0.000 C 
ENDBRANCH   9  13
ENDBRANCH   1   9
TORSDOF 3
ENDMDL
