MODEL 1
REMARK VINA RESULT:      -5.1      0.000      0.000
REMARK  Name = *****
REMARK  4 active torsions:
REMARK  status: ('A' for Active; 'I' for Inactive)
REMARK    1  A    between atoms: C_4  and  C_7
REMARK    2  A    between atoms: C_7  and  C_9
REMARK    3  A    between atoms: C_9  and  C_10
REMARK    4  A    between atoms: C_10  and  C_11
REMARK                            x       y       z     vdW  Elec       q    Type
REMARK                         _______ _______ _______ _____ _____    ______ ____
ROOT
ATOM      1  C   UNL     1     100.673 126.653  83.003  0.00  0.00    +0.000 C 
ENDROOT
BRANCH   1   2
ATOM      2  C   UNL     1      99.367 127.414  82.860  0.00  0.00    +0.000 C 
ATOM      3  O   UNL     1      98.532 127.123  82.006  0.00  0.00    +0.000 OA
BRANCH   2   7
ATOM      4  C   UNL     1      98.656 130.773  85.446  0.00  0.00    +0.000 A 
ATOM      5  C   UNL     1      98.235 129.504  85.842  0.00  0.00    +0.000 A 
ATOM      6  C   UNL     1      98.456 128.399  85.015  0.00  0.00    +0.000 A 
ATOM      7  C   UNL     1      99.102 128.560  83.782  0.00  0.00    +0.000 A 
ATOM      8  C   UNL     1      99.522 129.840  83.393  0.00  0.00    +0.000 A 
ATOM      9  C   UNL     1      99.300 130.942  84.222  0.00  0.00    +0.000 A 
ENDBRANCH   2   7
ENDBRANCH   1   2
BRANCH   1  10
ATOM     10  C   UNL     1     101.794 127.295  82.184  0.00  0.00    +0.000 C 
BRANCH  10  11
ATOM     11  C   UNL     1     102.798 126.273  81.716  0.00  0.00    +0.000 A 
ATOM     12  C   UNL     1     103.080 125.138  82.488  0.00  0.00    +0.000 A 
ATOM     13  C   UNL     1     104.003 124.190  82.040  0.00  0.00    +0.000 A 
ATOM     14  C   UNL     1     104.651 124.363  80.817  0.00  0.00    +0.000 A 
ATOM     15  C   UNL     1     104.375 125.485  80.039  0.00  0.00    +0.000 A 
ATOM     16  C   UNL     1     103.454 126.427  80.491  0.00  0.00    +0.000 A 
ATOM     17  F   UNL     1     103.192 127.495  79.724  0.00  0.00    +0.000 F 
ENDBRANCH  10  11
ENDBRANCH   1  10
TORSDOF 4
ENDMDL
