REMARK  Name = *****
REMARK  2 active torsions:
REMARK  status: ('A' for Active; 'I' for Inactive)
REMARK    1  A    between atoms: C_4  and  C_7
REMARK    2  A    between atoms: C_8  and  C_9
REMARK                            x       y       z     vdW  Elec       q    Type
REMARK                         _______ _______ _______ _____ _____    ______ ____
ROOT
ATOM      1  C   UNL     1      -2.702   0.511  -0.132  0.00  0.00    +0.000 C 
ATOM      2  C   UNL     1      -3.173   1.767  -0.199  0.00  0.00    +0.000 C 
ATOM      3  F   UNL     1      -3.604  -0.488  -0.289  0.00  0.00    +0.000 F 
ENDROOT
BRANCH   2   4
ATOM      4  C   UNL     1      -2.395   3.014  -0.144  0.00  0.00    +0.000 A 
ATOM      5  C   UNL     1      -1.466   3.279  -1.164  0.00  0.00    +0.000 A 
ATOM      6  C   UNL     1      -0.717   4.457  -1.159  0.00  0.00    +0.000 A 
ATOM      7  C   UNL     1      -0.891   5.390  -0.141  0.00  0.00    +0.000 A 
ATOM      8  C   UNL     1      -1.816   5.147   0.875  0.00  0.00    +0.000 A 
ATOM      9  C   UNL     1      -2.567   3.967   0.873  0.00  0.00    +0.000 A 
ATOM     10 BR   UNL     1      -3.792   3.707   2.304  0.00  0.00    +0.000 Br
ENDBRANCH   2   4
BRANCH   1  14
ATOM     11  C   UNL     1       1.336  -0.821   0.347  0.00  0.00    +0.000 A 
ATOM     12  C   UNL     1       0.843   0.185   1.177  0.00  0.00    +0.000 A 
ATOM     13  C   UNL     1      -0.473   0.631   1.031  0.00  0.00    +0.000 A 
ATOM     14  C   UNL     1      -1.306   0.085   0.044  0.00  0.00    +0.000 A 
ATOM     15  C   UNL     1      -0.804  -0.941  -0.769  0.00  0.00    +0.000 A 
ATOM     16  C   UNL     1       0.512  -1.387  -0.623  0.00  0.00    +0.000 A 
ENDBRANCH   1  14
TORSDOF 2
