MODEL 1
REMARK VINA RESULT:      -4.6      0.000      0.000
REMARK  Name = *****
REMARK  4 active torsions:
REMARK  status: ('A' for Active; 'I' for Inactive)
REMARK    1  A    between atoms: C_1  and  O_2
REMARK    2  A    between atoms: O_2  and  C_3
REMARK    3  A    between atoms: C_6  and  C_9
REMARK    4  A    between atoms: C_10  and  C_11
REMARK                            x       y       z     vdW  Elec       q    Type
REMARK                         _______ _______ _______ _____ _____    ______ ____
ROOT
ATOM      1  C   UNL     1     106.046 122.712  80.990  0.00  0.00    +0.000 A 
ATOM      2  C   UNL     1     105.564 122.777  82.297  0.00  0.00    +0.000 A 
ATOM      3  C   UNL     1     104.534 123.669  82.622  0.00  0.00    +0.000 A 
ATOM      4  C   UNL     1     103.986 124.500  81.642  0.00  0.00    +0.000 A 
ATOM      5  C   UNL     1     104.476 124.444  80.338  0.00  0.00    +0.000 A 
ATOM      6  C   UNL     1     105.505 123.556  80.016  0.00  0.00    +0.000 A 
ENDROOT
BRANCH   1   8
ATOM      7  C   UNL     1     107.199 120.649  81.228  0.00  0.00    +0.000 C 
ATOM      8  O   UNL     1     107.039 121.884  80.541  0.00  0.00    +0.000 OA
ENDBRANCH   1   8
BRANCH   4   9
ATOM      9  C   UNL     1     102.924 125.400  81.969  0.00  0.00    +0.000 C 
ATOM     10  C   UNL     1     102.037 126.155  82.262  0.00  0.00    +0.000 C 
BRANCH  10  11
ATOM     11  C   UNL     1     100.982 127.049  82.630  0.00  0.00    +0.000 A 
ATOM     12  C   UNL     1     101.280 128.246  83.285  0.00  0.00    +0.000 A 
ATOM     13  C   UNL     1     100.253 129.120  83.647  0.00  0.00    +0.000 A 
ATOM     14  C   UNL     1      98.929 128.797  83.354  0.00  0.00    +0.000 A 
ATOM     15  C   UNL     1      98.628 127.603  82.699  0.00  0.00    +0.000 A 
ATOM     16  C   UNL     1      99.655 126.728  82.336  0.00  0.00    +0.000 A 
ENDBRANCH  10  11
ENDBRANCH   4   9
TORSDOF 3
ENDMDL
