MODEL 1
REMARK VINA RESULT:      -4.4      0.000      0.000
REMARK  Name = *****
REMARK  5 active torsions:
REMARK  status: ('A' for Active; 'I' for Inactive)
REMARK    1  A    between atoms: C_1  and  C_2
REMARK    2  A    between atoms: C_5  and  C_8
REMARK    3  A    between atoms: C_8  and  O_10
REMARK    4  A    between atoms: O_10  and  C_11
REMARK    5  A    between atoms: C_11  and  C_13
REMARK                            x       y       z     vdW  Elec       q    Type
REMARK                         _______ _______ _______ _____ _____    ______ ____
ROOT
ATOM      1  C   UNL     1      88.595  67.817  86.055  0.00  0.00    +0.000 C 
ATOM      2  O   UNL     1      88.129  67.819  84.925  0.00  0.00    +0.000 OA
ENDROOT
BRANCH   1   7
ATOM      3  C   UNL     1      87.012  63.951  90.087  0.00  0.00    +0.000 C 
ATOM      4  C   UNL     1      87.425  64.973  89.068  0.00  0.00    +0.000 A 
ATOM      5  C   UNL     1      86.724  66.179  88.947  0.00  0.00    +0.000 A 
ATOM      6  C   UNL     1      87.089  67.119  87.976  0.00  0.00    +0.000 A 
ATOM      7  C   UNL     1      88.157  66.856  87.107  0.00  0.00    +0.000 A 
ATOM      8  C   UNL     1      88.847  65.642  87.219  0.00  0.00    +0.000 A 
ATOM      9  C   UNL     1      88.480  64.707  88.190  0.00  0.00    +0.000 A 
ENDBRANCH   1   7
BRANCH   1  10
ATOM     10  O   UNL     1      89.562  68.642  86.558  0.00  0.00    +0.000 OA
BRANCH  10  11
ATOM     11  C   UNL     1      89.249  70.004  86.431  0.00  0.00    +0.000 C 
ATOM     12  C   UNL     1      89.908  70.783  85.562  0.00  0.00    +0.000 C 
BRANCH  11  13
ATOM     13  C   UNL     1      88.253  70.519  87.387  0.00  0.00    +0.000 A 
ATOM     14  C   UNL     1      88.529  70.578  88.760  0.00  0.00    +0.000 A 
ATOM     15  C   UNL     1      87.581  71.079  89.657  0.00  0.00    +0.000 A 
ATOM     16  C   UNL     1      86.350  71.532  89.190  0.00  0.00    +0.000 A 
ATOM     17  C   UNL     1      86.065  71.490  87.827  0.00  0.00    +0.000 A 
ATOM     18  C   UNL     1      87.013  70.989  86.929  0.00  0.00    +0.000 A 
ENDBRANCH  11  13
ENDBRANCH  10  11
ENDBRANCH   1  10
TORSDOF 4
ENDMDL
