MODEL 1
REMARK VINA RESULT:      -4.8      0.000      0.000
REMARK  Name = *****
REMARK  5 active torsions:
REMARK  status: ('A' for Active; 'I' for Inactive)
REMARK    1  A    between atoms: C_1  and  C_2
REMARK    2  A    between atoms: C_5  and  N_8
REMARK    3  A    between atoms: N_8  and  C_9
REMARK    4  A    between atoms: N_8  and  C_10
REMARK    5  A    between atoms: C_10  and  C_12
REMARK                            x       y       z     vdW  Elec       q    Type
REMARK                         _______ _______ _______ _____ _____    ______ ____
ROOT
ATOM      1  N   UNL     1      88.888  69.996  87.115  0.00  0.00    +0.000 N 
ATOM      2  C   UNL     1      89.660  70.741  86.112  0.00  0.00    +0.000 C 
ENDROOT
BRANCH   1   7
ATOM      3  C   UNL     1      89.024  64.246  86.564  0.00  0.00    +0.000 C 
ATOM      4  C   UNL     1      88.964  65.739  86.675  0.00  0.00    +0.000 A 
ATOM      5  C   UNL     1      87.883  66.369  87.291  0.00  0.00    +0.000 A 
ATOM      6  C   UNL     1      87.850  67.764  87.427  0.00  0.00    +0.000 A 
ATOM      7  C   UNL     1      88.897  68.578  86.964  0.00  0.00    +0.000 A 
ATOM      8  C   UNL     1      89.981  67.919  86.356  0.00  0.00    +0.000 A 
ATOM      9  C   UNL     1      90.021  66.526  86.216  0.00  0.00    +0.000 A 
ENDBRANCH   1   7
BRANCH   1  10
ATOM     10  C   UNL     1      88.097  70.665  88.058  0.00  0.00    +0.000 C 
ATOM     11  C   UNL     1      88.413  70.803  89.357  0.00  0.00    +0.000 C 
BRANCH  10  12
ATOM     12  C   UNL     1      86.807  71.240  87.596  0.00  0.00    +0.000 A 
ATOM     13  C   UNL     1      86.509  71.373  86.231  0.00  0.00    +0.000 A 
ATOM     14  C   UNL     1      85.287  71.911  85.822  0.00  0.00    +0.000 A 
ATOM     15  C   UNL     1      84.349  72.316  86.770  0.00  0.00    +0.000 A 
ATOM     16  C   UNL     1      84.630  72.185  88.129  0.00  0.00    +0.000 A 
ATOM     17  C   UNL     1      85.851  71.648  88.539  0.00  0.00    +0.000 A 
ENDBRANCH  10  12
ENDBRANCH   1  10
TORSDOF 3
ENDMDL
