MODEL 1
REMARK VINA RESULT:      -4.5      0.000      0.000
REMARK  Name = *****
REMARK  4 active torsions:
REMARK  status: ('A' for Active; 'I' for Inactive)
REMARK    1  A    between atoms: C_1  and  S_2
REMARK    2  A    between atoms: S_2  and  C_3
REMARK    3  A    between atoms: C_5  and  C_8
REMARK    4  A    between atoms: C_9  and  C_10
REMARK                            x       y       z     vdW  Elec       q    Type
REMARK                         _______ _______ _______ _____ _____    ______ ____
ROOT
ATOM      1  C   UNL     1     103.006 126.160  81.253  0.00  0.00    +0.000 C 
ATOM      2  C   UNL     1     102.066 125.914  82.182  0.00  0.00    +0.000 C 
ENDROOT
BRANCH   2   3
ATOM      3  C   UNL     1     101.066 126.902  82.612  0.00  0.00    +0.000 A 
ATOM      4  C   UNL     1     101.423 128.092  83.259  0.00  0.00    +0.000 A 
ATOM      5  C   UNL     1     100.447 129.022  83.625  0.00  0.00    +0.000 A 
ATOM      6  C   UNL     1      99.106 128.776  83.337  0.00  0.00    +0.000 A 
ATOM      7  C   UNL     1      98.740 127.604  82.680  0.00  0.00    +0.000 A 
ATOM      8  C   UNL     1      99.716 126.674  82.314  0.00  0.00    +0.000 A 
ENDBRANCH   2   3
BRANCH   1  11
ATOM      9  C   UNL     1     105.311 123.301  80.664  0.00  0.00    +0.000 A 
ATOM     10  C   UNL     1     104.288 123.939  81.333  0.00  0.00    +0.000 A 
ATOM     11  C   UNL     1     104.006 125.237  80.802  0.00  0.00    +0.000 A 
ATOM     12  C   UNL     1     104.845 125.536  79.747  0.00  0.00    +0.000 A 
ATOM     13  S   UNL     1     105.951 124.273  79.414  0.00  0.00    +0.000 S 
BRANCH   9  15
ATOM     14  C   UNL     1     104.394 120.828  81.427  0.00  0.00    +0.000 C 
ATOM     15  S   UNL     1     105.931 121.704  81.056  0.00  0.00    +0.000 S 
ENDBRANCH   9  15
ENDBRANCH   1  11
TORSDOF 3
ENDMDL
