MODEL 1
REMARK VINA RESULT:      -4.4      0.000      0.000
REMARK  Name = *****
REMARK  4 active torsions:
REMARK  status: ('A' for Active; 'I' for Inactive)
REMARK    1  A    between atoms: C_1  and  C_2
REMARK    2  A    between atoms: C_2  and  C_8
REMARK    3  A    between atoms: C_8  and  C_9
REMARK    4  A    between atoms: C_9  and  C_10
REMARK                            x       y       z     vdW  Elec       q    Type
REMARK                         _______ _______ _______ _____ _____    ______ ____
ROOT
ATOM      1  C   UNL     1     102.491 125.654  81.721  0.00  0.00    +0.000 C 
ENDROOT
BRANCH   1   3
ATOM      2  C   UNL     1     103.626 127.275  80.141  0.00  0.00    +0.000 C 
ATOM      3  C   UNL     1     103.632 125.887  80.742  0.00  0.00    +0.000 C 
ATOM      4  C   UNL     1     104.522 124.916  80.441  0.00  0.00    +0.000 C 
ATOM      5  C   UNL     1     104.552 123.536  81.054  0.00  0.00    +0.000 C 
ATOM      6  C   UNL     1     105.991 123.047  80.916  0.00  0.00    +0.000 C 
ATOM      7  C   UNL     1     106.468 123.435  79.527  0.00  0.00    +0.000 C 
ATOM      8  S   UNL     1     105.842 125.126  79.308  0.00  0.00    +0.000 S 
ENDBRANCH   1   3
BRANCH   1   9
ATOM      9  C   UNL     1     102.490 126.674  82.865  0.00  0.00    +0.000 C 
BRANCH   9  10
ATOM     10  C   UNL     1     101.175 127.412  82.949  0.00  0.00    +0.000 A 
ATOM     11  C   UNL     1     101.110 128.683  83.535  0.00  0.00    +0.000 A 
ATOM     12  C   UNL     1      99.890 129.356  83.631  0.00  0.00    +0.000 A 
ATOM     13  C   UNL     1      98.726 128.762  83.148  0.00  0.00    +0.000 A 
ATOM     14  C   UNL     1      98.780 127.495  82.569  0.00  0.00    +0.000 A 
ATOM     15  C   UNL     1      99.999 126.821  82.471  0.00  0.00    +0.000 A 
ENDBRANCH   9  10
ENDBRANCH   1   9
TORSDOF 3
ENDMDL
