MODEL 1
REMARK VINA RESULT:      -5.1      0.000      0.000
REMARK  Name = *****
REMARK  1 active torsions:
REMARK  status: ('A' for Active; 'I' for Inactive)
REMARK    1  A    between atoms: C_9  and  C_11
REMARK                            x       y       z     vdW  Elec       q    Type
REMARK                         _______ _______ _______ _____ _____    ______ ____
ROOT
ATOM      1  C   UNL     1     102.805 128.472  83.394  0.00  0.00    +0.000 C 
ATOM      2  C   UNL     1     101.331 128.228  83.199  0.00  0.00    +0.000 A 
ATOM      3  C   UNL     1     100.398 129.124  83.746  0.00  0.00    +0.000 A 
ATOM      4  C   UNL     1      99.029 128.880  83.634  0.00  0.00    +0.000 A 
ATOM      5  C   UNL     1      98.578 127.733  82.988  0.00  0.00    +0.000 A 
ATOM      6  C   UNL     1      99.495 126.828  82.452  0.00  0.00    +0.000 A 
ATOM      7  C   UNL     1     100.873 127.068  82.548  0.00  0.00    +0.000 A 
ATOM      8  C   UNL     1     101.816 126.093  81.982  0.00  0.00    +0.000 C 
ATOM      9  C   UNL     1     103.105 126.366  81.721  0.00  0.00    +0.000 C 
ATOM     10  S   UNL     1     103.828 127.914  82.007  0.00  0.00    +0.000 S 
ENDROOT
BRANCH   9  11
ATOM     11  C   UNL     1     103.974 125.343  81.121  0.00  0.00    +0.000 A 
ATOM     12  C   UNL     1     104.719 125.622  79.966  0.00  0.00    +0.000 A 
ATOM     13  C   UNL     1     105.526 124.640  79.387  0.00  0.00    +0.000 A 
ATOM     14  C   UNL     1     105.594 123.370  79.956  0.00  0.00    +0.000 A 
ATOM     15  C   UNL     1     104.856 123.079  81.102  0.00  0.00    +0.000 A 
ATOM     16  C   UNL     1     104.049 124.059  81.682  0.00  0.00    +0.000 A 
ENDBRANCH   9  11
TORSDOF 1
ENDMDL
