MODEL 1
REMARK VINA RESULT:      -4.2      0.000      0.000
REMARK  Name = *****
REMARK  3 active torsions:
REMARK  status: ('A' for Active; 'I' for Inactive)
REMARK    1  A    between atoms: C_1  and  C_2
REMARK    2  A    between atoms: N_8  and  S_9
REMARK    3  A    between atoms: S_9  and  C_10
REMARK                            x       y       z     vdW  Elec       q    Type
REMARK                         _______ _______ _______ _____ _____    ______ ____
ROOT
ATOM      1  C   UNL     1      88.338  68.322  84.971  0.00  0.00    +0.000 C 
ATOM      2  C   UNL     1      89.042  68.180  86.319  0.00  0.00    +0.000 C 
ATOM      3  C   UNL     1      90.086  67.053  86.322  0.00  0.00    +0.000 C 
ATOM      4  C   UNL     1      89.475  65.652  86.333  0.00  0.00    +0.000 C 
ATOM      5  C   UNL     1      88.515  65.483  87.507  0.00  0.00    +0.000 C 
ATOM      6  C   UNL     1      87.412  66.529  87.479  0.00  0.00    +0.000 C 
ATOM      7  C   UNL     1      88.008  67.929  87.420  0.00  0.00    +0.000 C 
ATOM      8  N   UNL     1      87.544  68.787  88.277  0.00  0.00    +0.000 NA
ENDROOT
BRANCH   8   9
ATOM      9  S   UNL     1      88.087  70.361  88.280  0.00  0.00    +0.000 S 
BRANCH   9  10
ATOM     10  C   UNL     1      86.643  71.196  87.637  0.00  0.00    +0.000 A 
ATOM     11  C   UNL     1      86.514  71.363  86.254  0.00  0.00    +0.000 A 
ATOM     12  C   UNL     1      85.389  71.995  85.717  0.00  0.00    +0.000 A 
ATOM     13  C   UNL     1      84.382  72.460  86.561  0.00  0.00    +0.000 A 
ATOM     14  C   UNL     1      84.498  72.294  87.940  0.00  0.00    +0.000 A 
ATOM     15  C   UNL     1      85.623  71.663  88.476  0.00  0.00    +0.000 A 
ENDBRANCH   9  10
ENDBRANCH   8   9
TORSDOF 2
ENDMDL
