MODEL 1
REMARK VINA RESULT:      -4.3      0.000      0.000
REMARK  Name = *****
REMARK  4 active torsions:
REMARK  status: ('A' for Active; 'I' for Inactive)
REMARK    1  A    between atoms: C_1  and  S_2
REMARK    2  A    between atoms: S_2  and  C_3
REMARK    3  A    between atoms: S_2  and  C_10
REMARK    4  A    between atoms: C_3  and  C_4
REMARK                            x       y       z     vdW  Elec       q    Type
REMARK                         _______ _______ _______ _____ _____    ______ ____
ROOT
ATOM      1  C   UNL     1      90.039  70.771  85.277  0.00  0.00    +0.000 C 
ATOM      2  S   UNL     1      89.012  70.503  86.740  0.00  0.00    +0.000 S 
ENDROOT
BRANCH   2   3
ATOM      3  C   UNL     1      88.969  68.698  86.836  0.00  0.00    +0.000 A 
ATOM      4  C   UNL     1      87.889  67.991  87.371  0.00  0.00    +0.000 A 
ATOM      5  C   UNL     1      87.895  66.593  87.396  0.00  0.00    +0.000 A 
ATOM      6  C   UNL     1      88.973  65.887  86.868  0.00  0.00    +0.000 A 
ATOM      7  C   UNL     1      90.040  66.578  86.303  0.00  0.00    +0.000 A 
ATOM      8  C   UNL     1      90.032  67.975  86.278  0.00  0.00    +0.000 A 
ENDBRANCH   2   3
BRANCH   2   9
ATOM      9  C   UNL     1      87.406  70.756  85.901  0.00  0.00    +0.000 C 
BRANCH   9  10
ATOM     10  C   UNL     1      86.357  71.345  86.811  0.00  0.00    +0.000 A 
ATOM     11  C   UNL     1      85.200  71.932  86.278  0.00  0.00    +0.000 A 
ATOM     12  C   UNL     1      84.224  72.467  87.120  0.00  0.00    +0.000 A 
ATOM     13  C   UNL     1      84.392  72.420  88.503  0.00  0.00    +0.000 A 
ATOM     14  C   UNL     1      85.534  71.835  89.045  0.00  0.00    +0.000 A 
ATOM     15  C   UNL     1      86.511  71.299  88.205  0.00  0.00    +0.000 A 
ENDBRANCH   9  10
ENDBRANCH   2   9
TORSDOF 3
ENDMDL
