MODEL 1
REMARK VINA RESULT:      -4.3      0.000      0.000
REMARK  Name = *****
REMARK  2 active torsions:
REMARK  status: ('A' for Active; 'I' for Inactive)
REMARK    1  A    between atoms: C_3  and  C_6
REMARK    2  A    between atoms: C_7  and  C_8
REMARK                            x       y       z     vdW  Elec       q    Type
REMARK                         _______ _______ _______ _____ _____    ______ ____
ROOT
ATOM      1  C   UNL     1      98.116 118.571  80.534  0.00  0.00    +0.000 C 
ATOM      2  C   UNL     1      97.414 117.452  80.782  0.00  0.00    +0.000 C 
ENDROOT
BRANCH   2   3
ATOM      3  C   UNL     1      97.021 116.476  79.757  0.00  0.00    +0.000 A 
ATOM      4  C   UNL     1      96.114 115.440  80.015  0.00  0.00    +0.000 A 
ATOM      5  C   UNL     1      95.740 114.552  79.003  0.00  0.00    +0.000 A 
ATOM      6  C   UNL     1      96.260 114.696  77.719  0.00  0.00    +0.000 A 
ATOM      7  C   UNL     1      97.150 115.733  77.444  0.00  0.00    +0.000 A 
ATOM      8  C   UNL     1      97.523 116.621  78.456  0.00  0.00    +0.000 A 
ENDBRANCH   2   3
BRANCH   1  11
ATOM      9  C   UNL     1      98.255 119.810  84.021  0.00  0.00    +0.000 C 
ATOM     10  C   UNL     1      98.818 118.886  82.940  0.00  0.00    +0.000 C 
ATOM     11  C   UNL     1      98.503 119.562  81.595  0.00  0.00    +0.000 C 
ATOM     12  C   UNL     1      97.372 120.477  81.955  0.00  0.00    +0.000 C 
ATOM     13  C   UNL     1      97.240 120.614  83.279  0.00  0.00    +0.000 C 
ENDBRANCH   1  11
TORSDOF 2
ENDMDL
