REMARK  Name = *****
REMARK  3 active torsions:
REMARK  status: ('A' for Active; 'I' for Inactive)
REMARK    1  A    between atoms: C_5  and  S_7
REMARK    2  A    between atoms: S_7  and  S_8
REMARK    3  A    between atoms: S_8  and  C_9
REMARK                            x       y       z     vdW  Elec       q    Type
REMARK                         _______ _______ _______ _____ _____    ______ ____
ROOT
ATOM      1  C   UNL     1       2.588  -0.198  -0.021  0.00  0.00    +0.000 A 
ATOM      2  C   UNL     1       1.786   0.899  -0.327  0.00  0.00    +0.000 A 
ATOM      3  C   UNL     1       0.422   0.720  -0.556  0.00  0.00    +0.000 A 
ATOM      4  C   UNL     1      -0.145  -0.558  -0.483  0.00  0.00    +0.000 A 
ATOM      5  C   UNL     1       0.656  -1.672  -0.183  0.00  0.00    +0.000 A 
ATOM      6  C   UNL     1       2.025  -1.474   0.053  0.00  0.00    +0.000 A 
ATOM      7 CL   UNL     1      -1.846  -0.685  -0.772  0.00  0.00    +0.000 Cl
ENDROOT
BRANCH   5   8
ATOM      8  S   UNL     1       0.025  -3.342  -0.056  0.00  0.00    +0.000 S 
BRANCH   8   9
ATOM      9  S   UNL     1       0.028  -3.938  -2.027  0.00  0.00    +0.000 S 
BRANCH   9  10
ATOM     10  C   UNL     1       1.688  -4.473  -2.243  0.00  0.00    +0.000 A 
ATOM     11  N   UNL     1       2.537  -4.655  -1.252  0.00  0.00    +0.000 NA
ATOM     12  C   UNL     1       3.750  -5.090  -1.747  0.00  0.00    +0.000 A 
ATOM     13  C   UNL     1       3.818  -5.234  -3.115  0.00  0.00    +0.000 A 
ATOM     14  S   UNL     1       2.310  -4.814  -3.812  0.00  0.00    +0.000 S 
ENDBRANCH   9  10
ENDBRANCH   8   9
ENDBRANCH   5   8
TORSDOF 3
