REMARK  Name = *****
REMARK  1 active torsions:
REMARK  status: ('A' for Active; 'I' for Inactive)
REMARK    1  A    between atoms: P_9  and  C_10
REMARK                            x       y       z     vdW  Elec       q    Type
REMARK                         _______ _______ _______ _____ _____    ______ ____
ROOT
ATOM      1  C   UNL     1      -1.681   0.859  -0.522  0.00  0.00    +0.000 C 
ATOM      2  C   UNL     1      -0.252   0.560  -0.157  0.00  0.00    +0.000 A 
ATOM      3  C   UNL     1       0.754   1.517  -0.079  0.00  0.00    +0.000 A 
ATOM      4  C   UNL     1       2.049   1.114   0.247  0.00  0.00    +0.000 A 
ATOM      5  C   UNL     1       2.335  -0.236   0.484  0.00  0.00    +0.000 A 
ATOM      6  C   UNL     1       1.328  -1.199   0.397  0.00  0.00    +0.000 A 
ATOM      7  C   UNL     1       0.035  -0.797   0.081  0.00  0.00    +0.000 A 
ATOM      8  C   UNL     1      -1.133  -1.734  -0.066  0.00  0.00    +0.000 C 
ATOM      9  P   UNL     1      -2.612  -0.671  -0.174  0.00  0.00    +0.000 P 
ATOM     10 BR   UNL     1      -3.630  -0.551   1.732  0.00  0.00    +0.000 Br
ENDROOT
BRANCH   9  11
ATOM     11  C   UNL     1      -3.699  -1.133  -1.466  0.00  0.00    +0.000 A 
ATOM     12  C   UNL     1      -3.927  -2.483  -1.757  0.00  0.00    +0.000 A 
ATOM     13  C   UNL     1      -4.801  -2.855  -2.779  0.00  0.00    +0.000 A 
ATOM     14  C   UNL     1      -5.465  -1.879  -3.518  0.00  0.00    +0.000 A 
ATOM     15  C   UNL     1      -5.260  -0.532  -3.229  0.00  0.00    +0.000 A 
ATOM     16  C   UNL     1      -4.385  -0.162  -2.206  0.00  0.00    +0.000 A 
ENDBRANCH   9  11
TORSDOF 1
