MODEL 1
REMARK VINA RESULT:      -4.3      0.000      0.000
REMARK  Name = *****
REMARK  3 active torsions:
REMARK  status: ('A' for Active; 'I' for Inactive)
REMARK    1  A    between atoms: C_4  and  O_6
REMARK    2  A    between atoms: O_6  and  C_7
REMARK    3  A    between atoms: C_7  and  C_9
REMARK                            x       y       z     vdW  Elec       q    Type
REMARK                         _______ _______ _______ _____ _____    ______ ____
ROOT
ATOM      1  C   UNL     1     103.050 127.448  82.995  0.00  0.00    +0.000 C 
ATOM      2  O   UNL     1     103.716 128.114  83.766  0.00  0.00    +0.000 OA
ENDROOT
BRANCH   1   3
ATOM      3  C   UNL     1     103.513 126.210  82.341  0.00  0.00    +0.000 A 
ATOM      4  C   UNL     1     103.712 126.148  80.957  0.00  0.00    +0.000 A 
ATOM      5  C   UNL     1     104.121 124.946  80.367  0.00  0.00    +0.000 A 
ATOM      6  C   UNL     1     104.326 123.818  81.159  0.00  0.00    +0.000 A 
ATOM      7  C   UNL     1     104.133 123.873  82.539  0.00  0.00    +0.000 A 
ATOM      8  C   UNL     1     103.725 125.069  83.132  0.00  0.00    +0.000 A 
ATOM      9 CL   UNL     1     104.829 122.344  80.430  0.00  0.00    +0.000 Cl
ATOM     10 CL   UNL     1     103.525 127.518  79.925  0.00  0.00    +0.000 Cl
ENDBRANCH   1   3
BRANCH   1  11
ATOM     11  O   UNL     1     101.783 127.697  82.582  0.00  0.00    +0.000 OA
BRANCH  11  15
ATOM     12  C   UNL     1      99.210 128.883  83.412  0.00  0.00    +0.000 C 
ATOM     13  C   UNL     1      98.569 127.818  82.532  0.00  0.00    +0.000 C 
ATOM     14  C   UNL     1      99.576 126.665  82.455  0.00  0.00    +0.000 C 
ATOM     15  C   UNL     1     100.750 127.059  83.356  0.00  0.00    +0.000 C 
ATOM     16  C   UNL     1     100.162 128.099  84.303  0.00  0.00    +0.000 C 
ENDBRANCH  11  15
ENDBRANCH   1  11
TORSDOF 3
ENDMDL
