MODEL 1
REMARK VINA RESULT:      -4.3      0.000      0.000
REMARK  Name = *****
REMARK  3 active torsions:
REMARK  status: ('A' for Active; 'I' for Inactive)
REMARK    1  A    between atoms: C_4  and  N_7
REMARK    2  A    between atoms: N_7  and  O_8
REMARK    3  A    between atoms: O_8  and  C_9
REMARK                            x       y       z     vdW  Elec       q    Type
REMARK                         _______ _______ _______ _____ _____    ______ ____
ROOT
ATOM      1  N   UNL     1     101.585 125.947  81.973  0.00  0.00    +0.000 N 
ATOM      2  H   UNL     1     101.434 125.647  81.048  0.00  0.00    +0.000 HD
ENDROOT
BRANCH   1   6
ATOM      3  C   UNL     1      99.104 128.990  83.525  0.00  0.00    +0.000 A 
ATOM      4  C   UNL     1     100.485 129.073  83.689  0.00  0.00    +0.000 A 
ATOM      5  C   UNL     1     101.309 128.060  83.191  0.00  0.00    +0.000 A 
ATOM      6  C   UNL     1     100.764 126.942  82.549  0.00  0.00    +0.000 A 
ATOM      7  C   UNL     1      99.378 126.892  82.358  0.00  0.00    +0.000 A 
ATOM      8  C   UNL     1      98.550 127.902  82.855  0.00  0.00    +0.000 A 
ENDBRANCH   1   6
BRANCH   1   9
ATOM      9  O   UNL     1     102.613 125.396  82.743  0.00  0.00    +0.000 OA
BRANCH   9  10
ATOM     10  C   UNL     1     103.563 124.812  81.936  0.00  0.00    +0.000 A 
ATOM     11  C   UNL     1     104.250 123.644  82.277  0.00  0.00    +0.000 A 
ATOM     12  C   UNL     1     105.177 123.097  81.388  0.00  0.00    +0.000 A 
ATOM     13  C   UNL     1     105.409 123.710  80.156  0.00  0.00    +0.000 A 
ATOM     14  C   UNL     1     104.709 124.866  79.808  0.00  0.00    +0.000 A 
ATOM     15  C   UNL     1     103.783 125.414  80.697  0.00  0.00    +0.000 A 
ENDBRANCH   9  10
ENDBRANCH   1   9
TORSDOF 3
ENDMDL
