MODEL 1
REMARK VINA RESULT:      -4.6      0.000      0.000
REMARK  Name = *****
REMARK  4 active torsions:
REMARK  status: ('A' for Active; 'I' for Inactive)
REMARK    1  A    between atoms: C_1  and  C_2
REMARK    2  A    between atoms: C_3  and  N_9
REMARK    3  A    between atoms: C_4  and  C_8
REMARK    4  A    between atoms: C_10  and  C_11
REMARK                            x       y       z     vdW  Elec       q    Type
REMARK                         _______ _______ _______ _____ _____    ______ ____
ROOT
ATOM      1  C   UNL     1     103.076 129.268  84.383  0.00  0.00    +0.000 C 
ATOM      2  C   UNL     1     101.620 129.209  84.014  0.00  0.00    +0.000 A 
ATOM      3  C   UNL     1     101.068 128.047  83.440  0.00  0.00    +0.000 A 
ATOM      4  C   UNL     1      99.707 128.027  83.071  0.00  0.00    +0.000 A 
ATOM      5  C   UNL     1      98.904 129.147  83.329  0.00  0.00    +0.000 A 
ATOM      6  C   UNL     1      99.446 130.284  83.926  0.00  0.00    +0.000 A 
ATOM      7  C   UNL     1     100.797 130.316  84.264  0.00  0.00    +0.000 A 
ATOM      8  C   UNL     1      99.103 126.813  82.423  0.00  0.00    +0.000 C 
ENDROOT
BRANCH   3   9
ATOM      9  N   UNL     1     101.879 126.920  83.202  0.00  0.00    +0.000 NA
ATOM     10  C   UNL     1     102.383 126.832  82.011  0.00  0.00    +0.000 C 
BRANCH  10  11
ATOM     11  C   UNL     1     103.252 125.710  81.611  0.00  0.00    +0.000 A 
ATOM     12  C   UNL     1     103.552 124.681  82.509  0.00  0.00    +0.000 A 
ATOM     13  C   UNL     1     104.377 123.630  82.108  0.00  0.00    +0.000 A 
ATOM     14  C   UNL     1     104.900 123.607  80.814  0.00  0.00    +0.000 A 
ATOM     15  C   UNL     1     104.600 124.635  79.919  0.00  0.00    +0.000 A 
ATOM     16  C   UNL     1     103.775 125.689  80.315  0.00  0.00    +0.000 A 
ENDBRANCH  10  11
ENDBRANCH   3   9
TORSDOF 2
ENDMDL
