MODEL 1
REMARK VINA RESULT:      -4.4      0.000      0.000
REMARK  Name = *****
REMARK  3 active torsions:
REMARK  status: ('A' for Active; 'I' for Inactive)
REMARK    1  A    between atoms: C_2  and  C_3
REMARK    2  A    between atoms: C_2  and  S_9
REMARK    3  A    between atoms: S_9  and  C_11
REMARK                            x       y       z     vdW  Elec       q    Type
REMARK                         _______ _______ _______ _____ _____    ______ ____
ROOT
ATOM      1  C   UNL     1     103.540 127.378  80.199  0.00  0.00    +0.000 C 
ATOM      2  C   UNL     1     103.570 126.676  81.343  0.00  0.00    +0.000 C 
ENDROOT
BRANCH   2   3
ATOM      3  C   UNL     1     103.994 125.281  81.381  0.00  0.00    +0.000 C 
ATOM      4  C   UNL     1     104.594 124.692  80.329  0.00  0.00    +0.000 C 
ATOM      5  C   UNL     1     105.047 123.260  80.316  0.00  0.00    +0.000 C 
ATOM      6  C   UNL     1     104.514 122.445  81.494  0.00  0.00    +0.000 C 
ATOM      7  C   UNL     1     104.582 123.247  82.789  0.00  0.00    +0.000 C 
ATOM      8  C   UNL     1     103.762 124.536  82.678  0.00  0.00    +0.000 C 
ENDBRANCH   2   3
BRANCH   2   9
ATOM      9  S   UNL     1     103.173 127.518  82.884  0.00  0.00    +0.000 S 
ATOM     10  O   UNL     1     103.866 128.850  82.863  0.00  0.00    +0.000 OA
BRANCH   9  11
ATOM     11  C   UNL     1     101.381 127.836  82.684  0.00  0.00    +0.000 C 
ATOM     12  C   UNL     1     100.853 128.851  83.699  0.00  0.00    +0.000 C 
ATOM     13  C   UNL     1      99.383 129.175  83.436  0.00  0.00    +0.000 C 
ATOM     14  C   UNL     1      98.527 127.912  83.390  0.00  0.00    +0.000 C 
ATOM     15  C   UNL     1      99.061 126.904  82.376  0.00  0.00    +0.000 C 
ATOM     16  C   UNL     1     100.529 126.567  82.637  0.00  0.00    +0.000 C 
ENDBRANCH   9  11
ENDBRANCH   2   9
TORSDOF 3
ENDMDL
