MODEL 1
REMARK VINA RESULT:      -4.4      0.000      0.000
REMARK  Name = *****
REMARK  5 active torsions:
REMARK  status: ('A' for Active; 'I' for Inactive)
REMARK    1  A    between atoms: C_1  and  N_2
REMARK    2  A    between atoms: N_2  and  C_3
REMARK    3  A    between atoms: C_3  and  C_4
REMARK    4  A    between atoms: C_3  and  C_11
REMARK    5  A    between atoms: C_4  and  C_5
REMARK                            x       y       z     vdW  Elec       q    Type
REMARK                         _______ _______ _______ _____ _____    ______ ____
ROOT
ATOM      1  C   UNL     1      88.017  70.616  85.616  0.00  0.00    +0.000 C 
ENDROOT
BRANCH   1   2
ATOM      2  C   UNL     1      86.746  71.229  86.188  0.00  0.00    +0.000 A 
ATOM      3  C   UNL     1      86.549  71.274  87.577  0.00  0.00    +0.000 A 
ATOM      4  C   UNL     1      85.394  71.849  88.110  0.00  0.00    +0.000 A 
ATOM      5  C   UNL     1      84.425  72.388  87.265  0.00  0.00    +0.000 A 
ATOM      6  C   UNL     1      84.612  72.354  85.884  0.00  0.00    +0.000 A 
ATOM      7  C   UNL     1      85.766  71.781  85.349  0.00  0.00    +0.000 A 
ENDBRANCH   1   2
BRANCH   1   9
ATOM      8  C   UNL     1      90.022  71.268  84.643  0.00  0.00    +0.000 C 
ATOM      9  N   UNL     1      88.798  71.610  84.840  0.00  0.00    +0.000 NA
ENDBRANCH   1   9
BRANCH   1  10
ATOM     10  C   UNL     1      88.900  70.069  86.760  0.00  0.00    +0.000 C 
BRANCH  10  11
ATOM     11  C   UNL     1      88.934  68.556  86.804  0.00  0.00    +0.000 A 
ATOM     12  C   UNL     1      87.899  67.841  87.422  0.00  0.00    +0.000 A 
ATOM     13  C   UNL     1      87.937  66.447  87.476  0.00  0.00    +0.000 A 
ATOM     14  C   UNL     1      89.009  65.755  86.915  0.00  0.00    +0.000 A 
ATOM     15  C   UNL     1      90.046  66.457  86.303  0.00  0.00    +0.000 A 
ATOM     16  C   UNL     1      90.010  67.852  86.248  0.00  0.00    +0.000 A 
ENDBRANCH  10  11
ENDBRANCH   1  10
TORSDOF 4
ENDMDL
