MODEL 1
REMARK VINA RESULT:      -3.4      0.000      0.000
REMARK  Name = *****
REMARK  5 active torsions:
REMARK  status: ('A' for Active; 'I' for Inactive)
REMARK    1  A    between atoms: C_4  and  S_6
REMARK    2  A    between atoms: S_6  and  C_7
REMARK    3  A    between atoms: C_7  and  C_8
REMARK    4  A    between atoms: C_7  and  S_10
REMARK    5  A    between atoms: S_10  and  C_11
REMARK                            x       y       z     vdW  Elec       q    Type
REMARK                         _______ _______ _______ _____ _____    ______ ____
ROOT
ATOM      1  C   UNL     1      89.498  65.927  86.516  0.00  0.00    +0.000 C 
ENDROOT
BRANCH   1   2
ATOM      2  C   UNL     1      90.721  65.887  85.626  0.00  0.00    +0.000 C 
ATOM      3  O   UNL     1      90.721  66.249  84.449  0.00  0.00    +0.000 OA
ENDBRANCH   1   2
BRANCH   1   4
ATOM      4  S   UNL     1      88.832  64.235  86.671  0.00  0.00    +0.000 S 
BRANCH   4   8
ATOM      5  C   UNL     1      88.160  63.904  90.626  0.00  0.00    +0.000 A 
ATOM      6  C   UNL     1      87.026  64.656  90.420  0.00  0.00    +0.000 A 
ATOM      7  S   UNL     1      86.843  65.101  88.778  0.00  0.00    +0.000 S 
ATOM      8  C   UNL     1      88.268  64.272  88.332  0.00  0.00    +0.000 A 
ATOM      9  C   UNL     1      88.884  63.687  89.417  0.00  0.00    +0.000 A 
ENDBRANCH   4   8
ENDBRANCH   1   4
BRANCH   1  10
ATOM     10  S   UNL     1      88.284  67.037  85.727  0.00  0.00    +0.000 S 
BRANCH  10  11
ATOM     11  C   UNL     1      88.485  68.496  86.684  0.00  0.00    +0.000 A 
ATOM     12  C   UNL     1      89.509  69.408  86.539  0.00  0.00    +0.000 A 
ATOM     13  C   UNL     1      89.411  70.485  87.469  0.00  0.00    +0.000 A 
ATOM     14  C   UNL     1      88.322  70.347  88.300  0.00  0.00    +0.000 A 
ATOM     15  S   UNL     1      87.431  68.928  87.960  0.00  0.00    +0.000 S 
ENDBRANCH  10  11
ENDBRANCH   1  10
TORSDOF 5
ENDMDL
