MODEL 1
REMARK VINA RESULT:      -4.5      0.000      0.000
REMARK  Name = *****
REMARK  3 active torsions:
REMARK  status: ('A' for Active; 'I' for Inactive)
REMARK    1  A    between atoms: C_4  and  N_7
REMARK    2  A    between atoms: N_7  and  N_8
REMARK    3  A    between atoms: N_8  and  C_10
REMARK                            x       y       z     vdW  Elec       q    Type
REMARK                         _______ _______ _______ _____ _____    ______ ____
ROOT
ATOM      1  N   UNL     1      87.841  63.492  86.449  0.00  0.00    +0.000 N 
ATOM      2  O   UNL     1      86.971  63.368  85.610  0.00  0.00    +0.000 OA
ENDROOT
BRANCH   1   3
ATOM      3  C   UNL     1      88.976  64.334  86.127  0.00  0.00    +0.000 A 
ATOM      4  C   UNL     1      88.930  65.707  86.391  0.00  0.00    +0.000 A 
ATOM      5  C   UNL     1      90.037  66.494  86.079  0.00  0.00    +0.000 A 
ATOM      6  C   UNL     1      91.176  65.927  85.505  0.00  0.00    +0.000 A 
ATOM      7  C   UNL     1      91.211  64.558  85.233  0.00  0.00    +0.000 A 
ATOM      8  C   UNL     1      90.111  63.759  85.542  0.00  0.00    +0.000 A 
ATOM      9 CL   UNL     1      89.996  68.184  86.402  0.00  0.00    +0.000 Cl
ENDBRANCH   1   3
BRANCH   1  10
ATOM     10  N   UNL     1      87.802  62.812  87.694  0.00  0.00    +0.000 N 
ATOM     11  H   UNL     1      87.718  61.833  87.627  0.00  0.00    +0.000 HD
BRANCH  10  15
ATOM     12  C   UNL     1      87.853  64.260  91.665  0.00  0.00    +0.000 A 
ATOM     13  C   UNL     1      89.056  64.020  91.008  0.00  0.00    +0.000 A 
ATOM     14  C   UNL     1      89.058  63.543  89.692  0.00  0.00    +0.000 A 
ATOM     15  C   UNL     1      87.863  63.306  89.007  0.00  0.00    +0.000 A 
ATOM     16  C   UNL     1      86.659  63.547  89.691  0.00  0.00    +0.000 A 
ATOM     17  C   UNL     1      86.652  64.022  91.007  0.00  0.00    +0.000 A 
ENDBRANCH  10  15
ENDBRANCH   1  10
TORSDOF 3
ENDMDL
