MODEL 1
REMARK VINA RESULT:      -4.6      0.000      0.000
REMARK  Name = *****
REMARK  1 active torsions:
REMARK  status: ('A' for Active; 'I' for Inactive)
REMARK    1  A    between atoms: C_4  and  C_6
REMARK                            x       y       z     vdW  Elec       q    Type
REMARK                         _______ _______ _______ _____ _____    ______ ____
ROOT
ATOM      1  C   UNL     1     102.795 126.090  81.766  0.00  0.00    +0.000 C 
ATOM      2  C   UNL     1     103.186 124.873  82.193  0.00  0.00    +0.000 C 
ATOM      3  C   UNL     1     104.201 124.374  81.282  0.00  0.00    +0.000 A 
ATOM      4  C   UNL     1     104.894 123.178  81.301  0.00  0.00    +0.000 A 
ATOM      5  C   UNL     1     105.832 122.944  80.290  0.00  0.00    +0.000 A 
ATOM      6  C   UNL     1     106.060 123.901  79.286  0.00  0.00    +0.000 A 
ATOM      7  C   UNL     1     105.355 125.106  79.277  0.00  0.00    +0.000 A 
ATOM      8  C   UNL     1     104.429 125.327  80.283  0.00  0.00    +0.000 A 
ATOM      9  C   UNL     1     103.546 126.515  80.514  0.00  0.00    +0.000 C 
ENDROOT
BRANCH   1  13
ATOM     10  C   UNL     1     100.908 128.630  83.776  0.00  0.00    +0.000 C 
ATOM     11  C   UNL     1      99.774 127.847  83.123  0.00  0.00    +0.000 C 
ATOM     12  C   UNL     1     100.492 126.728  82.446  0.00  0.00    +0.000 C 
ATOM     13  C   UNL     1     101.813 126.940  82.383  0.00  0.00    +0.000 C 
ATOM     14  C   UNL     1     102.175 128.256  83.008  0.00  0.00    +0.000 C 
ENDBRANCH   1  13
TORSDOF 1
ENDMDL
