MODEL 1
REMARK VINA RESULT:      -4.5      0.000      0.000
REMARK  Name = *****
REMARK  4 active torsions:
REMARK  status: ('A' for Active; 'I' for Inactive)
REMARK    1  A    between atoms: C_1  and  O_2
REMARK    2  A    between atoms: O_2  and  C_3
REMARK    3  A    between atoms: C_6  and  C_9
REMARK    4  A    between atoms: C_10  and  C_11
REMARK                            x       y       z     vdW  Elec       q    Type
REMARK                         _______ _______ _______ _____ _____    ______ ____
ROOT
ATOM      1  C   UNL     1     103.136 125.420  82.745  0.00  0.00    +0.000 C 
ATOM      2  C   UNL     1     102.045 125.915  82.138  0.00  0.00    +0.000 C 
ENDROOT
BRANCH   2   3
ATOM      3  C   UNL     1     101.262 127.044  82.661  0.00  0.00    +0.000 A 
ATOM      4  C   UNL     1      99.863 127.082  82.581  0.00  0.00    +0.000 A 
ATOM      5  C   UNL     1      99.149 128.158  83.118  0.00  0.00    +0.000 A 
ATOM      6  C   UNL     1      99.832 129.196  83.748  0.00  0.00    +0.000 A 
ATOM      7  C   UNL     1     101.220 129.166  83.849  0.00  0.00    +0.000 A 
ATOM      8  C   UNL     1     101.932 128.088  83.312  0.00  0.00    +0.000 A 
ATOM      9 CL   UNL     1      98.955 130.520  84.409  0.00  0.00    +0.000 Cl
ENDBRANCH   2   3
BRANCH   1  13
ATOM     10  C   UNL     1     105.452 122.098  81.330  0.00  0.00    +0.000 A 
ATOM     11  C   UNL     1     105.014 123.068  80.430  0.00  0.00    +0.000 A 
ATOM     12  C   UNL     1     104.251 124.154  80.880  0.00  0.00    +0.000 A 
ATOM     13  C   UNL     1     103.907 124.278  82.232  0.00  0.00    +0.000 A 
ATOM     14  C   UNL     1     104.365 123.310  83.132  0.00  0.00    +0.000 A 
ATOM     15  C   UNL     1     105.126 122.227  82.681  0.00  0.00    +0.000 A 
BRANCH  10  17
ATOM     16  C   UNL     1     106.344 120.014  82.044  0.00  0.00    +0.000 C 
ATOM     17  O   UNL     1     106.200 120.994  81.025  0.00  0.00    +0.000 OA
ENDBRANCH  10  17
ENDBRANCH   1  13
TORSDOF 3
ENDMDL
