MODEL 1
REMARK VINA RESULT:      -4.1      0.000      0.000
REMARK  Name = *****
REMARK  3 active torsions:
REMARK  status: ('A' for Active; 'I' for Inactive)
REMARK    1  A    between atoms: C_1  and  C_2
REMARK    2  A    between atoms: C_5  and  C_8
REMARK    3  A    between atoms: C_10  and  C_11
REMARK                            x       y       z     vdW  Elec       q    Type
REMARK                         _______ _______ _______ _____ _____    ______ ____
ROOT
ATOM      1  C   UNL     1      89.429  69.912  86.570  0.00  0.00    +0.000 C 
ATOM      2  C   UNL     1      89.853  69.279  85.280  0.00  0.00    +0.000 C 
ATOM      3  C   UNL     1      89.639  68.405  86.495  0.00  0.00    +0.000 C 
ENDROOT
BRANCH   1   8
ATOM      4  C   UNL     1      84.222  72.505  87.181  0.00  0.00    +0.000 C 
ATOM      5  C   UNL     1      85.543  71.812  87.021  0.00  0.00    +0.000 A 
ATOM      6  C   UNL     1      86.263  71.391  88.140  0.00  0.00    +0.000 A 
ATOM      7  C   UNL     1      87.510  70.776  87.989  0.00  0.00    +0.000 A 
ATOM      8  C   UNL     1      88.074  70.559  86.723  0.00  0.00    +0.000 A 
ATOM      9  C   UNL     1      87.349  71.016  85.611  0.00  0.00    +0.000 A 
ATOM     10  C   UNL     1      86.103  71.634  85.754  0.00  0.00    +0.000 A 
ENDBRANCH   1   8
BRANCH   3  11
ATOM     11  C   UNL     1      88.496  67.385  86.464  0.00  0.00    +0.000 A 
ATOM     12  C   UNL     1      87.805  66.880  87.544  0.00  0.00    +0.000 A 
ATOM     13  C   UNL     1      86.799  65.948  87.148  0.00  0.00    +0.000 A 
ATOM     14  C   UNL     1      86.755  65.785  85.783  0.00  0.00    +0.000 A 
ATOM     15  S   UNL     1      87.919  66.750  84.985  0.00  0.00    +0.000 S 
ENDBRANCH   3  11
TORSDOF 2
ENDMDL
