MODEL 1
REMARK VINA RESULT:      -3.9      0.000      0.000
REMARK  Name = *****
REMARK  6 active torsions:
REMARK  status: ('A' for Active; 'I' for Inactive)
REMARK    1  A    between atoms: C_1  and  C_2
REMARK    2  A    between atoms: C_2  and  C_3
REMARK    3  A    between atoms: C_3  and  C_4
REMARK    4  A    between atoms: C_4  and  C_5
REMARK    5  A    between atoms: C_5  and  C_6
REMARK    6  A    between atoms: C_6  and  C_7
REMARK                            x       y       z     vdW  Elec       q    Type
REMARK                         _______ _______ _______ _____ _____    ______ ____
ROOT
ATOM      1  C   UNL     1     102.793 125.602  82.103  0.00  0.00    +0.000 C 
ENDROOT
BRANCH   1   2
ATOM      2  C   UNL     1     103.244 125.586  80.634  0.00  0.00    +0.000 C 
ATOM      3 CL   UNL     1     103.620 127.260  80.092  0.00  0.00    +0.000 Cl
BRANCH   2   4
ATOM      4  C   UNL     1     104.452 124.689  80.318  0.00  0.00    +0.000 C 
BRANCH   4   6
ATOM      5  C   UNL     1     106.187 124.546  78.495  0.00  0.00    +0.000 C 
ATOM      6  C   UNL     1     105.629 125.395  79.632  0.00  0.00    +0.000 C 
ATOM      7 CL   UNL     1     106.941 125.738  80.795  0.00  0.00    +0.000 Cl
ENDBRANCH   4   6
ENDBRANCH   2   4
ENDBRANCH   1   2
BRANCH   1   8
ATOM      8  C   UNL     1     102.746 126.991  82.750  0.00  0.00    +0.000 C 
BRANCH   8   9
ATOM      9  C   UNL     1     101.324 127.474  82.901  0.00  0.00    +0.000 A 
ATOM     10  C   UNL     1     100.257 126.724  82.388  0.00  0.00    +0.000 A 
ATOM     11  C   UNL     1      98.945 127.184  82.513  0.00  0.00    +0.000 A 
ATOM     12  C   UNL     1      98.688 128.399  83.147  0.00  0.00    +0.000 A 
ATOM     13  C   UNL     1      99.743 129.155  83.656  0.00  0.00    +0.000 A 
ATOM     14  C   UNL     1     101.055 128.696  83.531  0.00  0.00    +0.000 A 
ENDBRANCH   8   9
ENDBRANCH   1   8
TORSDOF 5
ENDMDL
