MODEL 1
REMARK VINA RESULT:      -4.5      0.000      0.000
REMARK  Name = *****
REMARK  3 active torsions:
REMARK  status: ('A' for Active; 'I' for Inactive)
REMARK    1  A    between atoms: C_4  and  C_7
REMARK    2  A    between atoms: C_7  and  O_8
REMARK    3  A    between atoms: O_8  and  C_9
REMARK                            x       y       z     vdW  Elec       q    Type
REMARK                         _______ _______ _______ _____ _____    ______ ____
ROOT
ATOM      1  O   UNL     1     102.618 126.976  83.112  0.00  0.00    +0.000 OA
ENDROOT
BRANCH   1   2
ATOM      2  C   UNL     1     101.335 127.465  83.105  0.00  0.00    +0.000 A 
ATOM      3  C   UNL     1     101.046 128.750  83.586  0.00  0.00    +0.000 A 
ATOM      4  C   UNL     1      99.727 129.218  83.517  0.00  0.00    +0.000 A 
ATOM      5  C   UNL     1      98.723 128.417  82.960  0.00  0.00    +0.000 A 
ATOM      6  C   UNL     1      99.029 127.150  82.461  0.00  0.00    +0.000 A 
ATOM      7  C   UNL     1     100.337 126.677  82.526  0.00  0.00    +0.000 A 
ATOM      8 CL   UNL     1      99.263 130.780  84.100  0.00  0.00    +0.000 Cl
ATOM      9 CL   UNL     1     102.315 129.722  84.256  0.00  0.00    +0.000 Cl
ENDBRANCH   1   2
BRANCH   1  10
ATOM     10  C   UNL     1     102.620 125.581  83.439  0.00  0.00    +0.000 C 
BRANCH  10  14
ATOM     11  C   UNL     1     104.995 123.511  80.490  0.00  0.00    +0.000 A 
ATOM     12  C   UNL     1     104.305 124.671  80.145  0.00  0.00    +0.000 A 
ATOM     13  C   UNL     1     103.535 125.337  81.099  0.00  0.00    +0.000 A 
ATOM     14  C   UNL     1     103.448 124.849  82.412  0.00  0.00    +0.000 A 
ATOM     15  C   UNL     1     104.144 123.680  82.748  0.00  0.00    +0.000 A 
ATOM     16  C   UNL     1     104.915 123.016  81.791  0.00  0.00    +0.000 A 
ENDBRANCH  10  14
ENDBRANCH   1  10
TORSDOF 3
ENDMDL
