MODEL 1
REMARK VINA RESULT:      -4.1      0.000      0.000
REMARK  Name = *****
REMARK  3 active torsions:
REMARK  status: ('A' for Active; 'I' for Inactive)
REMARK    1  A    between atoms: C_1  and  C_2
REMARK    2  A    between atoms: C_2  and  C_11
REMARK    3  A    between atoms: C_4  and  C_5
REMARK                            x       y       z     vdW  Elec       q    Type
REMARK                         _______ _______ _______ _____ _____    ______ ____
ROOT
ATOM      1  C   UNL     1      89.441  71.228  85.089  0.00  0.00    +0.000 C 
ATOM      2  C   UNL     1      88.689  70.332  86.057  0.00  0.00    +0.000 C 
ATOM      3  C   UNL     1      89.527  69.567  87.048  0.00  0.00    +0.000 C 
ATOM      4  C   UNL     1      88.836  68.790  85.946  0.00  0.00    +0.000 C 
ATOM      5 CL   UNL     1      89.874  68.162  84.636  0.00  0.00    +0.000 Cl
ENDROOT
BRANCH   2   6
ATOM      6  C   UNL     1      87.362  70.945  86.496  0.00  0.00    +0.000 A 
ATOM      7  C   UNL     1      86.453  71.461  85.554  0.00  0.00    +0.000 A 
ATOM      8  C   UNL     1      85.242  72.037  85.947  0.00  0.00    +0.000 A 
ATOM      9  C   UNL     1      84.919  72.122  87.298  0.00  0.00    +0.000 A 
ATOM     10  C   UNL     1      85.807  71.638  88.252  0.00  0.00    +0.000 A 
ATOM     11  C   UNL     1      87.016  71.061  87.853  0.00  0.00    +0.000 A 
ENDBRANCH   2   6
BRANCH   4  12
ATOM     12  C   UNL     1      87.721  67.812  86.372  0.00  0.00    +0.000 A 
ATOM     13  C   UNL     1      87.592  67.120  87.564  0.00  0.00    +0.000 A 
ATOM     14  C   UNL     1      86.410  66.346  87.469  0.00  0.00    +0.000 A 
ATOM     15  C   UNL     1      85.891  66.598  86.224  0.00  0.00    +0.000 A 
ATOM     16  O   UNL     1      86.675  67.475  85.553  0.00  0.00    +0.000 OA
ENDBRANCH   4  12
TORSDOF 2
ENDMDL
