MODEL 1
REMARK VINA RESULT:      -4.9      0.000      0.000
REMARK  Name = *****
REMARK  3 active torsions:
REMARK  status: ('A' for Active; 'I' for Inactive)
REMARK    1  A    between atoms: C_1  and  C_2
REMARK    2  A    between atoms: C_5  and  N_8
REMARK    3  A    between atoms: C_9  and  C_10
REMARK                            x       y       z     vdW  Elec       q    Type
REMARK                         _______ _______ _______ _____ _____    ______ ____
ROOT
ATOM      1  N   UNL     1     102.867 126.166  81.986  0.00  0.00    +0.000 NA
ATOM      2  C   UNL     1     101.757 126.029  82.641  0.00  0.00    +0.000 C 
ENDROOT
BRANCH   1   7
ATOM      3  C   UNL     1     105.934 121.409  81.197  0.00  0.00    +0.000 C 
ATOM      4  C   UNL     1     105.102 122.640  81.396  0.00  0.00    +0.000 A 
ATOM      5  C   UNL     1     104.840 123.500  80.323  0.00  0.00    +0.000 A 
ATOM      6  C   UNL     1     104.095 124.667  80.517  0.00  0.00    +0.000 A 
ATOM      7  C   UNL     1     103.603 124.990  81.783  0.00  0.00    +0.000 A 
ATOM      8  C   UNL     1     103.889 124.150  82.861  0.00  0.00    +0.000 A 
ATOM      9  C   UNL     1     104.635 122.983  82.671  0.00  0.00    +0.000 A 
ENDBRANCH   1   7
BRANCH   2  10
ATOM     10  C   UNL     1     100.882 127.179  82.927  0.00  0.00    +0.000 A 
ATOM     11  C   UNL     1     101.366 128.309  83.593  0.00  0.00    +0.000 A 
ATOM     12  C   UNL     1     100.509 129.382  83.849  0.00  0.00    +0.000 A 
ATOM     13  C   UNL     1      99.174 129.328  83.441  0.00  0.00    +0.000 A 
ATOM     14  C   UNL     1      98.694 128.199  82.776  0.00  0.00    +0.000 A 
ATOM     15  C   UNL     1      99.550 127.130  82.522  0.00  0.00    +0.000 A 
ATOM     16  F   UNL     1      99.067 126.056  81.882  0.00  0.00    +0.000 F 
ENDBRANCH   2  10
TORSDOF 2
ENDMDL
