MODEL 1
REMARK VINA RESULT:      -4.6      0.000      0.000
REMARK  Name = *****
REMARK  5 active torsions:
REMARK  status: ('A' for Active; 'I' for Inactive)
REMARK    1  A    between atoms: C_1  and  C_2
REMARK    2  A    between atoms: C_5  and  C_16
REMARK    3  A    between atoms: C_6  and  C_8
REMARK    4  A    between atoms: C_9  and  C_10
REMARK    5  A    between atoms: C_16  and  C_18
REMARK                            x       y       z     vdW  Elec       q    Type
REMARK                         _______ _______ _______ _____ _____    ______ ____
ROOT
ATOM      1  C   UNL     1      89.257  65.581  86.540  0.00  0.00    +0.000 C 
ATOM      2  C   UNL     1      89.729  66.899  85.940  0.00  0.00    +0.000 C 
ATOM      3  C   UNL     1      89.145  67.106  84.542  0.00  0.00    +0.000 C 
ATOM      4  C   UNL     1      89.550  68.470  83.991  0.00  0.00    +0.000 C 
ATOM      5  C   UNL     1      89.197  69.589  84.988  0.00  0.00    +0.000 C 
ATOM      6  C   UNL     1      89.776  69.240  86.388  0.00  0.00    +0.000 C 
ATOM      7  O   UNL     1      89.305  67.951  86.809  0.00  0.00    +0.000 OA
ENDROOT
BRANCH   5   8
ATOM      8  C   UNL     1      89.608  70.959  84.449  0.00  0.00    +0.000 C 
ATOM      9  C   UNL     1      90.884  71.214  84.111  0.00  0.00    +0.000 C 
ATOM     10  C   UNL     1      88.548  72.017  84.296  0.00  0.00    +0.000 C 
ENDBRANCH   5   8
BRANCH   6  11
ATOM     11  C   UNL     1      89.323  70.206  87.449  0.00  0.00    +0.000 C 
ATOM     12  C   UNL     1      88.149  70.121  88.097  0.00  0.00    +0.000 C 
BRANCH  12  13
ATOM     13  C   UNL     1      87.713  71.061  89.137  0.00  0.00    +0.000 A 
ATOM     14  C   UNL     1      86.345  71.317  89.291  0.00  0.00    +0.000 A 
ATOM     15  C   UNL     1      85.890  72.181  90.291  0.00  0.00    +0.000 A 
ATOM     16  C   UNL     1      86.799  72.788  91.155  0.00  0.00    +0.000 A 
ATOM     17  C   UNL     1      88.162  72.528  91.024  0.00  0.00    +0.000 A 
ATOM     18  C   UNL     1      88.616  71.665  90.023  0.00  0.00    +0.000 A 
ENDBRANCH  12  13
ENDBRANCH   6  11
TORSDOF 3
ENDMDL
