REMARK  Name = *****
REMARK  4 active torsions:
REMARK  status: ('A' for Active; 'I' for Inactive)
REMARK    1  A    between atoms: C_3  and  C_8
REMARK    2  A    between atoms: C_8  and  C_9
REMARK    3  A    between atoms: C_9  and  C_10
REMARK    4  A    between atoms: C_10  and  C_12
REMARK                            x       y       z     vdW  Elec       q    Type
REMARK                         _______ _______ _______ _____ _____    ______ ____
ROOT
ATOM      1  C   UNL     1      -1.899   4.947  -0.443  0.00  0.00    +0.000 C 
ATOM      2  O   UNL     1      -3.116   4.981  -0.274  0.00  0.00    +0.000 OA
ENDROOT
BRANCH   1   3
ATOM      3  C   UNL     1      -1.176   6.219  -0.753  0.00  0.00    +0.000 A 
ATOM      4  C   UNL     1       0.214   6.270  -0.909  0.00  0.00    +0.000 A 
ATOM      5  C   UNL     1       0.828   7.487  -1.199  0.00  0.00    +0.000 A 
ATOM      6  C   UNL     1       0.078   8.649  -1.335  0.00  0.00    +0.000 A 
ATOM      7  C   UNL     1      -1.302   8.614  -1.183  0.00  0.00    +0.000 A 
ATOM      8  C   UNL     1      -1.929   7.399  -0.892  0.00  0.00    +0.000 A 
ATOM      9  F   UNL     1       0.681   9.813  -1.614  0.00  0.00    +0.000 F 
ATOM     10  F   UNL     1       2.159   7.525  -1.345  0.00  0.00    +0.000 F 
ENDBRANCH   1   3
BRANCH   1  11
ATOM     11  C   UNL     1      -1.102   3.660  -0.344  0.00  0.00    +0.000 C 
BRANCH  11  12
ATOM     12  C   UNL     1      -2.005   2.456  -0.079  0.00  0.00    +0.000 C 
BRANCH  12  15
ATOM     13  C   UNL     1       0.045  -0.441   1.324  0.00  0.00    +0.000 A 
ATOM     14  C   UNL     1      -0.714   0.730   1.244  0.00  0.00    +0.000 A 
ATOM     15  C   UNL     1      -1.206   1.179   0.009  0.00  0.00    +0.000 A 
ATOM     16  C   UNL     1      -0.917   0.441  -1.146  0.00  0.00    +0.000 A 
ATOM     17  C   UNL     1      -0.160  -0.723  -1.054  0.00  0.00    +0.000 A 
ATOM     18  C   UNL     1       0.323  -1.170   0.169  0.00  0.00    +0.000 A 
ATOM     19  F   UNL     1       0.110  -1.421  -2.165  0.00  0.00    +0.000 F 
ENDBRANCH  12  15
ENDBRANCH  11  12
ENDBRANCH   1  11
TORSDOF 4
