MODEL 1
REMARK VINA RESULT:      -4.3      0.000      0.000
REMARK  Name = *****
REMARK  3 active torsions:
REMARK  status: ('A' for Active; 'I' for Inactive)
REMARK    1  A    between atoms: C_4  and  C_6
REMARK    2  A    between atoms: C_6  and  C_7
REMARK    3  A    between atoms: C_8  and  C_9
REMARK                            x       y       z     vdW  Elec       q    Type
REMARK                         _______ _______ _______ _____ _____    ______ ____
ROOT
ATOM      1  C   UNL     1      88.807  66.010  86.719  0.00  0.00    +0.000 C 
ATOM      2  C   UNL     1      89.891  66.765  86.476  0.00  0.00    +0.000 C 
ENDROOT
BRANCH   2   3
ATOM      3  C   UNL     1      89.842  68.190  86.121  0.00  0.00    +0.000 A 
ATOM      4  C   UNL     1      89.980  68.559  84.777  0.00  0.00    +0.000 A 
ATOM      5  C   UNL     1      89.910  69.902  84.396  0.00  0.00    +0.000 A 
ATOM      6  C   UNL     1      89.690  70.888  85.355  0.00  0.00    +0.000 A 
ATOM      7  C   UNL     1      89.535  70.532  86.693  0.00  0.00    +0.000 A 
ATOM      8  C   UNL     1      89.606  69.189  87.074  0.00  0.00    +0.000 A 
ENDBRANCH   2   3
BRANCH   1   9
ATOM      9  C   UNL     1      88.874  64.555  87.092  0.00  0.00    +0.000 C 
BRANCH   9  13
ATOM     10  C   UNL     1      87.802  63.918  90.673  0.00  0.00    +0.000 C 
ATOM     11  C   UNL     1      86.777  64.965  90.235  0.00  0.00    +0.000 C 
ATOM     12  C   UNL     1      87.203  65.417  88.842  0.00  0.00    +0.000 C 
ATOM     13  C   UNL     1      87.978  64.223  88.287  0.00  0.00    +0.000 C 
ATOM     14  C   UNL     1      88.773  63.763  89.507  0.00  0.00    +0.000 C 
ENDBRANCH   9  13
ENDBRANCH   1   9
TORSDOF 3
ENDMDL
