MODEL 1
REMARK VINA RESULT:      -4.5      0.000      0.000
REMARK  Name = *****
REMARK  5 active torsions:
REMARK  status: ('A' for Active; 'I' for Inactive)
REMARK    1  A    between atoms: C_1  and  C_2
REMARK    2  A    between atoms: C_5  and  C_7
REMARK    3  A    between atoms: C_7  and  C_8
REMARK    4  A    between atoms: C_8  and  C_9
REMARK    5  A    between atoms: C_9  and  C_10
REMARK                            x       y       z     vdW  Elec       q    Type
REMARK                         _______ _______ _______ _____ _____    ______ ____
ROOT
ATOM      1  C   UNL     1     103.737 128.351  82.176  0.00  0.00    +0.000 C 
ENDROOT
BRANCH   1   2
ATOM      2  C   UNL     1     103.633 127.861  80.727  0.00  0.00    +0.000 C 
BRANCH   2   7
ATOM      3  C   UNL     1     106.173 124.622  78.437  0.00  0.00    +0.000 C 
ATOM      4  C   UNL     1     105.874 124.863  79.913  0.00  0.00    +0.000 C 
ATOM      5  C   UNL     1     104.568 124.200  80.366  0.00  0.00    +0.000 C 
ATOM      6  C   UNL     1     103.505 125.299  80.355  0.00  0.00    +0.000 C 
ATOM      7  C   UNL     1     104.317 126.558  80.438  0.00  0.00    +0.000 C 
ATOM      8  C   UNL     1     105.612 126.312  80.195  0.00  0.00    +0.000 C 
ENDBRANCH   2   7
ENDBRANCH   1   2
BRANCH   1   9
ATOM      9  C   UNL     1     102.988 127.415  83.128  0.00  0.00    +0.000 C 
BRANCH   9  10
ATOM     10  C   UNL     1     101.497 127.627  83.059  0.00  0.00    +0.000 A 
ATOM     11  C   UNL     1     100.668 126.663  82.469  0.00  0.00    +0.000 A 
ATOM     12  C   UNL     1      99.290 126.870  82.387  0.00  0.00    +0.000 A 
ATOM     13  C   UNL     1      98.728 128.041  82.891  0.00  0.00    +0.000 A 
ATOM     14  C   UNL     1      99.544 129.010  83.473  0.00  0.00    +0.000 A 
ATOM     15  C   UNL     1     100.923 128.805  83.555  0.00  0.00    +0.000 A 
ENDBRANCH   9  10
ENDBRANCH   1   9
TORSDOF 4
ENDMDL
