MODEL 1
REMARK VINA RESULT:      -4.4      0.000      0.000
REMARK  Name = *****
REMARK  6 active torsions:
REMARK  status: ('A' for Active; 'I' for Inactive)
REMARK    1  A    between atoms: C_1  and  C_2
REMARK    2  A    between atoms: C_2  and  C_3
REMARK    3  A    between atoms: C_2  and  N_10
REMARK    4  A    between atoms: C_8  and  C_9
REMARK    5  A    between atoms: N_10  and  C_11
REMARK    6  A    between atoms: C_11  and  C_12
REMARK                            x       y       z     vdW  Elec       q    Type
REMARK                         _______ _______ _______ _____ _____    ______ ____
ROOT
ATOM      1  C   UNL     1      86.973  68.709  87.795  0.00  0.00    +0.000 C 
ATOM      2  C   UNL     1      87.279  70.193  87.741  0.00  0.00    +0.000 C 
ENDROOT
BRANCH   2   3
ATOM      3  C   UNL     1      86.317  71.142  87.555  0.00  0.00    +0.000 A 
ATOM      4  C   UNL     1      85.605  71.706  88.725  0.00  0.00    +0.000 A 
ATOM      5  C   UNL     1      84.459  72.393  88.574  0.00  0.00    +0.000 A 
ATOM      6  C   UNL     1      83.875  72.615  87.267  0.00  0.00    +0.000 A 
ATOM      7  C   UNL     1      84.530  72.276  86.144  0.00  0.00    +0.000 A 
ATOM      8  C   UNL     1      85.860  71.654  86.223  0.00  0.00    +0.000 A 
ATOM      9  C   UNL     1      86.600  71.647  85.099  0.00  0.00    +0.000 C 
ENDBRANCH   2   3
BRANCH   2  10
ATOM     10  N   UNL     1      88.620  70.475  87.907  0.00  0.00    +0.000 NA
BRANCH  10  11
ATOM     11  C   UNL     1      89.416  69.664  87.280  0.00  0.00    +0.000 C 
BRANCH  11  12
ATOM     12  C   UNL     1      89.707  69.815  85.841  0.00  0.00    +0.000 A 
ATOM     13  C   UNL     1      90.177  71.027  85.328  0.00  0.00    +0.000 A 
ATOM     14  C   UNL     1      90.444  71.146  83.963  0.00  0.00    +0.000 A 
ATOM     15  C   UNL     1      90.245  70.055  83.117  0.00  0.00    +0.000 A 
ATOM     16  C   UNL     1      89.777  68.844  83.630  0.00  0.00    +0.000 A 
ATOM     17  C   UNL     1      89.504  68.722  84.993  0.00  0.00    +0.000 A 
ENDBRANCH  11  12
ENDBRANCH  10  11
ENDBRANCH   2  10
TORSDOF 4
ENDMDL
