MODEL 1
REMARK VINA RESULT:      -4.4      0.000      0.000
REMARK  Name = *****
REMARK  4 active torsions:
REMARK  status: ('A' for Active; 'I' for Inactive)
REMARK    1  A    between atoms: C_1  and  C_2
REMARK    2  A    between atoms: C_2  and  C_3
REMARK    3  A    between atoms: C_2  and  N_9
REMARK    4  A    between atoms: C_10  and  C_11
REMARK                            x       y       z     vdW  Elec       q    Type
REMARK                         _______ _______ _______ _____ _____    ______ ____
ROOT
ATOM      1  C   UNL     1     103.702 128.543  82.531  0.00  0.00    +0.000 C 
ATOM      2  C   UNL     1     102.723 127.465  82.999  0.00  0.00    +0.000 C 
ENDROOT
BRANCH   2   3
ATOM      3  C   UNL     1     101.229 127.791  82.739  0.00  0.00    +0.000 C 
ATOM      4  C   UNL     1     100.637 128.817  83.723  0.00  0.00    +0.000 C 
ATOM      5  C   UNL     1      99.179 129.133  83.390  0.00  0.00    +0.000 C 
ATOM      6  C   UNL     1      98.325 127.871  83.345  0.00  0.00    +0.000 C 
ATOM      7  C   UNL     1      98.906 126.834  82.387  0.00  0.00    +0.000 C 
ATOM      8  C   UNL     1     100.364 126.518  82.717  0.00  0.00    +0.000 C 
ENDBRANCH   2   3
BRANCH   2   9
ATOM      9  N   UNL     1     103.078 126.223  82.290  0.00  0.00    +0.000 NA
ATOM     10  C   UNL     1     103.765 126.389  81.214  0.00  0.00    +0.000 C 
BRANCH  10  11
ATOM     11  C   UNL     1     104.198 125.196  80.396  0.00  0.00    +0.000 C 
ATOM     12  C   UNL     1     104.308 123.972  81.307  0.00  0.00    +0.000 C 
ATOM     13  C   UNL     1     104.850 122.759  80.555  0.00  0.00    +0.000 C 
ATOM     14  C   UNL     1     106.179 123.069  79.872  0.00  0.00    +0.000 C 
ATOM     15  C   UNL     1     106.075 124.292  78.965  0.00  0.00    +0.000 C 
ATOM     16  C   UNL     1     105.534 125.506  79.716  0.00  0.00    +0.000 C 
ENDBRANCH  10  11
ENDBRANCH   2   9
TORSDOF 3
ENDMDL
