MODEL 1
REMARK VINA RESULT:      -5.1      0.000      0.000
REMARK  Name = *****
REMARK  5 active torsions:
REMARK  status: ('A' for Active; 'I' for Inactive)
REMARK    1  A    between atoms: C_1  and  C_2
REMARK    2  A    between atoms: C_4  and  C_19
REMARK    3  A    between atoms: C_5  and  C_9
REMARK    4  A    between atoms: C_6  and  C_8
REMARK    5  A    between atoms: C_9  and  N_10
REMARK                            x       y       z     vdW  Elec       q    Type
REMARK                         _______ _______ _______ _____ _____    ______ ____
ROOT
ATOM      1  C   UNL     1      87.866  70.575  87.867  0.00  0.00    +0.000 C 
ENDROOT
BRANCH   1   6
ATOM      2  C   UNL     1      82.992  73.239  86.011  0.00  0.00    +0.000 C 
ATOM      3  C   UNL     1      84.220  72.521  86.484  0.00  0.00    +0.000 A 
ATOM      4  C   UNL     1      85.160  72.046  85.570  0.00  0.00    +0.000 A 
ATOM      5  C   UNL     1      86.336  71.401  85.994  0.00  0.00    +0.000 A 
ATOM      6  C   UNL     1      86.595  71.249  87.380  0.00  0.00    +0.000 A 
ATOM      7  C   UNL     1      85.645  71.748  88.310  0.00  0.00    +0.000 A 
ATOM      8  C   UNL     1      84.476  72.377  87.848  0.00  0.00    +0.000 A 
ATOM      9  C   UNL     1      85.837  71.631  89.801  0.00  0.00    +0.000 C 
ATOM     10  C   UNL     1      87.296  70.935  84.931  0.00  0.00    +0.000 C 
ENDBRANCH   1   6
BRANCH   1  11
ATOM     11  N   UNL     1      87.788  69.124  87.847  0.00  0.00    +0.000 N 
ATOM     12  C   UNL     1      88.601  68.240  87.179  0.00  0.00    +0.000 A 
ATOM     13  C   UNL     1      89.757  68.370  86.399  0.00  0.00    +0.000 A 
ATOM     14  C   UNL     1      90.315  67.189  85.893  0.00  0.00    +0.000 A 
ATOM     15  C   UNL     1      89.740  65.943  86.152  0.00  0.00    +0.000 A 
ATOM     16  C   UNL     1      88.577  65.838  86.926  0.00  0.00    +0.000 A 
ATOM     17  C   UNL     1      88.005  67.011  87.441  0.00  0.00    +0.000 A 
ATOM     18  N   UNL     1      86.880  67.192  88.196  0.00  0.00    +0.000 NA
ATOM     19  N   UNL     1      86.738  68.493  88.416  0.00  0.00    +0.000 NA
ENDBRANCH   1  11
TORSDOF 2
ENDMDL
