MODEL 1
REMARK VINA RESULT:      -4.4      0.000      0.000
REMARK  Name = *****
REMARK  3 active torsions:
REMARK  status: ('A' for Active; 'I' for Inactive)
REMARK    1  A    between atoms: C_4  and  C_8
REMARK    2  A    between atoms: C_8  and  O_9
REMARK    3  A    between atoms: O_9  and  C_10
REMARK                            x       y       z     vdW  Elec       q    Type
REMARK                         _______ _______ _______ _____ _____    ______ ____
ROOT
ATOM      1  C   UNL     1     102.923 126.300  81.486  0.00  0.00    +0.000 C 
ENDROOT
BRANCH   1   5
ATOM      2  C   UNL     1     105.643 124.689  81.864  0.00  0.00    +0.000 C 
ATOM      3  C   UNL     1     105.894 124.634  80.355  0.00  0.00    +0.000 C 
ATOM      4  C   UNL     1     104.725 125.498  79.829  0.00  0.00    +0.000 C 
ATOM      5  C   UNL     1     103.546 125.097  80.776  0.00  0.00    +0.000 C 
ATOM      6  C   UNL     1     104.230 124.107  81.753  0.00  0.00    +0.000 C 
ATOM      7  C   UNL     1     104.563 122.860  80.962  0.00  0.00    +0.000 C 
ATOM      8  C   UNL     1     105.554 123.180  80.116  0.00  0.00    +0.000 C 
ENDBRANCH   1   5
BRANCH   1   9
ATOM      9  O   UNL     1     101.762 125.851  82.186  0.00  0.00    +0.000 OA
BRANCH   9  10
ATOM     10  C   UNL     1     100.846 126.800  82.548  0.00  0.00    +0.000 A 
ATOM     11  C   UNL     1      99.472 126.751  82.310  0.00  0.00    +0.000 A 
ATOM     12  C   UNL     1      98.647 127.796  82.739  0.00  0.00    +0.000 A 
ATOM     13  C   UNL     1      99.191 128.894  83.404  0.00  0.00    +0.000 A 
ATOM     14  C   UNL     1     100.561 128.948  83.643  0.00  0.00    +0.000 A 
ATOM     15  C   UNL     1     101.383 127.904  83.216  0.00  0.00    +0.000 A 
ENDBRANCH   9  10
ENDBRANCH   1   9
TORSDOF 3
ENDMDL
