MODEL 1
REMARK VINA RESULT:      -4.4      0.000      0.000
REMARK  Name = *****
REMARK  4 active torsions:
REMARK  status: ('A' for Active; 'I' for Inactive)
REMARK    1  A    between atoms: C_4  and  C_7
REMARK    2  A    between atoms: C_7  and  O_8
REMARK    3  A    between atoms: O_8  and  C_9
REMARK    4  A    between atoms: C_9  and  C_11
REMARK                            x       y       z     vdW  Elec       q    Type
REMARK                         _______ _______ _______ _____ _____    ______ ____
ROOT
ATOM      1  C   UNL     1     104.866 124.335  80.427  0.00  0.00    +0.000 C 
ATOM      2  O   UNL     1     105.938 124.766  80.042  0.00  0.00    +0.000 OA
ENDROOT
BRANCH   1   3
ATOM      3  C   UNL     1     104.728 123.168  81.310  0.00  0.00    +0.000 A 
ATOM      4  C   UNL     1     104.703 123.285  82.704  0.00  0.00    +0.000 A 
ATOM      5  C   UNL     1     104.568 122.137  83.490  0.00  0.00    +0.000 A 
ATOM      6  C   UNL     1     104.456 120.887  82.881  0.00  0.00    +0.000 A 
ATOM      7  C   UNL     1     104.467 120.769  81.492  0.00  0.00    +0.000 A 
ATOM      8  C   UNL     1     104.597 121.913  80.701  0.00  0.00    +0.000 A 
ATOM      9 CL   UNL     1     104.293 119.476  83.853  0.00  0.00    +0.000 Cl
ATOM     10 CL   UNL     1     104.786 124.810  83.510  0.00  0.00    +0.000 Cl
ENDBRANCH   1   3
BRANCH   1  11
ATOM     11  O   UNL     1     103.643 124.873  80.237  0.00  0.00    +0.000 OA
BRANCH  11  12
ATOM     12  C   UNL     1     103.626 126.303  80.214  0.00  0.00    +0.000 C 
BRANCH  12  16
ATOM     13  C   UNL     1     101.497 127.674  83.704  0.00  0.00    +0.000 A 
ATOM     14  C   UNL     1     101.129 126.480  83.087  0.00  0.00    +0.000 A 
ATOM     15  C   UNL     1     101.820 126.033  81.960  0.00  0.00    +0.000 A 
ATOM     16  C   UNL     1     102.892 126.774  81.443  0.00  0.00    +0.000 A 
ATOM     17  C   UNL     1     103.246 127.980  82.065  0.00  0.00    +0.000 A 
ATOM     18  C   UNL     1     102.554 128.425  83.192  0.00  0.00    +0.000 A 
ENDBRANCH  12  16
ENDBRANCH  11  12
ENDBRANCH   1  11
TORSDOF 4
ENDMDL
