MODEL 1
REMARK VINA RESULT:      -4.2      0.000      0.000
REMARK  Name = *****
REMARK  3 active torsions:
REMARK  status: ('A' for Active; 'I' for Inactive)
REMARK    1  A    between atoms: C_6  and  O_7
REMARK    2  A    between atoms: O_7  and  C_8
REMARK    3  A    between atoms: C_8  and  C_10
REMARK                            x       y       z     vdW  Elec       q    Type
REMARK                         _______ _______ _______ _____ _____    ______ ____
ROOT
ATOM      1  O   UNL     1     103.417 127.021  82.999  0.00  0.00    +0.000 OA
ENDROOT
BRANCH   1   7
ATOM      2  C   UNL     1     103.880 126.944  80.604  0.00  0.00    +0.000 C 
ATOM      3  C   UNL     1     103.499 125.494  80.305  0.00  0.00    +0.000 C 
ATOM      4  C   UNL     1     104.709 124.567  80.424  0.00  0.00    +0.000 C 
ATOM      5  C   UNL     1     105.541 124.855  81.637  0.00  0.00    +0.000 C 
ATOM      6  C   UNL     1     105.420 125.978  82.362  0.00  0.00    +0.000 C 
ATOM      7  C   UNL     1     104.465 127.092  82.020  0.00  0.00    +0.000 C 
ATOM      8  F   UNL     1     104.259 123.283  80.464  0.00  0.00    +0.000 F 
ENDBRANCH   1   7
BRANCH   1   9
ATOM      9  C   UNL     1     102.773 128.185  83.259  0.00  0.00    +0.000 C 
ATOM     10  O   UNL     1     103.301 129.238  83.577  0.00  0.00    +0.000 OA
BRANCH   9  11
ATOM     11  C   UNL     1     101.303 128.012  83.104  0.00  0.00    +0.000 A 
ATOM     12  C   UNL     1     100.464 129.033  83.572  0.00  0.00    +0.000 A 
ATOM     13  C   UNL     1      99.078 128.918  83.448  0.00  0.00    +0.000 A 
ATOM     14  C   UNL     1      98.522 127.786  82.855  0.00  0.00    +0.000 A 
ATOM     15  C   UNL     1      99.350 126.766  82.385  0.00  0.00    +0.000 A 
ATOM     16  C   UNL     1     100.737 126.877  82.508  0.00  0.00    +0.000 A 
ENDBRANCH   9  11
ENDBRANCH   1   9
TORSDOF 3
ENDMDL
