MODEL 1
REMARK VINA RESULT:      -4.5      0.000      0.000
REMARK  Name = *****
REMARK  3 active torsions:
REMARK  status: ('A' for Active; 'I' for Inactive)
REMARK    1  A    between atoms: C_6  and  O_7
REMARK    2  A    between atoms: O_7  and  C_8
REMARK    3  A    between atoms: C_8  and  C_10
REMARK                            x       y       z     vdW  Elec       q    Type
REMARK                         _______ _______ _______ _____ _____    ______ ____
ROOT
ATOM      1  O   UNL     1     101.575 126.686  83.126  0.00  0.00    +0.000 OA
ENDROOT
BRANCH   1   7
ATOM      2  C   UNL     1     103.162 125.045  82.409  0.00  0.00    +0.000 C 
ATOM      3  C   UNL     1     103.990 124.493  81.252  0.00  0.00    +0.000 C 
ATOM      4  C   UNL     1     104.754 125.608  80.539  0.00  0.00    +0.000 C 
ATOM      5  C   UNL     1     103.818 126.724  80.073  0.00  0.00    +0.000 C 
ATOM      6  C   UNL     1     102.990 127.269  81.234  0.00  0.00    +0.000 C 
ATOM      7  C   UNL     1     102.214 126.158  81.949  0.00  0.00    +0.000 C 
ATOM      8 CL   UNL     1     105.643 124.937  79.143  0.00  0.00    +0.000 Cl
ENDBRANCH   1   7
BRANCH   1   9
ATOM      9  C   UNL     1     100.384 127.306  82.928  0.00  0.00    +0.000 C 
ATOM     10  O   UNL     1      99.409 126.821  82.375  0.00  0.00    +0.000 OA
BRANCH   9  11
ATOM     11  C   UNL     1     100.416 128.688  83.478  0.00  0.00    +0.000 A 
ATOM     12  C   UNL     1     101.582 129.113  84.131  0.00  0.00    +0.000 A 
ATOM     13  C   UNL     1     101.662 130.402  84.663  0.00  0.00    +0.000 A 
ATOM     14  C   UNL     1     100.580 131.273  84.545  0.00  0.00    +0.000 A 
ATOM     15  C   UNL     1      99.417 130.859  83.897  0.00  0.00    +0.000 A 
ATOM     16  C   UNL     1      99.332 129.571  83.363  0.00  0.00    +0.000 A 
ENDBRANCH   9  11
ENDBRANCH   1   9
TORSDOF 3
ENDMDL
