REMARK  Name = *****
REMARK  5 active torsions:
REMARK  status: ('A' for Active; 'I' for Inactive)
REMARK    1  A    between atoms: C_1  and  C_2
REMARK    2  A    between atoms: C_8  and  C_9
REMARK    3  A    between atoms: C_8  and  C_10
REMARK    4  A    between atoms: C_10  and  S_11
REMARK    5  A    between atoms: S_11  and  C_12
REMARK                            x       y       z     vdW  Elec       q    Type
REMARK                         _______ _______ _______ _____ _____    ______ ____
ROOT
ATOM      1  C   UNL     1       0.912  -0.138  -0.022  0.00  0.00    +0.000 C 
ATOM      2  C   UNL     1       2.443   0.015  -0.081  0.00  0.00    +0.000 C 
ATOM      3  C   UNL     1       2.826   1.028  -1.177  0.00  0.00    +0.000 C 
ATOM      4  C   UNL     1       2.562   0.488  -2.578  0.00  0.00    +0.000 C 
ATOM      5  C   UNL     1       3.263  -0.836  -2.821  0.00  0.00    +0.000 C 
ATOM      6  C   UNL     1       3.004  -1.831  -1.705  0.00  0.00    +0.000 C 
ATOM      7  O   UNL     1       2.768  -3.010  -1.977  0.00  0.00    +0.000 OA
ATOM      8  C   UNL     1       3.196  -1.346  -0.254  0.00  0.00    +0.000 C 
ATOM      9  C   UNL     1       2.635  -2.418   0.708  0.00  0.00    +0.000 C 
ENDROOT
BRANCH   8  10
ATOM     10  C   UNL     1       4.735  -1.233  -0.051  0.00  0.00    +0.000 C 
BRANCH  10  11
ATOM     11  S   UNL     1       5.257  -0.657   1.610  0.00  0.00    +0.000 S 
BRANCH  11  12
ATOM     12  C   UNL     1       7.001  -1.023   1.540  0.00  0.00    +0.000 A 
ATOM     13  C   UNL     1       7.823  -0.515   0.529  0.00  0.00    +0.000 A 
ATOM     14  C   UNL     1       9.188  -0.815   0.512  0.00  0.00    +0.000 A 
ATOM     15  C   UNL     1       9.740  -1.616   1.510  0.00  0.00    +0.000 A 
ATOM     16  C   UNL     1       8.930  -2.113   2.529  0.00  0.00    +0.000 A 
ATOM     17  C   UNL     1       7.566  -1.813   2.546  0.00  0.00    +0.000 A 
ENDBRANCH  11  12
ENDBRANCH  10  11
ENDBRANCH   8  10
TORSDOF 3
