MODEL 1
REMARK VINA RESULT:      -4.3      0.000      0.000
REMARK  Name = *****
REMARK  3 active torsions:
REMARK  status: ('A' for Active; 'I' for Inactive)
REMARK    1  A    between atoms: C_4  and  S_7
REMARK    2  A    between atoms: S_7  and  C_8
REMARK    3  A    between atoms: C_8  and  C_10
REMARK                            x       y       z     vdW  Elec       q    Type
REMARK                         _______ _______ _______ _____ _____    ______ ____
ROOT
ATOM      1  C   UNL     1     103.180 125.283  83.702  0.00  0.00    +0.000 C 
ATOM      2  O   UNL     1     102.789 124.704  84.708  0.00  0.00    +0.000 OA
ENDROOT
BRANCH   1   3
ATOM      3  C   UNL     1     103.807 124.513  82.583  0.00  0.00    +0.000 A 
ATOM      4  C   UNL     1     104.347 123.228  82.727  0.00  0.00    +0.000 A 
ATOM      5  C   UNL     1     104.917 122.584  81.626  0.00  0.00    +0.000 A 
ATOM      6  C   UNL     1     104.959 123.203  80.377  0.00  0.00    +0.000 A 
ATOM      7  C   UNL     1     104.426 124.480  80.225  0.00  0.00    +0.000 A 
ATOM      8  C   UNL     1     103.853 125.130  81.321  0.00  0.00    +0.000 A 
ATOM      9 BR   UNL     1     105.644 120.849  81.830  0.00  0.00    +0.000 Br
ENDBRANCH   1   3
BRANCH   1  10
ATOM     10  S   UNL     1     103.030 127.030  83.539  0.00  0.00    +0.000 S 
BRANCH  10  14
ATOM     11  C   UNL     1      98.676 128.318  82.611  0.00  0.00    +0.000 C 
ATOM     12  C   UNL     1      99.010 126.835  82.493  0.00  0.00    +0.000 C 
ATOM     13  C   UNL     1     100.520 126.597  82.449  0.00  0.00    +0.000 C 
ATOM     14  C   UNL     1     101.217 127.226  83.663  0.00  0.00    +0.000 C 
ATOM     15  C   UNL     1     100.890 128.723  83.759  0.00  0.00    +0.000 C 
ATOM     16  C   UNL     1      99.380 128.959  83.804  0.00  0.00    +0.000 C 
ENDBRANCH  10  14
ENDBRANCH   1  10
TORSDOF 3
ENDMDL
