REMARK  Name = *****
REMARK  5 active torsions:
REMARK  status: ('A' for Active; 'I' for Inactive)
REMARK    1  A    between atoms: C_1  and  C_2
REMARK    2  A    between atoms: C_2  and  C_4
REMARK    3  A    between atoms: C_5  and  S_10
REMARK    4  A    between atoms: S_10  and  C_11
REMARK    5  A    between atoms: C_11  and  C_12
REMARK                            x       y       z     vdW  Elec       q    Type
REMARK                         _______ _______ _______ _____ _____    ______ ____
ROOT
ATOM      1  C   UNL     1       3.417  -2.450  -0.851  0.00  0.00    +0.000 A 
ATOM      2  C   UNL     1       4.395  -1.567  -0.404  0.00  0.00    +0.000 A 
ATOM      3  S   UNL     1       4.807  -0.393  -1.598  0.00  0.00    +0.000 S 
ATOM      4  C   UNL     1       3.668  -1.002  -2.675  0.00  0.00    +0.000 A 
ATOM      5  C   UNL     1       2.987  -2.080  -2.184  0.00  0.00    +0.000 A 
ATOM      6 CL   UNL     1       3.463  -0.270  -4.213  0.00  0.00    +0.000 Cl
ENDROOT
BRANCH   1   8
ATOM      7  C   UNL     1       3.459  -4.213   1.064  0.00  0.00    +0.000 C 
ATOM      8  C   UNL     1       2.820  -3.601  -0.153  0.00  0.00    +0.000 C 
ATOM      9  O   UNL     1       1.771  -4.091  -0.580  0.00  0.00    +0.000 OA
ENDBRANCH   1   8
BRANCH   2  10
ATOM     10  S   UNL     1       5.222  -1.508   1.151  0.00  0.00    +0.000 S 
BRANCH  10  11
ATOM     11  C   UNL     1       4.372  -0.090   1.915  0.00  0.00    +0.000 C 
BRANCH  11  12
ATOM     12  C   UNL     1       4.754   0.062   3.365  0.00  0.00    +0.000 A 
ATOM     13  C   UNL     1       5.882   0.812   3.729  0.00  0.00    +0.000 A 
ATOM     14  C   UNL     1       6.243   0.941   5.071  0.00  0.00    +0.000 A 
ATOM     15  C   UNL     1       5.484   0.320   6.061  0.00  0.00    +0.000 A 
ATOM     16  C   UNL     1       4.366  -0.434   5.711  0.00  0.00    +0.000 A 
ATOM     17  C   UNL     1       4.003  -0.565   4.370  0.00  0.00    +0.000 A 
ENDBRANCH  11  12
ENDBRANCH  10  11
ENDBRANCH   2  10
TORSDOF 4
