MODEL 1
REMARK VINA RESULT:      -4.4      0.000      0.000
REMARK  Name = *****
REMARK  1 active torsions:
REMARK  status: ('A' for Active; 'I' for Inactive)
REMARK    1  A    between atoms: C_5  and  C_6
REMARK                            x       y       z     vdW  Elec       q    Type
REMARK                         _______ _______ _______ _____ _____    ______ ____
ROOT
ATOM      1  C   UNL     1      99.145 129.813  84.248  0.00  0.00    +0.000 C 
ATOM      2  C   UNL     1      99.236 128.892  83.032  0.00  0.00    +0.000 C 
ATOM      3  C   UNL     1     100.321 127.826  83.203  0.00  0.00    +0.000 C 
ATOM      4  C   UNL     1     101.651 128.461  83.542  0.00  0.00    +0.000 C 
ATOM      5  C   UNL     1     102.813 128.304  82.877  0.00  0.00    +0.000 C 
ATOM      6  C   UNL     1     101.582 129.366  84.757  0.00  0.00    +0.000 C 
ATOM      7  C   UNL     1     100.501 130.433  84.584  0.00  0.00    +0.000 C 
ENDROOT
BRANCH   5   8
ATOM      8  C   UNL     1     103.040 127.476  81.713  0.00  0.00    +0.000 C 
ATOM      9  C   UNL     1     103.122 126.132  81.680  0.00  0.00    +0.000 C 
ATOM     10  C   UNL     1     103.019 125.190  82.861  0.00  0.00    +0.000 C 
ATOM     11  C   UNL     1     104.251 124.285  82.945  0.00  0.00    +0.000 C 
ATOM     12  C   UNL     1     104.504 123.544  81.632  0.00  0.00    +0.000 C 
ATOM     13  C   UNL     1     104.590 124.510  80.452  0.00  0.00    +0.000 C 
ATOM     14  C   UNL     1     103.358 125.411  80.368  0.00  0.00    +0.000 C 
ENDBRANCH   5   8
TORSDOF 1
ENDMDL
