MODEL 1
REMARK VINA RESULT:      -3.6      0.000      0.000
REMARK  Name = *****
REMARK  2 active torsions:
REMARK  status: ('A' for Active; 'I' for Inactive)
REMARK    1  A    between atoms: C_4  and  P_7
REMARK    2  A    between atoms: P_7  and  C_8
REMARK                            x       y       z     vdW  Elec       q    Type
REMARK                         _______ _______ _______ _____ _____    ______ ____
ROOT
ATOM      1  P   UNL     1      95.586 116.737  82.130  0.00  0.00    +0.000 P 
ENDROOT
BRANCH   1   5
ATOM      2  C   UNL     1      97.155 116.592  77.688  0.00  0.00    +0.000 C 
ATOM      3  C   UNL     1      97.419 115.388  78.588  0.00  0.00    +0.000 C 
ATOM      4  C   UNL     1      97.201 115.726  80.062  0.00  0.00    +0.000 C 
ATOM      5  C   UNL     1      95.791 116.298  80.306  0.00  0.00    +0.000 C 
ATOM      6  C   UNL     1      95.556 117.523  79.409  0.00  0.00    +0.000 C 
ATOM      7  C   UNL     1      95.770 117.182  77.934  0.00  0.00    +0.000 C 
ENDBRANCH   1   5
BRANCH   1   8
ATOM      8  C   UNL     1      96.496 118.224  82.331  0.00  0.00    +0.000 C 
ATOM      9  C   UNL     1      98.011 118.420  82.280  0.00  0.00    +0.000 C 
ATOM     10  C   UNL     1      98.349 119.440  81.197  0.00  0.00    +0.000 C 
ATOM     11  C   UNL     1      97.614 120.762  81.416  0.00  0.00    +0.000 C 
ATOM     12  C   UNL     1      96.103 120.555  81.517  0.00  0.00    +0.000 C 
ATOM     13  C   UNL     1      95.746 119.542  82.600  0.00  0.00    +0.000 C 
ENDBRANCH   1   8
TORSDOF 2
ENDMDL
