MODEL 1
REMARK VINA RESULT:      -5.5      0.000      0.000
REMARK  Name = *****
REMARK  3 active torsions:
REMARK  status: ('A' for Active; 'I' for Inactive)
REMARK    1  A    between atoms: C_4  and  C_7
REMARK    2  A    between atoms: C_7  and  C_10
REMARK    3  A    between atoms: C_10  and  C_13
REMARK                            x       y       z     vdW  Elec       q    Type
REMARK                         _______ _______ _______ _____ _____    ______ ____
ROOT
ATOM      1  C   UNL     1     100.400 127.484  83.089  0.00  0.00    +0.000 C 
ATOM      2  C   UNL     1      99.293 127.068  82.529  0.00  0.00    +0.000 C 
ATOM      3  O   UNL     1      98.298 126.700  82.022  0.00  0.00    +0.000 OA
ENDROOT
BRANCH   1   7
ATOM      4  C   UNL     1     100.660 131.520  84.563  0.00  0.00    +0.000 A 
ATOM      5  C   UNL     1      99.486 131.077  83.960  0.00  0.00    +0.000 A 
ATOM      6  C   UNL     1      99.397 129.769  83.477  0.00  0.00    +0.000 A 
ATOM      7  C   UNL     1     100.483 128.884  83.587  0.00  0.00    +0.000 A 
ATOM      8  C   UNL     1     101.658 129.347  84.204  0.00  0.00    +0.000 A 
ATOM      9  C   UNL     1     101.745 130.656  84.686  0.00  0.00    +0.000 A 
ENDBRANCH   1   7
BRANCH   1  10
ATOM     10  C   UNL     1     101.521 126.535  83.156  0.00  0.00    +0.000 C 
ATOM     11  C   UNL     1     101.646 125.830  84.249  0.00  0.00    +0.000 C 
ATOM     12  O   UNL     1     101.766 125.198  85.234  0.00  0.00    +0.000 OA
BRANCH  10  13
ATOM     13  C   UNL     1     102.521 126.373  82.066  0.00  0.00    +0.000 A 
ATOM     14  C   UNL     1     103.101 125.117  81.816  0.00  0.00    +0.000 A 
ATOM     15  C   UNL     1     104.049 124.954  80.803  0.00  0.00    +0.000 A 
ATOM     16  C   UNL     1     104.438 126.044  80.027  0.00  0.00    +0.000 A 
ATOM     17  C   UNL     1     103.878 127.296  80.264  0.00  0.00    +0.000 A 
ATOM     18  C   UNL     1     102.929 127.462  81.276  0.00  0.00    +0.000 A 
ENDBRANCH  10  13
ENDBRANCH   1  10
TORSDOF 3
ENDMDL
