MODEL 1
REMARK VINA RESULT:      -4.2      0.000      0.000
REMARK  Name = *****
REMARK  5 active torsions:
REMARK  status: ('A' for Active; 'I' for Inactive)
REMARK    1  A    between atoms: C_1  and  C_2
REMARK    2  A    between atoms: C_5  and  C_8
REMARK    3  A    between atoms: C_8  and  S_10
REMARK    4  A    between atoms: S_10  and  C_11
REMARK    5  A    between atoms: C_16  and  C_17
REMARK                            x       y       z     vdW  Elec       q    Type
REMARK                         _______ _______ _______ _____ _____    ______ ____
ROOT
ATOM      1  C   UNL     1      89.632  68.134  86.115  0.00  0.00    +0.000 C 
ATOM      2  O   UNL     1      90.540  67.375  86.435  0.00  0.00    +0.000 OA
ENDROOT
BRANCH   1   7
ATOM      3  C   UNL     1      86.611  71.019  90.166  0.00  0.00    +0.000 C 
ATOM      4  C   UNL     1      87.413  70.292  89.127  0.00  0.00    +0.000 A 
ATOM      5  C   UNL     1      88.631  70.806  88.669  0.00  0.00    +0.000 A 
ATOM      6  C   UNL     1      89.371  70.125  87.695  0.00  0.00    +0.000 A 
ATOM      7  C   UNL     1      88.901  68.918  87.158  0.00  0.00    +0.000 A 
ATOM      8  C   UNL     1      87.684  68.401  87.629  0.00  0.00    +0.000 A 
ATOM      9  C   UNL     1      86.947  69.083  88.601  0.00  0.00    +0.000 A 
ENDBRANCH   1   7
BRANCH   1  10
ATOM     10  S   UNL     1      89.108  68.306  84.441  0.00  0.00    +0.000 S 
BRANCH  10  11
ATOM     11  C   UNL     1      89.301  70.059  84.130  0.00  0.00    +0.000 A 
ATOM     12  C   UNL     1      90.578  70.567  83.841  0.00  0.00    +0.000 A 
ATOM     13  C   UNL     1      90.779  71.935  83.651  0.00  0.00    +0.000 A 
ATOM     14  C   UNL     1      89.708  72.814  83.761  0.00  0.00    +0.000 A 
ATOM     15  C   UNL     1      88.436  72.327  84.058  0.00  0.00    +0.000 A 
ATOM     16  C   UNL     1      88.215  70.951  84.249  0.00  0.00    +0.000 A 
ATOM     17  C   UNL     1      86.822  70.484  84.572  0.00  0.00    +0.000 C 
ENDBRANCH  10  11
ENDBRANCH   1  10
TORSDOF 3
ENDMDL
