MODEL 1
REMARK VINA RESULT:      -4.2      0.000      0.000
REMARK  Name = *****
REMARK  2 active torsions:
REMARK  status: ('A' for Active; 'I' for Inactive)
REMARK    1  A    between atoms: C_3  and  C_8
REMARK    2  A    between atoms: N_9  and  C_10
REMARK                            x       y       z     vdW  Elec       q    Type
REMARK                         _______ _______ _______ _____ _____    ______ ____
ROOT
ATOM      1  C   UNL     1      89.665  69.859  85.412  0.00  0.00    +0.000 C 
ATOM      2  N   UNL     1      89.837  68.647  84.978  0.00  0.00    +0.000 NA
ATOM      3 CL   UNL     1      90.588  71.060  84.562  0.00  0.00    +0.000 Cl
ENDROOT
BRANCH   1   6
ATOM      4  C   UNL     1      88.369  70.589  88.888  0.00  0.00    +0.000 A 
ATOM      5  C   UNL     1      89.207  70.171  87.853  0.00  0.00    +0.000 A 
ATOM      6  C   UNL     1      88.782  70.290  86.525  0.00  0.00    +0.000 A 
ATOM      7  C   UNL     1      87.535  70.847  86.225  0.00  0.00    +0.000 A 
ATOM      8  C   UNL     1      86.708  71.262  87.267  0.00  0.00    +0.000 A 
ATOM      9  C   UNL     1      87.118  71.133  88.595  0.00  0.00    +0.000 A 
ATOM     10 CL   UNL     1      85.167  71.937  86.913  0.00  0.00    +0.000 Cl
ENDBRANCH   1   6
BRANCH   2  11
ATOM     11  C   UNL     1      89.116  67.571  85.507  0.00  0.00    +0.000 A 
ATOM     12  C   UNL     1      87.828  67.262  85.052  0.00  0.00    +0.000 A 
ATOM     13  C   UNL     1      87.136  66.170  85.580  0.00  0.00    +0.000 A 
ATOM     14  C   UNL     1      87.744  65.378  86.548  0.00  0.00    +0.000 A 
ATOM     15  C   UNL     1      89.034  65.652  86.990  0.00  0.00    +0.000 A 
ATOM     16  C   UNL     1      89.722  66.745  86.460  0.00  0.00    +0.000 A 
ATOM     17  F   UNL     1      87.082  64.331  87.054  0.00  0.00    +0.000 F 
ENDBRANCH   2  11
TORSDOF 2
ENDMDL
