MODEL 1
REMARK VINA RESULT:      -4.7      0.000      0.000
REMARK  Name = *****
REMARK  2 active torsions:
REMARK  status: ('A' for Active; 'I' for Inactive)
REMARK    1  A    between atoms: N_4  and  S_7
REMARK    2  A    between atoms: S_7  and  C_8
REMARK                            x       y       z     vdW  Elec       q    Type
REMARK                         _______ _______ _______ _____ _____    ______ ____
ROOT
ATOM      1  C   UNL     1     102.418 127.359  82.309  0.00  0.00    +0.000 C 
ATOM      2  C   UNL     1     103.087 128.410  82.846  0.00  0.00    +0.000 C 
ATOM      3  C   UNL     1     104.382 129.008  82.480  0.00  0.00    +0.000 C 
ATOM      4  C   UNL     1     105.232 128.703  81.475  0.00  0.00    +0.000 C 
ATOM      5  C   UNL     1     104.980 127.651  80.509  0.00  0.00    +0.000 C 
ATOM      6  C   UNL     1     105.837 126.622  80.331  0.00  0.00    +0.000 C 
ATOM      7  C   UNL     1     105.378 125.314  79.855  0.00  0.00    +0.000 C 
ATOM      8  C   UNL     1     104.223 124.721  80.241  0.00  0.00    +0.000 C 
ATOM      9  C   UNL     1     103.263 125.303  81.183  0.00  0.00    +0.000 C 
ATOM     10  C   UNL     1     102.946 126.619  81.167  0.00  0.00    +0.000 C 
ATOM     11  C   UNL     1     103.537 127.504  80.105  0.00  0.00    +0.000 C 
ENDROOT
BRANCH   1  12
ATOM     12  S   UNL     1     100.885 126.823  82.967  0.00  0.00    +0.000 S 
BRANCH  12  16
ATOM     13  C   UNL     1      99.102 130.364  85.308  0.00  0.00    +0.000 C 
ATOM     14  C   UNL     1      99.310 130.443  83.802  0.00  0.00    +0.000 C 
ATOM     15  C   UNL     1      99.363 129.051  83.173  0.00  0.00    +0.000 C 
ATOM     16  N   UNL     1     100.403 128.205  83.788  0.00  0.00    +0.000 NA
ATOM     17  C   UNL     1     100.178 128.086  85.240  0.00  0.00    +0.000 C 
ATOM     18  C   UNL     1     100.145 129.449  85.932  0.00  0.00    +0.000 C 
ENDBRANCH  12  16
ENDBRANCH   1  12
TORSDOF 2
ENDMDL
