REMARK  Name = *****
REMARK  4 active torsions:
REMARK  status: ('A' for Active; 'I' for Inactive)
REMARK    1  A    between atoms: C_1  and  C_2
REMARK    2  A    between atoms: C_2  and  C_16
REMARK    3  A    between atoms: C_6  and  C_8
REMARK    4  A    between atoms: C_9  and  C_10
REMARK                            x       y       z     vdW  Elec       q    Type
REMARK                         _______ _______ _______ _____ _____    ______ ____
ROOT
ATOM      1  C   UNL     1       1.252   0.678   0.304  0.00  0.00    +0.000 C 
ATOM      2  C   UNL     1       2.724   0.251   0.203  0.00  0.00    +0.000 C 
ATOM      3  C   UNL     1       3.492   1.065  -0.854  0.00  0.00    +0.000 C 
ATOM      4  C   UNL     1       3.044   0.880  -2.296  0.00  0.00    +0.000 C 
ATOM      5  S   UNL     1       3.412  -0.776  -2.926  0.00  0.00    +0.000 S 
ATOM      6  C   UNL     1       2.409  -1.779  -1.813  0.00  0.00    +0.000 C 
ATOM      7  S   UNL     1       2.867  -1.565  -0.066  0.00  0.00    +0.000 S 
ATOM      8  C   UNL     1       3.379   0.512   1.577  0.00  0.00    +0.000 C 
ENDROOT
BRANCH   6   9
ATOM      9  C   UNL     1       0.917  -1.719  -2.004  0.00  0.00    +0.000 C 
ATOM     10  C   UNL     1       0.222  -1.197  -3.031  0.00  0.00    +0.000 C 
BRANCH  10  11
ATOM     11  C   UNL     1      -1.245  -1.218  -3.119  0.00  0.00    +0.000 A 
ATOM     12  C   UNL     1      -2.065  -0.981  -2.008  0.00  0.00    +0.000 A 
ATOM     13  C   UNL     1      -3.456  -0.976  -2.139  0.00  0.00    +0.000 A 
ATOM     14  C   UNL     1      -4.041  -1.199  -3.384  0.00  0.00    +0.000 A 
ATOM     15  C   UNL     1      -3.236  -1.421  -4.499  0.00  0.00    +0.000 A 
ATOM     16  C   UNL     1      -1.845  -1.424  -4.368  0.00  0.00    +0.000 A 
ENDBRANCH  10  11
ENDBRANCH   6   9
TORSDOF 2
