MODEL 1
REMARK VINA RESULT:      -4.2      0.000      0.000
REMARK  Name = *****
REMARK  4 active torsions:
REMARK  status: ('A' for Active; 'I' for Inactive)
REMARK    1  A    between atoms: C_1  and  C_2
REMARK    2  A    between atoms: C_5  and  S_8
REMARK    3  A    between atoms: S_8  and  O_10
REMARK    4  A    between atoms: O_10  and  C_11
REMARK                            x       y       z     vdW  Elec       q    Type
REMARK                         _______ _______ _______ _____ _____    ______ ____
ROOT
ATOM      1  S   UNL     1     103.091 126.597  81.766  0.00  0.00    +0.000 S 
ATOM      2  O   UNL     1     103.170 127.089  80.350  0.00  0.00    +0.000 OA
ENDROOT
BRANCH   1   7
ATOM      3  C   UNL     1     105.530 120.985  81.656  0.00  0.00    +0.000 C 
ATOM      4  C   UNL     1     104.941 122.366  81.677  0.00  0.00    +0.000 A 
ATOM      5  C   UNL     1     104.846 123.128  80.507  0.00  0.00    +0.000 A 
ATOM      6  C   UNL     1     104.293 124.411  80.541  0.00  0.00    +0.000 A 
ATOM      7  C   UNL     1     103.826 124.945  81.747  0.00  0.00    +0.000 A 
ATOM      8  C   UNL     1     103.923 124.187  82.917  0.00  0.00    +0.000 A 
ATOM      9  C   UNL     1     104.479 122.906  82.884  0.00  0.00    +0.000 A 
ENDBRANCH   1   7
BRANCH   1  10
ATOM     10  O   UNL     1     101.602 126.014  81.982  0.00  0.00    +0.000 OA
BRANCH  10  11
ATOM     11  C   UNL     1     100.816 126.695  82.947  0.00  0.00    +0.000 C 
ATOM     12  C   UNL     1      99.420 127.016  82.424  0.00  0.00    +0.000 C 
ATOM     13  C   UNL     1      98.961 128.206  83.261  0.00  0.00    +0.000 C 
ATOM     14  C   UNL     1     100.233 128.852  83.814  0.00  0.00    +0.000 C 
ATOM     15  C   UNL     1     101.390 128.086  83.189  0.00  0.00    +0.000 C 
ENDBRANCH  10  11
ENDBRANCH   1  10
TORSDOF 3
ENDMDL
