MODEL 1
REMARK VINA RESULT:      -4.5      0.000      0.000
REMARK  Name = *****
REMARK  2 active torsions:
REMARK  status: ('A' for Active; 'I' for Inactive)
REMARK    1  A    between atoms: C_6  and  C_7
REMARK    2  A    between atoms: C_8  and  C_10
REMARK                            x       y       z     vdW  Elec       q    Type
REMARK                         _______ _______ _______ _____ _____    ______ ____
ROOT
ATOM      1  C   UNL     1      87.790  65.514  87.343  0.00  0.00    +0.000 C 
ATOM      2  C   UNL     1      88.312  64.634  88.468  0.00  0.00    +0.000 C 
ATOM      3  O   UNL     1      88.693  64.424  87.099  0.00  0.00    +0.000 OA
ENDROOT
BRANCH   1   9
ATOM      4  C   UNL     1      87.665  68.007  87.789  0.00  0.00    +0.000 A 
ATOM      5  C   UNL     1      88.140  69.312  87.635  0.00  0.00    +0.000 A 
ATOM      6  C   UNL     1      89.277  69.540  86.872  0.00  0.00    +0.000 A 
ATOM      7  C   UNL     1      89.944  68.489  86.259  0.00  0.00    +0.000 A 
ATOM      8  C   UNL     1      89.464  67.187  86.416  0.00  0.00    +0.000 A 
ATOM      9  C   UNL     1      88.318  66.916  87.186  0.00  0.00    +0.000 A 
ATOM     10  F   UNL     1      89.733  70.791  86.723  0.00  0.00    +0.000 F 
ENDBRANCH   1   9
BRANCH   2  11
ATOM     11  C   UNL     1      87.388  63.630  89.108  0.00  0.00    +0.000 A 
ATOM     12  C   UNL     1      87.040  62.430  88.461  0.00  0.00    +0.000 A 
ATOM     13  C   UNL     1      86.183  61.501  89.058  0.00  0.00    +0.000 A 
ATOM     14  C   UNL     1      85.663  61.756  90.322  0.00  0.00    +0.000 A 
ATOM     15  C   UNL     1      85.994  62.931  90.991  0.00  0.00    +0.000 A 
ATOM     16  C   UNL     1      86.850  63.856  90.387  0.00  0.00    +0.000 A 
ATOM     17 CL   UNL     1      84.608  60.618  91.062  0.00  0.00    +0.000 Cl
ENDBRANCH   2  11
TORSDOF 2
ENDMDL
