REMARK  Name = *****
REMARK  3 active torsions:
REMARK  status: ('A' for Active; 'I' for Inactive)
REMARK    1  A    between atoms: C_4  and  S_7
REMARK    2  A    between atoms: S_7  and  O_9
REMARK    3  A    between atoms: O_9  and  C_10
REMARK                            x       y       z     vdW  Elec       q    Type
REMARK                         _______ _______ _______ _____ _____    ______ ____
ROOT
ATOM      1  S   UNL     1      -3.120   0.520  -1.182  0.00  0.00    +0.000 S 
ATOM      2  O   UNL     1      -2.910   0.389  -2.663  0.00  0.00    +0.000 OA
ENDROOT
BRANCH   1   6
ATOM      3  C   UNL     1       0.951  -0.405   0.780  0.00  0.00    +0.000 A 
ATOM      4  C   UNL     1       0.850  -0.340  -0.609  0.00  0.00    +0.000 A 
ATOM      5  C   UNL     1      -0.381  -0.066  -1.208  0.00  0.00    +0.000 A 
ATOM      6  C   UNL     1      -1.520   0.140  -0.421  0.00  0.00    +0.000 A 
ATOM      7  C   UNL     1      -1.409   0.080   0.975  0.00  0.00    +0.000 A 
ATOM      8  C   UNL     1      -0.177  -0.194   1.572  0.00  0.00    +0.000 A 
ENDBRANCH   1   6
BRANCH   1   9
ATOM      9  O   UNL     1      -3.786  -0.856  -0.660  0.00  0.00    +0.000 OA
BRANCH   9  10
ATOM     10  C   UNL     1      -5.157  -0.867  -0.670  0.00  0.00    +0.000 A 
ATOM     11  C   UNL     1      -5.822  -0.914   0.555  0.00  0.00    +0.000 A 
ATOM     12  C   UNL     1      -7.215  -0.968   0.572  0.00  0.00    +0.000 A 
ATOM     13  C   UNL     1      -7.940  -0.993  -0.620  0.00  0.00    +0.000 A 
ATOM     14  C   UNL     1      -7.267  -0.972  -1.843  0.00  0.00    +0.000 A 
ATOM     15  C   UNL     1      -5.873  -0.918  -1.869  0.00  0.00    +0.000 A 
ATOM     16 CL   UNL     1      -8.047  -1.008   2.077  0.00  0.00    +0.000 Cl
ENDBRANCH   9  10
ENDBRANCH   1   9
TORSDOF 3
