MODEL 1
REMARK VINA RESULT:      -3.7      0.000      0.000
REMARK  Name = *****
REMARK  2 active torsions:
REMARK  status: ('A' for Active; 'I' for Inactive)
REMARK    1  A    between atoms: C_5  and  C_6
REMARK    2  A    between atoms: C_7  and  C_8
REMARK                            x       y       z     vdW  Elec       q    Type
REMARK                         _______ _______ _______ _____ _____    ______ ____
ROOT
ATOM      1  C   UNL     1     101.615 126.063  82.176  0.00  0.00    +0.000 C 
ATOM      2  C   UNL     1     102.712 126.406  81.477  0.00  0.00    +0.000 C 
ENDROOT
BRANCH   2   3
ATOM      3  C   UNL     1     103.741 125.480  81.051  0.00  0.00    +0.000 A 
ATOM      4  C   UNL     1     104.421 125.603  79.902  0.00  0.00    +0.000 A 
ATOM      5  C   UNL     1     105.466 124.595  79.627  0.00  0.00    +0.000 A 
ATOM      6  S   UNL     1     106.446 124.587  78.273  0.00  0.00    +0.000 S 
ATOM      7  S   UNL     1     105.558 123.375  80.884  0.00  0.00    +0.000 S 
ATOM      8  S   UNL     1     104.183 124.205  82.142  0.00  0.00    +0.000 S 
ENDBRANCH   2   3
BRANCH   1  13
ATOM      9  C   UNL     1      99.177 126.833  82.396  0.00  0.00    +0.000 A 
ATOM     10  C   UNL     1      98.461 127.867  82.962  0.00  0.00    +0.000 A 
ATOM     11  S   UNL     1      99.475 128.988  83.762  0.00  0.00    +0.000 S 
ATOM     12  C   UNL     1     100.875 128.090  83.352  0.00  0.00    +0.000 A 
ATOM     13  C   UNL     1     100.584 126.957  82.619  0.00  0.00    +0.000 A 
ENDBRANCH   1  13
TORSDOF 2
ENDMDL
