MODEL 1
REMARK VINA RESULT:      -4.2      0.000      0.000
REMARK  Name = *****
REMARK  2 active torsions:
REMARK  status: ('A' for Active; 'I' for Inactive)
REMARK    1  A    between atoms: P_3  and  C_11
REMARK    2  A    between atoms: P_4  and  C_5
REMARK                            x       y       z     vdW  Elec       q    Type
REMARK                         _______ _______ _______ _____ _____    ______ ____
ROOT
ATOM      1  C   UNL     1     103.944 127.391  81.179  0.00  0.00    +0.000 C 
ATOM      2  C   UNL     1     104.159 126.956  82.654  0.00  0.00    +0.000 C 
ATOM      3  P   UNL     1     102.685 125.843  82.790  0.00  0.00    +0.000 P 
ATOM      4  P   UNL     1     103.105 125.848  80.595  0.00  0.00    +0.000 P 
ENDROOT
BRANCH   4   5
ATOM      5  C   UNL     1     104.497 124.682  80.434  0.00  0.00    +0.000 A 
ATOM      6  C   UNL     1     104.501 123.459  81.120  0.00  0.00    +0.000 A 
ATOM      7  C   UNL     1     105.559 122.556  80.976  0.00  0.00    +0.000 A 
ATOM      8  C   UNL     1     106.621 122.855  80.128  0.00  0.00    +0.000 A 
ATOM      9  C   UNL     1     106.622 124.052  79.418  0.00  0.00    +0.000 A 
ATOM     10  C   UNL     1     105.563 124.954  79.563  0.00  0.00    +0.000 A 
ENDBRANCH   4   5
BRANCH   3  11
ATOM     11  C   UNL     1     101.312 127.031  82.954  0.00  0.00    +0.000 A 
ATOM     12  C   UNL     1     100.034 126.735  82.457  0.00  0.00    +0.000 A 
ATOM     13  C   UNL     1      98.976 127.637  82.607  0.00  0.00    +0.000 A 
ATOM     14  C   UNL     1      99.177 128.843  83.271  0.00  0.00    +0.000 A 
ATOM     15  C   UNL     1     100.432 129.142  83.797  0.00  0.00    +0.000 A 
ATOM     16  C   UNL     1     101.487 128.239  83.646  0.00  0.00    +0.000 A 
ENDBRANCH   3  11
TORSDOF 2
ENDMDL
