MODEL 1
REMARK VINA RESULT:      -4.4      0.000      0.000
REMARK  Name = *****
REMARK  3 active torsions:
REMARK  status: ('A' for Active; 'I' for Inactive)
REMARK    1  A    between atoms: C_4  and  C_7
REMARK    2  A    between atoms: C_7  and  O_9
REMARK    3  A    between atoms: O_9  and  C_10
REMARK                            x       y       z     vdW  Elec       q    Type
REMARK                         _______ _______ _______ _____ _____    ______ ____
ROOT
ATOM      1  C   UNL     1     103.133 126.772  81.836  0.00  0.00    +0.000 C 
ATOM      2  O   UNL     1     103.159 127.585  80.924  0.00  0.00    +0.000 OA
ENDROOT
BRANCH   1   6
ATOM      3  C   UNL     1     104.764 122.809  81.621  0.00  0.00    +0.000 A 
ATOM      4  C   UNL     1     104.669 123.568  80.455  0.00  0.00    +0.000 A 
ATOM      5  C   UNL     1     104.141 124.861  80.502  0.00  0.00    +0.000 A 
ATOM      6  C   UNL     1     103.703 125.400  81.721  0.00  0.00    +0.000 A 
ATOM      7  C   UNL     1     103.806 124.629  82.888  0.00  0.00    +0.000 A 
ATOM      8  C   UNL     1     104.334 123.338  82.837  0.00  0.00    +0.000 A 
ENDBRANCH   1   6
BRANCH   1   9
ATOM      9  O   UNL     1     102.619 126.959  83.105  0.00  0.00    +0.000 OA
BRANCH   9  10
ATOM     10  C   UNL     1     101.301 127.421  83.083  0.00  0.00    +0.000 A 
ATOM     11  C   UNL     1     100.325 126.610  82.499  0.00  0.00    +0.000 A 
ATOM     12  C   UNL     1      99.009 127.066  82.431  0.00  0.00    +0.000 A 
ATOM     13  C   UNL     1      98.678 128.329  82.930  0.00  0.00    +0.000 A 
ATOM     14  C   UNL     1      99.664 129.143  83.494  0.00  0.00    +0.000 A 
ATOM     15  C   UNL     1     100.983 128.693  83.567  0.00  0.00    +0.000 A 
ATOM     16 CL   UNL     1     102.187 129.729  84.237  0.00  0.00    +0.000 Cl
ENDBRANCH   9  10
ENDBRANCH   1   9
TORSDOF 3
ENDMDL
