MODEL 1
REMARK VINA RESULT:      -4.6      0.000      0.000
REMARK  Name = *****
REMARK  5 active torsions:
REMARK  status: ('A' for Active; 'I' for Inactive)
REMARK    1  A    between atoms: C_1  and  C_2
REMARK    2  A    between atoms: C_5  and  O_8
REMARK    3  A    between atoms: O_8  and  O_9
REMARK    4  A    between atoms: O_9  and  C_10
REMARK    5  A    between atoms: C_13  and  C_16
REMARK                            x       y       z     vdW  Elec       q    Type
REMARK                         _______ _______ _______ _____ _____    ______ ____
ROOT
ATOM      1  O   UNL     1     101.341 125.972  82.125  0.00  0.00    +0.000 OA
ENDROOT
BRANCH   1   6
ATOM      2  C   UNL     1      99.207 130.730  84.384  0.00  0.00    +0.000 C 
ATOM      3  C   UNL     1      99.737 129.452  83.805  0.00  0.00    +0.000 A 
ATOM      4  C   UNL     1      98.879 128.554  83.160  0.00  0.00    +0.000 A 
ATOM      5  C   UNL     1      99.376 127.378  82.589  0.00  0.00    +0.000 A 
ATOM      6  C   UNL     1     100.740 127.094  82.650  0.00  0.00    +0.000 A 
ATOM      7  C   UNL     1     101.603 127.994  83.280  0.00  0.00    +0.000 A 
ATOM      8  C   UNL     1     101.107 129.169  83.850  0.00  0.00    +0.000 A 
ENDBRANCH   1   6
BRANCH   1   9
ATOM      9  O   UNL     1     102.642 126.332  81.576  0.00  0.00    +0.000 OA
BRANCH   9  10
ATOM     10  C   UNL     1     103.435 125.207  81.525  0.00  0.00    +0.000 A 
ATOM     11  C   UNL     1     104.056 124.724  80.374  0.00  0.00    +0.000 A 
ATOM     12  C   UNL     1     104.854 123.577  80.438  0.00  0.00    +0.000 A 
ATOM     13  C   UNL     1     105.051 122.913  81.655  0.00  0.00    +0.000 A 
ATOM     14  C   UNL     1     104.420 123.402  82.805  0.00  0.00    +0.000 A 
ATOM     15  C   UNL     1     103.624 124.548  82.740  0.00  0.00    +0.000 A 
ATOM     16  C   UNL     1     105.877 121.663  81.717  0.00  0.00    +0.000 C 
ENDBRANCH   9  10
ENDBRANCH   1   9
TORSDOF 3
ENDMDL
