MODEL 1
REMARK VINA RESULT:      -4.7      0.000      0.000
REMARK  Name = *****
REMARK  5 active torsions:
REMARK  status: ('A' for Active; 'I' for Inactive)
REMARK    1  A    between atoms: C_1  and  C_2
REMARK    2  A    between atoms: C_5  and  O_8
REMARK    3  A    between atoms: O_8  and  C_9
REMARK    4  A    between atoms: C_9  and  C_10
REMARK    5  A    between atoms: C_9  and  C_11
REMARK                            x       y       z     vdW  Elec       q    Type
REMARK                         _______ _______ _______ _____ _____    ______ ____
ROOT
ATOM      1  O   UNL     1     103.259 127.412  82.025  0.00  0.00    +0.000 OA
ENDROOT
BRANCH   1   6
ATOM      2  C   UNL     1     105.029 122.235  80.512  0.00  0.00    +0.000 C 
ATOM      3  C   UNL     1     104.580 123.596  80.953  0.00  0.00    +0.000 A 
ATOM      4  C   UNL     1     104.250 123.838  82.290  0.00  0.00    +0.000 A 
ATOM      5  C   UNL     1     103.804 125.102  82.700  0.00  0.00    +0.000 A 
ATOM      6  C   UNL     1     103.672 126.135  81.773  0.00  0.00    +0.000 A 
ATOM      7  C   UNL     1     103.983 125.886  80.433  0.00  0.00    +0.000 A 
ATOM      8  C   UNL     1     104.429 124.628  80.023  0.00  0.00    +0.000 A 
ENDBRANCH   1   6
BRANCH   1   9
ATOM      9  C   UNL     1     102.685 127.735  83.298  0.00  0.00    +0.000 C 
ATOM     10  C   UNL     1     103.201 129.091  83.782  0.00  0.00    +0.000 C 
BRANCH   9  11
ATOM     11  C   UNL     1     101.170 127.797  83.148  0.00  0.00    +0.000 A 
ATOM     12  C   UNL     1     100.446 126.747  82.561  0.00  0.00    +0.000 A 
ATOM     13  C   UNL     1      99.061 126.835  82.406  0.00  0.00    +0.000 A 
ATOM     14  C   UNL     1      98.382 127.976  82.828  0.00  0.00    +0.000 A 
ATOM     15  C   UNL     1      99.086 129.030  83.404  0.00  0.00    +0.000 A 
ATOM     16  C   UNL     1     100.472 128.943  83.562  0.00  0.00    +0.000 A 
ENDBRANCH   9  11
ENDBRANCH   1   9
TORSDOF 3
ENDMDL
