MODEL 1
REMARK VINA RESULT:      -5.1      0.000      0.000
REMARK  Name = *****
REMARK  1 active torsions:
REMARK  status: ('A' for Active; 'I' for Inactive)
REMARK    1  A    between atoms: C_4  and  C_7
REMARK                            x       y       z     vdW  Elec       q    Type
REMARK                         _______ _______ _______ _____ _____    ______ ____
ROOT
ATOM      1  C   UNL     1     103.302 126.143  82.399  0.00  0.00    +0.000 A 
ATOM      2  C   UNL     1     101.969 125.991  82.310  0.00  0.00    +0.000 A 
ATOM      3  C   UNL     1     100.973 127.010  82.648  0.00  0.00    +0.000 A 
ATOM      4  C   UNL     1      99.621 126.739  82.372  0.00  0.00    +0.000 A 
ATOM      5  C   UNL     1      98.623 127.661  82.698  0.00  0.00    +0.000 A 
ATOM      6  C   UNL     1      98.961 128.864  83.309  0.00  0.00    +0.000 A 
ATOM      7  C   UNL     1     100.298 129.144  83.590  0.00  0.00    +0.000 A 
ATOM      8  C   UNL     1     101.307 128.223  83.259  0.00  0.00    +0.000 A 
ATOM      9  C   UNL     1     102.705 128.581  83.585  0.00  0.00    +0.000 A 
ATOM     10  O   UNL     1     102.946 129.565  84.277  0.00  0.00    +0.000 OA
ATOM     11  S   UNL     1     104.023 127.632  82.933  0.00  0.00    +0.000 S 
ENDROOT
BRANCH   1  15
ATOM     12  C   UNL     1     104.907 122.274  81.039  0.00  0.00    +0.000 C 
ATOM     13  C   UNL     1     105.075 123.494  80.138  0.00  0.00    +0.000 C 
ATOM     14  C   UNL     1     104.100 124.611  80.514  0.00  0.00    +0.000 C 
ATOM     15  C   UNL     1     104.227 124.991  82.002  0.00  0.00    +0.000 C 
ATOM     16  C   UNL     1     104.055 123.753  82.903  0.00  0.00    +0.000 C 
ATOM     17  C   UNL     1     105.030 122.641  82.515  0.00  0.00    +0.000 C 
ENDBRANCH   1  15
TORSDOF 1
ENDMDL
