REMARK  Name = *****
REMARK  2 active torsions:
REMARK  status: ('A' for Active; 'I' for Inactive)
REMARK    1  A    between atoms: C_7  and  C_8
REMARK    2  A    between atoms: C_9  and  C_10
REMARK                            x       y       z     vdW  Elec       q    Type
REMARK                         _______ _______ _______ _____ _____    ______ ____
ROOT
ATOM      1  C   UNL     1       4.927  -1.317   2.901  0.00  0.00    +0.000 C 
ATOM      2  C   UNL     1       4.848  -2.315   3.564  0.00  0.00    +0.000 C 
ENDROOT
BRANCH   1   9
ATOM      3  C   UNL     1       1.123  -0.029  -0.399  0.00  0.00    +0.000 C 
ATOM      4  C   UNL     1       2.415  -0.062  -0.068  0.00  0.00    +0.000 C 
ATOM      5  C   UNL     1       3.408  -1.181   0.177  0.00  0.00    +0.000 C 
ATOM      6  C   UNL     1       4.298  -0.124   0.752  0.00  0.00    +0.000 C 
ATOM      7  C   UNL     1       3.455   0.998   0.234  0.00  0.00    +0.000 C 
ATOM      8  C   UNL     1       5.792  -0.166   0.818  0.00  0.00    +0.000 C 
ATOM      9  C   UNL     1       4.982  -0.136   2.091  0.00  0.00    +0.000 C 
ENDBRANCH   1   9
BRANCH   2  10
ATOM     10  C   UNL     1       4.729  -3.555   4.358  0.00  0.00    +0.000 C 
ATOM     11  C   UNL     1       5.654  -4.649   3.807  0.00  0.00    +0.000 C 
ATOM     12  C   UNL     1       5.162  -5.231   2.481  0.00  0.00    +0.000 C 
ATOM     13  C   UNL     1       3.722  -5.722   2.580  0.00  0.00    +0.000 C 
ATOM     14  C   UNL     1       2.786  -4.631   3.090  0.00  0.00    +0.000 C 
ATOM     15  C   UNL     1       3.272  -4.036   4.413  0.00  0.00    +0.000 C 
ENDBRANCH   2  10
TORSDOF 2
