MODEL 1
REMARK VINA RESULT:      -4.5      0.000      0.000
REMARK  Name = *****
REMARK  3 active torsions:
REMARK  status: ('A' for Active; 'I' for Inactive)
REMARK    1  A    between atoms: C_1  and  C_2
REMARK    2  A    between atoms: C_5  and  C_7
REMARK    3  A    between atoms: C_8  and  C_9
REMARK                            x       y       z     vdW  Elec       q    Type
REMARK                         _______ _______ _______ _____ _____    ______ ____
ROOT
ATOM      1  C   UNL     1     101.781 126.042  82.722  0.00  0.00    +0.000 C 
ATOM      2  C   UNL     1     102.538 125.947  81.617  0.00  0.00    +0.000 C 
ENDROOT
BRANCH   2   3
ATOM      3  C   UNL     1     103.586 124.931  81.438  0.00  0.00    +0.000 A 
ATOM      4  C   UNL     1     104.250 124.750  80.216  0.00  0.00    +0.000 A 
ATOM      5  C   UNL     1     105.263 123.795  80.093  0.00  0.00    +0.000 A 
ATOM      6  C   UNL     1     105.626 123.025  81.195  0.00  0.00    +0.000 A 
ATOM      7  C   UNL     1     104.989 123.204  82.420  0.00  0.00    +0.000 A 
ATOM      8  C   UNL     1     103.975 124.159  82.542  0.00  0.00    +0.000 A 
ATOM      9 BR   UNL     1     106.998 121.735  81.029  0.00  0.00    +0.000 Br
ENDBRANCH   2   3
BRANCH   1  14
ATOM     10  C   UNL     1      99.318 130.538  83.975  0.00  0.00    +0.000 C 
ATOM     11  C   UNL     1      99.620 129.169  83.475  0.00  0.00    +0.000 A 
ATOM     12  C   UNL     1      98.770 128.268  82.873  0.00  0.00    +0.000 A 
ATOM     13  C   UNL     1      99.429 127.051  82.532  0.00  0.00    +0.000 A 
ATOM     14  C   UNL     1     100.770 127.039  82.877  0.00  0.00    +0.000 A 
ATOM     15  S   UNL     1     101.200 128.537  83.621  0.00  0.00    +0.000 S 
ENDBRANCH   1  14
TORSDOF 2
ENDMDL
