REMARK  Name = *****
REMARK  3 active torsions:
REMARK  status: ('A' for Active; 'I' for Inactive)
REMARK    1  A    between atoms: C_3  and  C_4
REMARK    2  A    between atoms: C_3  and  C_11
REMARK    3  A    between atoms: C_11  and  C_13
REMARK                            x       y       z     vdW  Elec       q    Type
REMARK                         _______ _______ _______ _____ _____    ______ ____
ROOT
ATOM      1  C   UNL     1      -0.363   0.832  -0.264  0.00  0.00    +0.000 C 
ATOM      2  C   UNL     1       0.476  -0.391  -0.108  0.00  0.00    +0.000 C 
ATOM      3  C   UNL     1      -1.044  -0.530  -0.071  0.00  0.00    +0.000 C 
ENDROOT
BRANCH   3   4
ATOM      4  C   UNL     1      -1.772  -0.711   1.264  0.00  0.00    +0.000 A 
ATOM      5  C   UNL     1      -1.281  -1.537   2.288  0.00  0.00    +0.000 A 
ATOM      6  C   UNL     1      -1.978  -1.684   3.485  0.00  0.00    +0.000 A 
ATOM      7  C   UNL     1      -3.177  -1.021   3.705  0.00  0.00    +0.000 A 
ATOM      8  C   UNL     1      -3.688  -0.197   2.709  0.00  0.00    +0.000 A 
ATOM      9  C   UNL     1      -2.991  -0.046   1.506  0.00  0.00    +0.000 A 
ATOM     10  F   UNL     1      -1.480  -2.480   4.440  0.00  0.00    +0.000 F 
ENDBRANCH   3   4
BRANCH   3  11
ATOM     11  C   UNL     1      -1.752  -1.089  -1.285  0.00  0.00    +0.000 C 
ATOM     12  O   UNL     1      -2.455  -0.347  -1.965  0.00  0.00    +0.000 OA
BRANCH  11  13
ATOM     13  C   UNL     1      -1.622  -2.533  -1.636  0.00  0.00    +0.000 A 
ATOM     14  C   UNL     1      -2.360  -3.017  -2.726  0.00  0.00    +0.000 A 
ATOM     15  C   UNL     1      -2.280  -4.361  -3.097  0.00  0.00    +0.000 A 
ATOM     16  C   UNL     1      -1.461  -5.232  -2.383  0.00  0.00    +0.000 A 
ATOM     17  C   UNL     1      -0.721  -4.760  -1.300  0.00  0.00    +0.000 A 
ATOM     18  C   UNL     1      -0.799  -3.415  -0.926  0.00  0.00    +0.000 A 
ENDBRANCH  11  13
ENDBRANCH   3  11
TORSDOF 3
