MODEL 1
REMARK VINA RESULT:      -3.9      0.000      0.000
REMARK  Name = *****
REMARK  4 active torsions:
REMARK  status: ('A' for Active; 'I' for Inactive)
REMARK    1  A    between atoms: C_4  and  C_7
REMARK    2  A    between atoms: C_7  and  S_8
REMARK    3  A    between atoms: S_8  and  C_9
REMARK    4  A    between atoms: C_9  and  C_10
REMARK                            x       y       z     vdW  Elec       q    Type
REMARK                         _______ _______ _______ _____ _____    ______ ____
ROOT
ATOM      1  S   UNL     1      87.608  69.388  84.389  0.00  0.00    +0.000 S 
ENDROOT
BRANCH   1   2
ATOM      2  C   UNL     1      89.325  69.158  85.031  0.00  0.00    +0.000 C 
ATOM      3  F   UNL     1      90.034  68.508  84.057  0.00  0.00    +0.000 F 
ATOM      4 CL   UNL     1      90.053  70.803  85.191  0.00  0.00    +0.000 Cl
BRANCH   2   5
ATOM      5  C   UNL     1      89.415  68.339  86.359  0.00  0.00    +0.000 C 
ATOM      6  F   UNL     1      89.948  69.125  87.343  0.00  0.00    +0.000 F 
ATOM      7 CL   UNL     1      87.792  67.820  86.937  0.00  0.00    +0.000 Cl
ATOM      8 CL   UNL     1      90.451  66.876  86.230  0.00  0.00    +0.000 Cl
ENDBRANCH   2   5
ENDBRANCH   1   2
BRANCH   1   9
ATOM      9  C   UNL     1      87.465  71.185  84.611  0.00  0.00    +0.000 C 
BRANCH   9  13
ATOM     10  C   UNL     1      84.733  72.121  87.815  0.00  0.00    +0.000 A 
ATOM     11  C   UNL     1      85.958  71.520  88.097  0.00  0.00    +0.000 A 
ATOM     12  C   UNL     1      86.844  71.218  87.061  0.00  0.00    +0.000 A 
ATOM     13  C   UNL     1      86.514  71.521  85.732  0.00  0.00    +0.000 A 
ATOM     14  C   UNL     1      85.274  72.119  85.460  0.00  0.00    +0.000 A 
ATOM     15  C   UNL     1      84.390  72.419  86.498  0.00  0.00    +0.000 A 
ENDBRANCH   9  13
ENDBRANCH   1   9
TORSDOF 4
ENDMDL
