MODEL 1
REMARK VINA RESULT:      -4.2      0.000      0.000
REMARK  Name = *****
REMARK  5 active torsions:
REMARK  status: ('A' for Active; 'I' for Inactive)
REMARK    1  A    between atoms: C_4  and  C_7
REMARK    2  A    between atoms: C_7  and  C_8
REMARK    3  A    between atoms: C_8  and  C_9
REMARK    4  A    between atoms: C_10  and  S_16
REMARK    5  A    between atoms: C_11  and  S_15
REMARK                            x       y       z     vdW  Elec       q    Type
REMARK                         _______ _______ _______ _____ _____    ______ ____
ROOT
ATOM      1  C   UNL     1      88.083  68.285  87.539  0.00  0.00    +0.000 A 
ATOM      2  C   UNL     1      87.875  66.878  87.572  0.00  0.00    +0.000 A 
ATOM      3  C   UNL     1      88.746  66.016  86.863  0.00  0.00    +0.000 A 
ATOM      4  C   UNL     1      89.816  66.553  86.136  0.00  0.00    +0.000 A 
ATOM      5  C   UNL     1      90.025  67.927  86.104  0.00  0.00    +0.000 A 
ATOM      6  C   UNL     1      89.169  68.782  86.795  0.00  0.00    +0.000 A 
ENDROOT
BRANCH   3   7
ATOM      7  S   UNL     1      88.586  64.228  86.828  0.00  0.00    +0.000 S 
ATOM      8  H   UNL     1      89.625  63.693  86.132  0.00  0.00    +0.000 HD
ENDBRANCH   3   7
BRANCH   2   9
ATOM      9  S   UNL     1      86.505  66.186  88.524  0.00  0.00    +0.000 S 
ATOM     10  H   UNL     1      86.132  67.067  89.490  0.00  0.00    +0.000 HD
ENDBRANCH   2   9
BRANCH   1  11
ATOM     11  C   UNL     1      87.149  69.229  88.288  0.00  0.00    +0.000 C 
BRANCH  11  12
ATOM     12  C   UNL     1      87.388  70.739  88.133  0.00  0.00    +0.000 C 
BRANCH  12  16
ATOM     13  C   UNL     1      84.288  72.556  85.748  0.00  0.00    +0.000 A 
ATOM     14  C   UNL     1      84.185  72.550  87.137  0.00  0.00    +0.000 A 
ATOM     15  C   UNL     1      85.189  71.967  87.910  0.00  0.00    +0.000 A 
ATOM     16  C   UNL     1      86.310  71.389  87.299  0.00  0.00    +0.000 A 
ATOM     17  C   UNL     1      86.401  71.395  85.901  0.00  0.00    +0.000 A 
ATOM     18  C   UNL     1      85.395  71.978  85.129  0.00  0.00    +0.000 A 
ENDBRANCH  12  16
ENDBRANCH  11  12
ENDBRANCH   1  11
TORSDOF 5
ENDMDL
