MODEL 1
REMARK VINA RESULT:      -4.3      0.000      0.000
REMARK  Name = *****
REMARK  4 active torsions:
REMARK  status: ('A' for Active; 'I' for Inactive)
REMARK    1  A    between atoms: C_1  and  C_2
REMARK    2  A    between atoms: C_2  and  N_3
REMARK    3  A    between atoms: N_3  and  C_4
REMARK    4  A    between atoms: C_10  and  C_12
REMARK                            x       y       z     vdW  Elec       q    Type
REMARK                         _______ _______ _______ _____ _____    ______ ____
ROOT
ATOM      1  N   UNL     1     103.928 124.364  82.255  0.00  0.00    +0.000 N 
ATOM      2  C   UNL     1     103.230 125.294  81.474  0.00  0.00    +0.000 C 
ATOM      3  O   UNL     1     103.241 125.316  80.247  0.00  0.00    +0.000 OA
ENDROOT
BRANCH   2   4
ATOM      4  C   UNL     1     102.426 126.333  82.139  0.00  0.00    +0.000 A 
ATOM      5  C   UNL     1     101.037 126.200  82.202  0.00  0.00    +0.000 A 
ATOM      6  C   UNL     1     100.290 127.209  82.803  0.00  0.00    +0.000 A 
ATOM      7  C   UNL     1     100.915 128.347  83.317  0.00  0.00    +0.000 A 
ATOM      8  C   UNL     1     102.302 128.486  83.222  0.00  0.00    +0.000 A 
ATOM      9  C   UNL     1     103.061 127.481  82.623  0.00  0.00    +0.000 A 
ATOM     10 CL   UNL     1      98.580 127.054  82.914  0.00  0.00    +0.000 Cl
ENDBRANCH   2   4
BRANCH   1  11
ATOM     11  C   UNL     1     104.639 123.283  81.539  0.00  0.00    +0.000 C 
ATOM     12  C   UNL     1     104.558 121.963  82.325  0.00  0.00    +0.000 C 
ATOM     13  C   UNL     1     105.244 120.819  81.581  0.00  0.00    +0.000 C 
ATOM     14  C   UNL     1     106.683 121.168  81.209  0.00  0.00    +0.000 C 
ATOM     15  C   UNL     1     106.761 122.470  80.420  0.00  0.00    +0.000 C 
ATOM     16  C   UNL     1     106.093 123.622  81.169  0.00  0.00    +0.000 C 
ENDBRANCH   1  11
BRANCH   1  18
ATOM     17  C   UNL     1     105.099 124.980  84.367  0.00  0.00    +0.000 C 
ATOM     18  C   UNL     1     103.880 124.334  83.726  0.00  0.00    +0.000 C 
ENDBRANCH   1  18
TORSDOF 3
ENDMDL
