MODEL 1
REMARK VINA RESULT:      -5.3      0.000      0.000
REMARK  Name = *****
REMARK  4 active torsions:
REMARK  status: ('A' for Active; 'I' for Inactive)
REMARK    1  A    between atoms: C_1  and  C_2
REMARK    2  A    between atoms: C_4  and  C_16
REMARK    3  A    between atoms: C_6  and  C_8
REMARK    4  A    between atoms: C_9  and  C_10
REMARK                            x       y       z     vdW  Elec       q    Type
REMARK                         _______ _______ _______ _____ _____    ______ ____
ROOT
ATOM      1  C   UNL     1     106.313 124.638  78.200  0.00  0.00    +0.000 C 
ATOM      2  C   UNL     1     105.529 124.412  79.459  0.00  0.00    +0.000 A 
ATOM      3  C   UNL     1     105.630 123.198  80.150  0.00  0.00    +0.000 A 
ATOM      4  C   UNL     1     104.878 122.969  81.308  0.00  0.00    +0.000 A 
ATOM      5  C   UNL     1     103.992 123.960  81.755  0.00  0.00    +0.000 A 
ATOM      6  C   UNL     1     103.877 125.182  81.080  0.00  0.00    +0.000 A 
ATOM      7  C   UNL     1     104.640 125.390  79.922  0.00  0.00    +0.000 A 
ATOM      8  C   UNL     1     104.961 121.652  82.022  0.00  0.00    +0.000 C 
ENDROOT
BRANCH   6   9
ATOM      9  C   UNL     1     102.933 126.225  81.506  0.00  0.00    +0.000 C 
ATOM     10  C   UNL     1     101.773 125.970  82.132  0.00  0.00    +0.000 C 
BRANCH  10  11
ATOM     11  C   UNL     1     100.835 127.012  82.572  0.00  0.00    +0.000 A 
ATOM     12  C   UNL     1      99.449 126.890  82.404  0.00  0.00    +0.000 A 
ATOM     13  C   UNL     1      98.586 127.887  82.865  0.00  0.00    +0.000 A 
ATOM     14  C   UNL     1      99.100 129.013  83.507  0.00  0.00    +0.000 A 
ATOM     15  C   UNL     1     100.474 129.138  83.695  0.00  0.00    +0.000 A 
ATOM     16  C   UNL     1     101.337 128.140  83.235  0.00  0.00    +0.000 A 
ENDBRANCH  10  11
ENDBRANCH   6   9
TORSDOF 2
ENDMDL
