MODEL 1
REMARK VINA RESULT:      -4.6      0.000      0.000
REMARK  Name = *****
REMARK  3 active torsions:
REMARK  status: ('A' for Active; 'I' for Inactive)
REMARK    1  A    between atoms: C_4  and  N_7
REMARK    2  A    between atoms: N_7  and  C_8
REMARK    3  A    between atoms: C_8  and  C_9
REMARK                            x       y       z     vdW  Elec       q    Type
REMARK                         _______ _______ _______ _____ _____    ______ ____
ROOT
ATOM      1  C   UNL     1      88.797  70.064  86.612  0.00  0.00    +0.000 C 
ENDROOT
BRANCH   1   2
ATOM      2  C   UNL     1      88.935  68.609  86.701  0.00  0.00    +0.000 A 
ATOM      3  C   UNL     1      89.987  67.916  86.099  0.00  0.00    +0.000 A 
ATOM      4  C   UNL     1      90.044  66.521  86.196  0.00  0.00    +0.000 A 
ATOM      5  C   UNL     1      89.038  65.822  86.874  0.00  0.00    +0.000 A 
ATOM      6  C   UNL     1      87.970  66.523  87.447  0.00  0.00    +0.000 A 
ATOM      7  C   UNL     1      87.913  67.915  87.352  0.00  0.00    +0.000 A 
ATOM      8 CL   UNL     1      89.046  64.103  87.033  0.00  0.00    +0.000 Cl
ATOM      9 CL   UNL     1      91.380  65.721  85.446  0.00  0.00    +0.000 Cl
ENDBRANCH   1   2
BRANCH   1  10
ATOM     10  N   UNL     1      87.954  70.740  85.864  0.00  0.00    +0.000 N 
ATOM     11  O   UNL     1      88.208  70.896  84.624  0.00  0.00    +0.000 OA
BRANCH  10  15
ATOM     12  C   UNL     1      84.365  72.360  87.399  0.00  0.00    +0.000 A 
ATOM     13  C   UNL     1      84.587  72.330  86.021  0.00  0.00    +0.000 A 
ATOM     14  C   UNL     1      85.768  71.791  85.517  0.00  0.00    +0.000 A 
ATOM     15  C   UNL     1      86.731  71.299  86.404  0.00  0.00    +0.000 A 
ATOM     16  C   UNL     1      86.502  71.299  87.784  0.00  0.00    +0.000 A 
ATOM     17  C   UNL     1      85.317  71.841  88.278  0.00  0.00    +0.000 A 
ENDBRANCH  10  15
ENDBRANCH   1  10
TORSDOF 3
ENDMDL
