REMARK  Name = *****
REMARK  5 active torsions:
REMARK  status: ('A' for Active; 'I' for Inactive)
REMARK    1  A    between atoms: C_1  and  C_2
REMARK    2  A    between atoms: C_5  and  S_8
REMARK    3  A    between atoms: S_8  and  C_9
REMARK    4  A    between atoms: C_9  and  C_10
REMARK    5  A    between atoms: C_9  and  C_11
REMARK                            x       y       z     vdW  Elec       q    Type
REMARK                         _______ _______ _______ _____ _____    ______ ____
ROOT
ATOM      1  S   UNL     1      -5.203   1.421  -1.482  0.00  0.00    +0.000 S 
ENDROOT
BRANCH   1   6
ATOM      2  C   UNL     1      -1.722   0.775  -6.443  0.00  0.00    +0.000 C 
ATOM      3  C   UNL     1      -2.553   0.936  -5.205  0.00  0.00    +0.000 A 
ATOM      4  C   UNL     1      -3.006  -0.188  -4.504  0.00  0.00    +0.000 A 
ATOM      5  C   UNL     1      -3.808  -0.039  -3.369  0.00  0.00    +0.000 A 
ATOM      6  C   UNL     1      -4.163   1.235  -2.917  0.00  0.00    +0.000 A 
ATOM      7  C   UNL     1      -3.744   2.356  -3.638  0.00  0.00    +0.000 A 
ATOM      8  C   UNL     1      -2.942   2.208  -4.773  0.00  0.00    +0.000 A 
ENDBRANCH   1   6
BRANCH   1   9
ATOM      9  C   UNL     1      -3.958   1.633  -0.136  0.00  0.00    +0.000 C 
ATOM     10  C   UNL     1      -3.193   0.331   0.119  0.00  0.00    +0.000 C 
BRANCH   9  11
ATOM     11  C   UNL     1      -3.104   2.878  -0.313  0.00  0.00    +0.000 A 
ATOM     12  C   UNL     1      -1.790   2.835  -0.805  0.00  0.00    +0.000 A 
ATOM     13  C   UNL     1      -1.046   4.007  -0.964  0.00  0.00    +0.000 A 
ATOM     14  C   UNL     1      -1.603   5.240  -0.636  0.00  0.00    +0.000 A 
ATOM     15  C   UNL     1      -2.906   5.305  -0.151  0.00  0.00    +0.000 A 
ATOM     16  C   UNL     1      -3.651   4.134   0.008  0.00  0.00    +0.000 A 
ENDBRANCH   9  11
ENDBRANCH   1   9
TORSDOF 3
