MODEL 1
REMARK VINA RESULT:      -4.8      0.000      0.000
REMARK  Name = *****
REMARK  3 active torsions:
REMARK  status: ('A' for Active; 'I' for Inactive)
REMARK    1  A    between atoms: C_3  and  O_8
REMARK    2  A    between atoms: O_8  and  C_9
REMARK    3  A    between atoms: C_9  and  C_11
REMARK                            x       y       z     vdW  Elec       q    Type
REMARK                         _______ _______ _______ _____ _____    ______ ____
ROOT
ATOM      1  C   UNL     1     102.679 125.650  83.513  0.00  0.00    +0.000 C 
ATOM      2  O   UNL     1     102.250 125.233  84.578  0.00  0.00    +0.000 OA
ENDROOT
BRANCH   1   3
ATOM      3  C   UNL     1     103.462 124.805  82.566  0.00  0.00    +0.000 A 
ATOM      4  C   UNL     1     104.088 123.610  82.954  0.00  0.00    +0.000 A 
ATOM      5  C   UNL     1     104.810 122.862  82.020  0.00  0.00    +0.000 A 
ATOM      6  C   UNL     1     104.903 123.307  80.706  0.00  0.00    +0.000 A 
ATOM      7  C   UNL     1     104.289 124.486  80.304  0.00  0.00    +0.000 A 
ATOM      8  C   UNL     1     103.568 125.239  81.234  0.00  0.00    +0.000 A 
ATOM      9  F   UNL     1     105.595 122.586  79.814  0.00  0.00    +0.000 F 
ENDBRANCH   1   3
BRANCH   1  10
ATOM     10  O   UNL     1     102.538 126.924  82.996  0.00  0.00    +0.000 OA
BRANCH  10  13
ATOM     11  C   UNL     1      98.919 127.107  82.406  0.00  0.00    +0.000 A 
ATOM     12  C   UNL     1     100.228 126.628  82.434  0.00  0.00    +0.000 A 
ATOM     13  C   UNL     1     101.225 127.402  83.026  0.00  0.00    +0.000 A 
ATOM     14  C   UNL     1     100.949 128.661  83.559  0.00  0.00    +0.000 A 
ATOM     15  C   UNL     1      99.637 129.128  83.525  0.00  0.00    +0.000 A 
ATOM     16  C   UNL     1      98.622 128.357  82.955  0.00  0.00    +0.000 A 
ATOM     17 CL   UNL     1      99.265 130.673  84.185  0.00  0.00    +0.000 Cl
ENDBRANCH  10  13
ENDBRANCH   1  10
TORSDOF 3
ENDMDL
