MODEL 1
REMARK VINA RESULT:      -4.9      0.000      0.000
REMARK  Name = *****
REMARK  3 active torsions:
REMARK  status: ('A' for Active; 'I' for Inactive)
REMARK    1  A    between atoms: C_1  and  C_2
REMARK    2  A    between atoms: C_2  and  C_11
REMARK    3  A    between atoms: N_3  and  C_4
REMARK                            x       y       z     vdW  Elec       q    Type
REMARK                         _______ _______ _______ _____ _____    ______ ____
ROOT
ATOM      1  C   UNL     1     103.257 127.095  80.727  0.00  0.00    +0.000 C 
ATOM      2  C   UNL     1     103.114 125.868  81.610  0.00  0.00    +0.000 C 
ATOM      3  N   UNL     1     102.253 125.767  82.582  0.00  0.00    +0.000 NA
ENDROOT
BRANCH   3   4
ATOM      4  C   UNL     1     101.371 126.820  82.859  0.00  0.00    +0.000 A 
ATOM      5  C   UNL     1     100.030 126.742  82.480  0.00  0.00    +0.000 A 
ATOM      6  C   UNL     1      99.168 127.788  82.787  0.00  0.00    +0.000 A 
ATOM      7  C   UNL     1      99.612 128.908  83.479  0.00  0.00    +0.000 A 
ATOM      8  C   UNL     1     100.945 128.982  83.880  0.00  0.00    +0.000 A 
ATOM      9  C   UNL     1     101.818 127.935  83.575  0.00  0.00    +0.000 A 
ATOM     10  F   UNL     1      97.884 127.715  82.409  0.00  0.00    +0.000 F 
ENDBRANCH   3   4
BRANCH   2  11
ATOM     11  C   UNL     1     104.007 124.699  81.337  0.00  0.00    +0.000 A 
ATOM     12  C   UNL     1     104.646 124.538  80.100  0.00  0.00    +0.000 A 
ATOM     13  C   UNL     1     105.468 123.430  79.876  0.00  0.00    +0.000 A 
ATOM     14  C   UNL     1     105.640 122.486  80.883  0.00  0.00    +0.000 A 
ATOM     15  C   UNL     1     105.002 122.623  82.110  0.00  0.00    +0.000 A 
ATOM     16  C   UNL     1     104.180 123.729  82.337  0.00  0.00    +0.000 A 
ATOM     17  F   UNL     1     106.427 121.425  80.663  0.00  0.00    +0.000 F 
ENDBRANCH   2  11
TORSDOF 2
ENDMDL
