MODEL 1
REMARK VINA RESULT:      -5.3      0.000      0.000
REMARK  Name = *****
REMARK  1 active torsions:
REMARK  status: ('A' for Active; 'I' for Inactive)
REMARK    1  A    between atoms: C_3  and  C_11
REMARK                            x       y       z     vdW  Elec       q    Type
REMARK                         _______ _______ _______ _____ _____    ______ ____
ROOT
ATOM      1  C   UNL     1     102.778 128.417  83.244  0.00  0.00    +0.000 C 
ATOM      2  C   UNL     1     103.509 127.734  82.081  0.00  0.00    +0.000 C 
ATOM      3  C   UNL     1     102.947 126.370  81.752  0.00  0.00    +0.000 C 
ATOM      4  C   UNL     1     101.652 126.083  81.985  0.00  0.00    +0.000 C 
ATOM      5  C   UNL     1     100.752 127.085  82.572  0.00  0.00    +0.000 A 
ATOM      6  C   UNL     1      99.367 126.887  82.560  0.00  0.00    +0.000 A 
ATOM      7  C   UNL     1      98.516 127.834  83.131  0.00  0.00    +0.000 A 
ATOM      8  C   UNL     1      99.043 128.979  83.729  0.00  0.00    +0.000 A 
ATOM      9  C   UNL     1     100.423 129.181  83.754  0.00  0.00    +0.000 A 
ATOM     10  C   UNL     1     101.283 128.242  83.168  0.00  0.00    +0.000 A 
ENDROOT
BRANCH   3  11
ATOM     11  C   UNL     1     103.847 125.377  81.129  0.00  0.00    +0.000 A 
ATOM     12  C   UNL     1     104.589 125.704  79.985  0.00  0.00    +0.000 A 
ATOM     13  C   UNL     1     105.453 124.773  79.401  0.00  0.00    +0.000 A 
ATOM     14  C   UNL     1     105.590 123.504  79.957  0.00  0.00    +0.000 A 
ATOM     15  C   UNL     1     104.864 123.165  81.096  0.00  0.00    +0.000 A 
ATOM     16  C   UNL     1     104.001 124.095  81.679  0.00  0.00    +0.000 A 
ENDBRANCH   3  11
TORSDOF 1
ENDMDL
