MODEL 1
REMARK VINA RESULT:      -4.4      0.000      0.000
REMARK  Name = *****
REMARK  5 active torsions:
REMARK  status: ('A' for Active; 'I' for Inactive)
REMARK    1  A    between atoms: C_1  and  C_2
REMARK    2  A    between atoms: C_5  and  C_8
REMARK    3  A    between atoms: C_8  and  N_9
REMARK    4  A    between atoms: N_9  and  C_10
REMARK    5  A    between atoms: N_9  and  C_11
REMARK                            x       y       z     vdW  Elec       q    Type
REMARK                         _______ _______ _______ _____ _____    ______ ____
ROOT
ATOM      1  C   UNL     1      88.797  70.107  86.899  0.00  0.00    +0.000 C 
ENDROOT
BRANCH   1   6
ATOM      2  C   UNL     1      89.113  64.281  86.796  0.00  0.00    +0.000 C 
ATOM      3  C   UNL     1      89.016  65.777  86.794  0.00  0.00    +0.000 A 
ATOM      4  C   UNL     1      90.048  66.554  86.253  0.00  0.00    +0.000 A 
ATOM      5  C   UNL     1      89.976  67.949  86.278  0.00  0.00    +0.000 A 
ATOM      6  C   UNL     1      88.871  68.594  86.850  0.00  0.00    +0.000 A 
ATOM      7  C   UNL     1      87.850  67.814  87.410  0.00  0.00    +0.000 A 
ATOM      8  C   UNL     1      87.922  66.420  87.385  0.00  0.00    +0.000 A 
ENDBRANCH   1   6
BRANCH   1   9
ATOM      9  N   UNL     1      87.855  70.636  85.899  0.00  0.00    +0.000 N 
ATOM     10  C   UNL     1      88.467  71.442  84.835  0.00  0.00    +0.000 C 
BRANCH   9  11
ATOM     11  C   UNL     1      86.679  71.239  86.390  0.00  0.00    +0.000 A 
ATOM     12  C   UNL     1      85.678  71.778  85.568  0.00  0.00    +0.000 A 
ATOM     13  C   UNL     1      84.527  72.361  86.111  0.00  0.00    +0.000 A 
ATOM     14  C   UNL     1      84.356  72.420  87.490  0.00  0.00    +0.000 A 
ATOM     15  C   UNL     1      85.336  71.895  88.327  0.00  0.00    +0.000 A 
ATOM     16  C   UNL     1      86.482  71.313  87.779  0.00  0.00    +0.000 A 
ENDBRANCH   9  11
ENDBRANCH   1   9
TORSDOF 3
ENDMDL
