MODEL 1
REMARK VINA RESULT:      -4.6      0.000      0.000
REMARK  Name = *****
REMARK  5 active torsions:
REMARK  status: ('A' for Active; 'I' for Inactive)
REMARK    1  A    between atoms: C_1  and  C_2
REMARK    2  A    between atoms: C_4  and  C_18
REMARK    3  A    between atoms: C_6  and  O_8
REMARK    4  A    between atoms: O_8  and  C_9
REMARK    5  A    between atoms: C_9  and  C_11
REMARK                            x       y       z     vdW  Elec       q    Type
REMARK                         _______ _______ _______ _____ _____    ______ ____
ROOT
ATOM      1  O   UNL     1     103.142 127.758  81.650  0.00  0.00    +0.000 OA
ENDROOT
BRANCH   1   7
ATOM      2  C   UNL     1     104.802 123.610  81.406  0.00  0.00    +0.000 C 
ATOM      3  C   UNL     1     104.347 124.470  80.224  0.00  0.00    +0.000 C 
ATOM      4  C   UNL     1     105.541 125.042  79.442  0.00  0.00    +0.000 C 
ATOM      5  C   UNL     1     106.263 126.176  80.184  0.00  0.00    +0.000 C 
ATOM      6  C   UNL     1     105.276 127.275  80.596  0.00  0.00    +0.000 C 
ATOM      7  C   UNL     1     104.113 126.719  81.422  0.00  0.00    +0.000 C 
ATOM      8  C   UNL     1     103.401 125.592  80.667  0.00  0.00    +0.000 C 
ATOM      9  C   UNL     1     107.380 126.757  79.318  0.00  0.00    +0.000 C 
ENDBRANCH   1   7
BRANCH   1  10
ATOM     10  C   UNL     1     102.729 127.922  82.931  0.00  0.00    +0.000 C 
ATOM     11  O   UNL     1     103.448 128.048  83.909  0.00  0.00    +0.000 OA
BRANCH  10  12
ATOM     12  C   UNL     1     101.243 127.926  83.002  0.00  0.00    +0.000 A 
ATOM     13  C   UNL     1     100.465 126.892  82.467  0.00  0.00    +0.000 A 
ATOM     14  C   UNL     1      99.080 126.960  82.567  0.00  0.00    +0.000 A 
ATOM     15  C   UNL     1      98.451 128.034  83.187  0.00  0.00    +0.000 A 
ATOM     16  C   UNL     1      99.218 129.066  83.721  0.00  0.00    +0.000 A 
ATOM     17  C   UNL     1     100.612 129.013  83.627  0.00  0.00    +0.000 A 
ATOM     18  F   UNL     1      98.336 125.969  82.055  0.00  0.00    +0.000 F 
ENDBRANCH  10  12
ENDBRANCH   1  10
TORSDOF 3
ENDMDL
