MODEL 1
REMARK VINA RESULT:      -4.3      0.000      0.000
REMARK  Name = *****
REMARK  4 active torsions:
REMARK  status: ('A' for Active; 'I' for Inactive)
REMARK    1  A    between atoms: C_1  and  C_2
REMARK    2  A    between atoms: C_2  and  O_8
REMARK    3  A    between atoms: O_8  and  C_9
REMARK    4  A    between atoms: C_9  and  C_11
REMARK                            x       y       z     vdW  Elec       q    Type
REMARK                         _______ _______ _______ _____ _____    ______ ____
ROOT
ATOM      1  C   UNL     1      89.496  68.064  85.042  0.00  0.00    +0.000 C 
ATOM      2  O   UNL     1      90.220  67.863  84.079  0.00  0.00    +0.000 OA
ENDROOT
BRANCH   1   3
ATOM      3  C   UNL     1      89.399  67.159  86.254  0.00  0.00    +0.000 C 
ATOM      4  C   UNL     1      90.132  65.798  86.038  0.00  0.00    +0.000 C 
ATOM      5  C   UNL     1      89.008  64.763  86.255  0.00  0.00    +0.000 C 
ATOM      6  C   UNL     1      87.820  65.480  85.614  0.00  0.00    +0.000 C 
ATOM      7  C   UNL     1      87.942  66.709  86.525  0.00  0.00    +0.000 C 
ATOM      8  C   UNL     1      87.931  66.001  87.864  0.00  0.00    +0.000 C 
ATOM      9  C   UNL     1      88.578  64.837  87.702  0.00  0.00    +0.000 C 
ENDBRANCH   1   3
BRANCH   1  10
ATOM     10  O   UNL     1      88.625  69.100  85.179  0.00  0.00    +0.000 OA
BRANCH  10  12
ATOM     11  C   UNL     1      90.295  70.861  84.795  0.00  0.00    +0.000 C 
ATOM     12  C   UNL     1      89.076  70.413  85.613  0.00  0.00    +0.000 C 
ATOM     13  C   UNL     1      89.362  70.451  87.128  0.00  0.00    +0.000 C 
ATOM     14  C   UNL     1      88.124  70.125  87.964  0.00  0.00    +0.000 C 
ATOM     15  C   UNL     1      86.958  71.047  87.623  0.00  0.00    +0.000 C 
ATOM     16  C   UNL     1      86.653  71.046  86.129  0.00  0.00    +0.000 C 
ATOM     17  C   UNL     1      87.899  71.366  85.300  0.00  0.00    +0.000 C 
ENDBRANCH  10  12
ENDBRANCH   1  10
TORSDOF 3
ENDMDL
