REMARK  Name = *****
REMARK  4 active torsions:
REMARK  status: ('A' for Active; 'I' for Inactive)
REMARK    1  A    between atoms: C_1  and  C_2
REMARK    2  A    between atoms: C_7  and  C_8
REMARK    3  A    between atoms: C_8  and  C_9
REMARK    4  A    between atoms: C_9  and  C_10
REMARK                            x       y       z     vdW  Elec       q    Type
REMARK                         _______ _______ _______ _____ _____    ______ ____
ROOT
ATOM      1  C   UNL     1       1.099  -2.630   0.242  0.00  0.00    +0.000 C 
ATOM      2 CL   UNL     1       2.873  -2.605   0.523  0.00  0.00    +0.000 Cl
ENDROOT
BRANCH   1   9
ATOM      3  C   UNL     1      -1.068  -1.736   2.156  0.00  0.00    +0.000 C 
ATOM      4  C   UNL     1      -0.465  -0.799   1.144  0.00  0.00    +0.000 A 
ATOM      5  C   UNL     1      -0.936   0.525   1.098  0.00  0.00    +0.000 A 
ATOM      6  C   UNL     1      -0.419   1.441   0.184  0.00  0.00    +0.000 A 
ATOM      7  C   UNL     1       0.577   1.048  -0.700  0.00  0.00    +0.000 A 
ATOM      8  C   UNL     1       1.058  -0.260  -0.668  0.00  0.00    +0.000 A 
ATOM      9  C   UNL     1       0.556  -1.205   0.253  0.00  0.00    +0.000 A 
ENDBRANCH   1   9
BRANCH   1  10
ATOM     10  C   UNL     1       0.750  -3.355  -1.072  0.00  0.00    +0.000 C 
BRANCH  10  11
ATOM     11  C   UNL     1       1.088  -4.854  -1.077  0.00  0.00    +0.000 C 
ATOM     12  S   UNL     1       0.177  -5.844   0.158  0.00  0.00    +0.000 S 
ATOM     13  C   UNL     1      -1.510  -5.736  -0.500  0.00  0.00    +0.000 C 
ATOM     14  C   UNL     1      -1.641  -6.301  -1.907  0.00  0.00    +0.000 C 
ATOM     15  C   UNL     1      -0.882  -5.513  -2.963  0.00  0.00    +0.000 C 
ATOM     16  S   UNL     1       0.918  -5.585  -2.744  0.00  0.00    +0.000 S 
ENDBRANCH  10  11
ENDBRANCH   1  10
TORSDOF 3
