MODEL 1
REMARK VINA RESULT:      -4.0      0.000      0.000
REMARK  Name = *****
REMARK  4 active torsions:
REMARK  status: ('A' for Active; 'I' for Inactive)
REMARK    1  A    between atoms: C_1  and  C_2
REMARK    2  A    between atoms: C_7  and  S_8
REMARK    3  A    between atoms: S_8  and  C_9
REMARK    4  A    between atoms: C_9  and  C_10
REMARK                            x       y       z     vdW  Elec       q    Type
REMARK                         _______ _______ _______ _____ _____    ______ ____
ROOT
ATOM      1  S   UNL     1      86.691  64.087  86.571  0.00  0.00    +0.000 S 
ENDROOT
BRANCH   1   8
ATOM      2  C   UNL     1      87.604  66.879  87.787  0.00  0.00    +0.000 C 
ATOM      3  C   UNL     1      88.559  66.164  86.871  0.00  0.00    +0.000 A 
ATOM      4  C   UNL     1      89.804  66.753  86.592  0.00  0.00    +0.000 A 
ATOM      5  C   UNL     1      90.726  66.120  85.758  0.00  0.00    +0.000 A 
ATOM      6  C   UNL     1      90.419  64.886  85.192  0.00  0.00    +0.000 A 
ATOM      7  C   UNL     1      89.187  64.289  85.457  0.00  0.00    +0.000 A 
ATOM      8  C   UNL     1      88.250  64.920  86.287  0.00  0.00    +0.000 A 
ENDBRANCH   1   8
BRANCH   1   9
ATOM      9  C   UNL     1      87.291  62.764  87.671  0.00  0.00    +0.000 C 
BRANCH   9  10
ATOM     10  C   UNL     1      87.567  63.282  89.060  0.00  0.00    +0.000 A 
ATOM     11  C   UNL     1      86.510  63.577  89.934  0.00  0.00    +0.000 A 
ATOM     12  C   UNL     1      86.766  64.066  91.216  0.00  0.00    +0.000 A 
ATOM     13  C   UNL     1      88.079  64.270  91.636  0.00  0.00    +0.000 A 
ATOM     14  C   UNL     1      89.138  63.989  90.775  0.00  0.00    +0.000 A 
ATOM     15  C   UNL     1      88.884  63.501  89.492  0.00  0.00    +0.000 A 
ENDBRANCH   9  10
ENDBRANCH   1   9
TORSDOF 3
ENDMDL
