MODEL 1
REMARK VINA RESULT:      -4.7      0.000      0.000
REMARK  Name = *****
REMARK  2 active torsions:
REMARK  status: ('A' for Active; 'I' for Inactive)
REMARK    1  A    between atoms: C_4  and  C_7
REMARK    2  A    between atoms: C_8  and  C_9
REMARK                            x       y       z     vdW  Elec       q    Type
REMARK                         _______ _______ _______ _____ _____    ______ ____
ROOT
ATOM      1  C   UNL     1     101.970 125.985  82.274  0.00  0.00    +0.000 C 
ATOM      2  C   UNL     1     102.940 125.873  81.353  0.00  0.00    +0.000 C 
ATOM      3  F   UNL     1     103.113 126.890  80.476  0.00  0.00    +0.000 F 
ENDROOT
BRANCH   1   7
ATOM      4  C   UNL     1      98.993 128.735  83.833  0.00  0.00    +0.000 C 
ATOM      5  C   UNL     1     100.439 129.214  83.740  0.00  0.00    +0.000 C 
ATOM      6  C   UNL     1     101.409 128.045  83.576  0.00  0.00    +0.000 C 
ATOM      7  C   UNL     1     101.037 127.167  82.371  0.00  0.00    +0.000 C 
ATOM      8  C   UNL     1      99.580 126.687  82.477  0.00  0.00    +0.000 C 
ATOM      9  C   UNL     1      98.614 127.858  82.644  0.00  0.00    +0.000 C 
ENDBRANCH   1   7
BRANCH   2  10
ATOM     10  C   UNL     1     103.877 124.742  81.237  0.00  0.00    +0.000 A 
ATOM     11  C   UNL     1     104.619 124.480  80.075  0.00  0.00    +0.000 A 
ATOM     12  C   UNL     1     105.507 123.402  80.021  0.00  0.00    +0.000 A 
ATOM     13  C   UNL     1     105.674 122.576  81.129  0.00  0.00    +0.000 A 
ATOM     14  C   UNL     1     104.956 122.829  82.295  0.00  0.00    +0.000 A 
ATOM     15  C   UNL     1     104.068 123.908  82.349  0.00  0.00    +0.000 A 
ENDBRANCH   2  10
TORSDOF 2
ENDMDL
