MODEL 1
REMARK VINA RESULT:      -4.8      0.000      0.000
REMARK  Name = *****
REMARK  5 active torsions:
REMARK  status: ('A' for Active; 'I' for Inactive)
REMARK    1  A    between atoms: C_1  and  C_2
REMARK    2  A    between atoms: C_4  and  N_8
REMARK    3  A    between atoms: N_8  and  O_9
REMARK    4  A    between atoms: O_9  and  C_10
REMARK    5  A    between atoms: C_10  and  C_12
REMARK                            x       y       z     vdW  Elec       q    Type
REMARK                         _______ _______ _______ _____ _____    ______ ____
ROOT
ATOM      1  N   UNL     1     100.408 126.242  82.766  0.00  0.00    +0.000 N 
ATOM      2  H   UNL     1     100.262 125.688  83.568  0.00  0.00    +0.000 HD
ENDROOT
BRANCH   1   6
ATOM      3  C   UNL     1     104.428 125.049  80.091  0.00  0.00    +0.000 C 
ATOM      4  C   UNL     1     103.697 125.988  81.003  0.00  0.00    +0.000 A 
ATOM      5  C   UNL     1     102.420 125.662  81.484  0.00  0.00    +0.000 A 
ATOM      6  C   UNL     1     101.717 126.532  82.325  0.00  0.00    +0.000 A 
ATOM      7  C   UNL     1     102.282 127.777  82.622  0.00  0.00    +0.000 A 
ATOM      8  C   UNL     1     103.545 128.122  82.137  0.00  0.00    +0.000 A 
ATOM      9  C   UNL     1     104.251 127.230  81.332  0.00  0.00    +0.000 A 
ENDBRANCH   1   6
BRANCH   1  10
ATOM     10  O   UNL     1      99.316 126.756  82.044  0.00  0.00    +0.000 OA
BRANCH  10  11
ATOM     11  C   UNL     1      98.280 127.108  82.863  0.00  0.00    +0.000 C 
ATOM     12  O   UNL     1      97.217 126.504  82.943  0.00  0.00    +0.000 OA
BRANCH  11  13
ATOM     13  C   UNL     1      98.607 128.332  83.640  0.00  0.00    +0.000 A 
ATOM     14  C   UNL     1      98.370 128.318  85.021  0.00  0.00    +0.000 A 
ATOM     15  C   UNL     1      98.662 129.442  85.797  0.00  0.00    +0.000 A 
ATOM     16  C   UNL     1      99.193 130.583  85.198  0.00  0.00    +0.000 A 
ATOM     17  C   UNL     1      99.434 130.604  83.824  0.00  0.00    +0.000 A 
ATOM     18  C   UNL     1      99.143 129.482  83.044  0.00  0.00    +0.000 A 
ENDBRANCH  11  13
ENDBRANCH  10  11
ENDBRANCH   1  10
TORSDOF 4
ENDMDL
