MODEL 1
REMARK VINA RESULT:      -4.6      0.000      0.000
REMARK  Name = *****
REMARK  4 active torsions:
REMARK  status: ('A' for Active; 'I' for Inactive)
REMARK    1  A    between atoms: C_3  and  C_8
REMARK    2  A    between atoms: C_8  and  O_10
REMARK    3  A    between atoms: O_10  and  C_11
REMARK    4  A    between atoms: C_11  and  C_12
REMARK                            x       y       z     vdW  Elec       q    Type
REMARK                         _______ _______ _______ _____ _____    ______ ____
ROOT
ATOM      1  C   UNL     1      99.271 127.321  82.964  0.00  0.00    +0.000 C 
ATOM      2  O   UNL     1      98.519 126.990  82.061  0.00  0.00    +0.000 OA
ENDROOT
BRANCH   1   5
ATOM      3  C   UNL     1      99.345 130.902  84.160  0.00  0.00    +0.000 A 
ATOM      4  C   UNL     1      99.533 129.752  83.388  0.00  0.00    +0.000 A 
ATOM      5  C   UNL     1      99.039 128.512  83.826  0.00  0.00    +0.000 A 
ATOM      6  C   UNL     1      98.358 128.432  85.045  0.00  0.00    +0.000 A 
ATOM      7  C   UNL     1      98.178 129.585  85.802  0.00  0.00    +0.000 A 
ATOM      8  C   UNL     1      98.663 130.816  85.372  0.00  0.00    +0.000 A 
ATOM      9  F   UNL     1      97.524 129.508  86.969  0.00  0.00    +0.000 F 
ENDBRANCH   1   5
BRANCH   1  10
ATOM     10  O   UNL     1     100.406 126.683  83.336  0.00  0.00    +0.000 OA
BRANCH  10  11
ATOM     11  C   UNL     1     101.258 126.253  82.267  0.00  0.00    +0.000 C 
BRANCH  11  12
ATOM     12  C   UNL     1     102.399 127.227  82.123  0.00  0.00    +0.000 A 
ATOM     13  C   UNL     1     103.150 127.275  80.938  0.00  0.00    +0.000 A 
ATOM     14  C   UNL     1     104.223 128.162  80.817  0.00  0.00    +0.000 A 
ATOM     15  C   UNL     1     104.556 128.996  81.882  0.00  0.00    +0.000 A 
ATOM     16  C   UNL     1     103.828 128.949  83.069  0.00  0.00    +0.000 A 
ATOM     17  C   UNL     1     102.755 128.064  83.190  0.00  0.00    +0.000 A 
ATOM     18 CL   UNL     1     105.880 130.086  81.732  0.00  0.00    +0.000 Cl
ENDBRANCH  11  12
ENDBRANCH  10  11
ENDBRANCH   1  10
TORSDOF 4
ENDMDL
