MODEL 1
REMARK VINA RESULT:      -4.4      0.000      0.000
REMARK  Name = *****
REMARK  5 active torsions:
REMARK  status: ('A' for Active; 'I' for Inactive)
REMARK    1  A    between atoms: N_2  and  C_3
REMARK    2  A    between atoms: C_6  and  C_9
REMARK    3  A    between atoms: C_9  and  O_11
REMARK    4  A    between atoms: O_11  and  C_12
REMARK    5  A    between atoms: C_12  and  C_13
REMARK                            x       y       z     vdW  Elec       q    Type
REMARK                         _______ _______ _______ _____ _____    ______ ____
ROOT
ATOM      1  C   UNL     1     104.616 124.536  80.093  0.00  0.00    +0.000 C 
ATOM      2  O   UNL     1     105.590 124.824  79.418  0.00  0.00    +0.000 OA
ENDROOT
BRANCH   1   6
ATOM      3  C   UNL     1     104.534 121.298  82.885  0.00  0.00    +0.000 A 
ATOM      4  C   UNL     1     104.688 121.006  81.531  0.00  0.00    +0.000 A 
ATOM      5  C   UNL     1     104.717 122.052  80.604  0.00  0.00    +0.000 A 
ATOM      6  C   UNL     1     104.590 123.383  81.037  0.00  0.00    +0.000 A 
ATOM      7  C   UNL     1     104.439 123.654  82.407  0.00  0.00    +0.000 A 
ATOM      8  C   UNL     1     104.410 122.610  83.336  0.00  0.00    +0.000 A 
BRANCH   3  10
ATOM      9  C   UNL     1     104.479 119.382  84.581  0.00  0.00    +0.000 C 
ATOM     10  N   UNL     1     104.506 120.259  83.805  0.00  0.00    +0.000 NA
ENDBRANCH   3  10
ENDBRANCH   1   6
BRANCH   1  11
ATOM     11  O   UNL     1     103.431 125.189  80.115  0.00  0.00    +0.000 OA
BRANCH  11  12
ATOM     12  C   UNL     1     103.506 126.606  80.310  0.00  0.00    +0.000 C 
BRANCH  12  13
ATOM     13  C   UNL     1     102.779 126.971  81.578  0.00  0.00    +0.000 A 
ATOM     14  C   UNL     1     103.140 128.114  82.304  0.00  0.00    +0.000 A 
ATOM     15  C   UNL     1     102.479 128.436  83.491  0.00  0.00    +0.000 A 
ATOM     16  C   UNL     1     101.458 127.616  83.966  0.00  0.00    +0.000 A 
ATOM     17  C   UNL     1     101.098 126.471  83.259  0.00  0.00    +0.000 A 
ATOM     18  C   UNL     1     101.758 126.147  82.072  0.00  0.00    +0.000 A 
ENDBRANCH  12  13
ENDBRANCH  11  12
ENDBRANCH   1  11
TORSDOF 5
ENDMDL
