MODEL 1
REMARK VINA RESULT:      -3.8      0.000      0.000
REMARK  Name = *****
REMARK  4 active torsions:
REMARK  status: ('A' for Active; 'I' for Inactive)
REMARK    1  A    between atoms: C_1  and  O_2
REMARK    2  A    between atoms: O_2  and  C_3
REMARK    3  A    between atoms: C_8  and  C_9
REMARK    4  A    between atoms: C_10  and  C_11
REMARK                            x       y       z     vdW  Elec       q    Type
REMARK                         _______ _______ _______ _____ _____    ______ ____
ROOT
ATOM      1  C   UNL     1     101.439 128.205  83.383  0.00  0.00    +0.000 A 
ATOM      2  C   UNL     1     100.398 129.105  83.643  0.00  0.00    +0.000 A 
ATOM      3  C   UNL     1      99.085 128.803  83.272  0.00  0.00    +0.000 A 
ATOM      4  C   UNL     1      98.798 127.599  82.635  0.00  0.00    +0.000 A 
ATOM      5  C   UNL     1      99.824 126.694  82.369  0.00  0.00    +0.000 A 
ATOM      6  C   UNL     1     101.146 126.981  82.745  0.00  0.00    +0.000 A 
ENDROOT
BRANCH   1   8
ATOM      7  C   UNL     1     103.106 129.724  84.175  0.00  0.00    +0.000 C 
ATOM      8  O   UNL     1     102.755 128.435  83.693  0.00  0.00    +0.000 OA
ENDBRANCH   1   8
BRANCH   6   9
ATOM      9  C   UNL     1     102.171 125.977  82.419  0.00  0.00    +0.000 C 
ATOM     10  C   UNL     1     102.734 125.882  81.203  0.00  0.00    +0.000 C 
BRANCH  10  11
ATOM     11  C   UNL     1     103.782 124.877  80.840  0.00  0.00    +0.000 C 
ATOM     12  S   UNL     1     104.337 124.028  82.353  0.00  0.00    +0.000 S 
ATOM     13  C   UNL     1     106.105 124.383  82.176  0.00  0.00    +0.000 C 
ATOM     14  C   UNL     1     106.253 125.731  81.503  0.00  0.00    +0.000 C 
ATOM     15  S   UNL     1     105.183 125.716  80.047  0.00  0.00    +0.000 S 
ENDBRANCH  10  11
ENDBRANCH   6   9
TORSDOF 3
ENDMDL
