MODEL 1
REMARK VINA RESULT:      -3.3      0.000      0.000
REMARK  Name = *****
REMARK  4 active torsions:
REMARK  status: ('A' for Active; 'I' for Inactive)
REMARK    1  A    between atoms: C_4  and  S_6
REMARK    2  A    between atoms: S_6  and  S_7
REMARK    3  A    between atoms: S_7  and  S_8
REMARK    4  A    between atoms: S_8  and  C_9
REMARK                            x       y       z     vdW  Elec       q    Type
REMARK                         _______ _______ _______ _____ _____    ______ ____
ROOT
ATOM      1  S   UNL     1     104.341 128.688  82.827  0.00  0.00    +0.000 S 
ENDROOT
BRANCH   1   2
ATOM      2  S   UNL     1     105.593 127.202  82.163  0.00  0.00    +0.000 S 
BRANCH   2   6
ATOM      3  C   UNL     1     104.543 124.692  80.219  0.00  0.00    +0.000 C 
ATOM      4  C   UNL     1     103.265 125.489  80.481  0.00  0.00    +0.000 C 
ATOM      5  C   UNL     1     103.624 126.955  80.245  0.00  0.00    +0.000 C 
ATOM      6  C   UNL     1     105.146 127.032  80.390  0.00  0.00    +0.000 C 
ATOM      7  C   UNL     1     105.583 125.710  79.764  0.00  0.00    +0.000 C 
ENDBRANCH   2   6
ENDBRANCH   1   2
BRANCH   1   8
ATOM      8  S   UNL     1     102.933 127.754  83.992  0.00  0.00    +0.000 S 
BRANCH   8   9
ATOM      9  C   UNL     1     101.345 127.965  83.117  0.00  0.00    +0.000 C 
ATOM     10  C   UNL     1     100.291 128.811  83.821  0.00  0.00    +0.000 C 
ATOM     11  C   UNL     1      99.048 128.557  82.976  0.00  0.00    +0.000 C 
ATOM     12  C   UNL     1      99.169 127.110  82.497  0.00  0.00    +0.000 C 
ATOM     13  C   UNL     1     100.602 126.667  82.808  0.00  0.00    +0.000 C 
ENDBRANCH   8   9
ENDBRANCH   1   8
TORSDOF 4
ENDMDL
