MODEL 1
REMARK VINA RESULT:      -4.1      0.000      0.000
REMARK  Name = *****
REMARK  3 active torsions:
REMARK  status: ('A' for Active; 'I' for Inactive)
REMARK    1  A    between atoms: C_5  and  C_7
REMARK    2  A    between atoms: C_7  and  C_16
REMARK    3  A    between atoms: N_8  and  C_9
REMARK                            x       y       z     vdW  Elec       q    Type
REMARK                         _______ _______ _______ _____ _____    ______ ____
ROOT
ATOM      1  C   UNL     1      89.702  70.055  85.184  0.00  0.00    +0.000 C 
ATOM      2  N   UNL     1      89.909  68.849  84.735  0.00  0.00    +0.000 NA
ENDROOT
BRANCH   1   7
ATOM      3  C   UNL     1      88.542  70.652  88.709  0.00  0.00    +0.000 A 
ATOM      4  C   UNL     1      87.226  71.069  88.509  0.00  0.00    +0.000 A 
ATOM      5  C   UNL     1      86.706  71.159  87.216  0.00  0.00    +0.000 A 
ATOM      6  C   UNL     1      87.502  70.830  86.116  0.00  0.00    +0.000 A 
ATOM      7  C   UNL     1      88.818  70.408  86.320  0.00  0.00    +0.000 A 
ATOM      8  C   UNL     1      89.343  70.322  87.616  0.00  0.00    +0.000 A 
ATOM      9 CL   UNL     1      86.810  70.957  84.540  0.00  0.00    +0.000 Cl
ENDBRANCH   1   7
BRANCH   2  10
ATOM     10  C   UNL     1      89.246  67.757  85.307  0.00  0.00    +0.000 A 
ATOM     11  C   UNL     1      87.958  67.406  84.886  0.00  0.00    +0.000 A 
ATOM     12  C   UNL     1      87.307  66.307  85.450  0.00  0.00    +0.000 A 
ATOM     13  C   UNL     1      87.956  65.554  86.423  0.00  0.00    +0.000 A 
ATOM     14  C   UNL     1      89.245  65.874  86.834  0.00  0.00    +0.000 A 
ATOM     15  C   UNL     1      89.893  66.973  86.268  0.00  0.00    +0.000 A 
ATOM     16  F   UNL     1      87.333  64.500  86.965  0.00  0.00    +0.000 F 
ENDBRANCH   2  10
BRANCH   1  17
ATOM     17  C   UNL     1      90.433  71.210  84.532  0.00  0.00    +0.000 C 
ATOM     18 CL   UNL     1      91.187  70.625  83.033  0.00  0.00    +0.000 Cl
ENDBRANCH   1  17
TORSDOF 3
ENDMDL
