REMARK  Name = *****
REMARK  4 active torsions:
REMARK  status: ('A' for Active; 'I' for Inactive)
REMARK    1  A    between atoms: C_1  and  S_2
REMARK    2  A    between atoms: S_2  and  N_3
REMARK    3  A    between atoms: S_2  and  C_12
REMARK    4  A    between atoms: N_3  and  C_4
REMARK                            x       y       z     vdW  Elec       q    Type
REMARK                         _______ _______ _______ _____ _____    ______ ____
ROOT
ATOM      1  C   UNL     1       1.215   0.085  -0.114  0.00  0.00    +0.000 C 
ATOM      2  S   UNL     1       2.990  -0.009  -0.081  0.00  0.00    +0.000 S 
ATOM      3  O   UNL     1       3.460   1.242  -0.649  0.00  0.00    +0.000 OA
ENDROOT
BRANCH   2   4
ATOM      4  C   UNL     1       3.482   0.073   1.633  0.00  0.00    +0.000 A 
ATOM      5  C   UNL     1       4.714  -0.481   2.000  0.00  0.00    +0.000 A 
ATOM      6  C   UNL     1       5.113  -0.457   3.336  0.00  0.00    +0.000 A 
ATOM      7  C   UNL     1       4.290   0.129   4.298  0.00  0.00    +0.000 A 
ATOM      8  C   UNL     1       3.072   0.700   3.926  0.00  0.00    +0.000 A 
ATOM      9  C   UNL     1       2.663   0.676   2.591  0.00  0.00    +0.000 A 
ENDBRANCH   2   4
BRANCH   2  10
ATOM     10  N   UNL     1       3.387  -1.393  -0.629  0.00  0.00    +0.000 NA
BRANCH  10  11
ATOM     11  C   UNL     1       3.086  -2.701  -0.155  0.00  0.00    +0.000 A 
ATOM     12  C   UNL     1       2.378  -3.008   1.008  0.00  0.00    +0.000 A 
ATOM     13  C   UNL     1       2.161  -4.342   1.377  0.00  0.00    +0.000 A 
ATOM     14  C   UNL     1       2.654  -5.375   0.583  0.00  0.00    +0.000 A 
ATOM     15  C   UNL     1       3.362  -5.085  -0.579  0.00  0.00    +0.000 A 
ATOM     16  C   UNL     1       3.575  -3.751  -0.941  0.00  0.00    +0.000 A 
ATOM     17 CL   UNL     1       2.390  -7.010   1.043  0.00  0.00    +0.000 Cl
ENDBRANCH  10  11
ENDBRANCH   2  10
TORSDOF 3
