MODEL 1
REMARK VINA RESULT:      -3.9      0.000      0.000
REMARK  Name = *****
REMARK  5 active torsions:
REMARK  status: ('A' for Active; 'I' for Inactive)
REMARK    1  A    between atoms: C_1  and  C_2
REMARK    2  A    between atoms: C_3  and  C_17
REMARK    3  A    between atoms: C_6  and  O_7
REMARK    4  A    between atoms: O_7  and  C_8
REMARK    5  A    between atoms: C_8  and  C_9
REMARK                            x       y       z     vdW  Elec       q    Type
REMARK                         _______ _______ _______ _____ _____    ______ ____
ROOT
ATOM      1  C   UNL     1      82.694  62.601  89.936  0.00  0.00    +0.000 C 
ATOM      2  C   UNL     1      83.770  62.611  88.883  0.00  0.00    +0.000 C 
ATOM      3  C   UNL     1      85.015  62.098  89.031  0.00  0.00    +0.000 C 
ATOM      4  C   UNL     1      86.088  62.216  87.955  0.00  0.00    +0.000 C 
ATOM      5  C   UNL     1      85.702  63.119  86.811  0.00  0.00    +0.000 C 
ATOM      6  C   UNL     1      86.550  63.967  86.210  0.00  0.00    +0.000 C 
ATOM      7  C   UNL     1      84.260  63.009  86.402  0.00  0.00    +0.000 C 
ATOM      8  C   UNL     1      83.345  63.293  87.595  0.00  0.00    +0.000 C 
ATOM      9  C   UNL     1      85.497  61.359  90.253  0.00  0.00    +0.000 C 
ENDROOT
BRANCH   6  10
ATOM     10  O   UNL     1      87.863  64.086  86.581  0.00  0.00    +0.000 OA
BRANCH  10  11
ATOM     11  C   UNL     1      88.113  65.265  87.354  0.00  0.00    +0.000 C 
BRANCH  11  12
ATOM     12  C   UNL     1      87.813  65.001  88.812  0.00  0.00    +0.000 A 
ATOM     13  C   UNL     1      86.671  65.542  89.421  0.00  0.00    +0.000 A 
ATOM     14  C   UNL     1      86.378  65.263  90.757  0.00  0.00    +0.000 A 
ATOM     15  C   UNL     1      87.217  64.433  91.497  0.00  0.00    +0.000 A 
ATOM     16  C   UNL     1      88.348  63.878  90.900  0.00  0.00    +0.000 A 
ATOM     17  C   UNL     1      88.643  64.157  89.563  0.00  0.00    +0.000 A 
ENDBRANCH  11  12
ENDBRANCH  10  11
ENDBRANCH   6  10
TORSDOF 3
ENDMDL
