MODEL 1
REMARK VINA RESULT:      -4.6      0.000      0.000
REMARK  Name = *****
REMARK  4 active torsions:
REMARK  status: ('A' for Active; 'I' for Inactive)
REMARK    1  A    between atoms: C_1  and  C_2
REMARK    2  A    between atoms: C_2  and  C_3
REMARK    3  A    between atoms: C_2  and  P_9
REMARK    4  A    between atoms: P_9  and  C_11
REMARK                            x       y       z     vdW  Elec       q    Type
REMARK                         _______ _______ _______ _____ _____    ______ ____
ROOT
ATOM      1  P   UNL     1      88.235  65.889  86.431  0.00  0.00    +0.000 P 
ATOM      2  O   UNL     1      88.121  64.920  85.280  0.00  0.00    +0.000 OA
ATOM      3 CL   UNL     1      86.840  67.331  86.221  0.00  0.00    +0.000 Cl
ENDROOT
BRANCH   1   4
ATOM      4  C   UNL     1      87.895  65.235  88.046  0.00  0.00    +0.000 A 
ATOM      5  C   UNL     1      86.859  65.737  88.849  0.00  0.00    +0.000 A 
ATOM      6  C   UNL     1      86.630  65.215  90.123  0.00  0.00    +0.000 A 
ATOM      7  C   UNL     1      87.435  64.188  90.611  0.00  0.00    +0.000 A 
ATOM      8  C   UNL     1      88.467  63.679  89.827  0.00  0.00    +0.000 A 
ATOM      9  C   UNL     1      88.695  64.200  88.552  0.00  0.00    +0.000 A 
ENDBRANCH   1   4
BRANCH   1  11
ATOM     10  C   UNL     1      90.875  66.048  85.597  0.00  0.00    +0.000 C 
ATOM     11  C   UNL     1      89.832  66.780  86.448  0.00  0.00    +0.000 C 
BRANCH  11  12
ATOM     12  C   UNL     1      89.791  68.249  86.057  0.00  0.00    +0.000 A 
ATOM     13  C   UNL     1      89.631  69.254  87.022  0.00  0.00    +0.000 A 
ATOM     14  C   UNL     1      89.595  70.598  86.648  0.00  0.00    +0.000 A 
ATOM     15  C   UNL     1      89.711  70.954  85.306  0.00  0.00    +0.000 A 
ATOM     16  C   UNL     1      89.862  69.966  84.337  0.00  0.00    +0.000 A 
ATOM     17  C   UNL     1      89.900  68.620  84.709  0.00  0.00    +0.000 A 
ENDBRANCH  11  12
ENDBRANCH   1  11
TORSDOF 3
ENDMDL
