MODEL 1
REMARK VINA RESULT:      -4.6      0.000      0.000
REMARK  Name = *****
REMARK  4 active torsions:
REMARK  status: ('A' for Active; 'I' for Inactive)
REMARK    1  A    between atoms: C_4  and  C_7
REMARK    2  A    between atoms: C_7  and  O_8
REMARK    3  A    between atoms: O_8  and  C_9
REMARK    4  A    between atoms: C_9  and  C_11
REMARK                            x       y       z     vdW  Elec       q    Type
REMARK                         _______ _______ _______ _____ _____    ______ ____
ROOT
ATOM      1  C   UNL     1      88.390  67.680  86.930  0.00  0.00    +0.000 A 
ATOM      2  C   UNL     1      89.250  68.745  86.680  0.00  0.00    +0.000 A 
ATOM      3  C   UNL     1      89.110  69.931  87.393  0.00  0.00    +0.000 A 
ATOM      4  C   UNL     1      88.118  70.051  88.358  0.00  0.00    +0.000 A 
ATOM      5  C   UNL     1      87.265  68.984  88.612  0.00  0.00    +0.000 A 
ATOM      6  C   UNL     1      87.402  67.796  87.903  0.00  0.00    +0.000 A 
ATOM      7  F   UNL     1      86.559  66.784  88.148  0.00  0.00    +0.000 F 
ATOM      8  F   UNL     1      86.306  69.102  89.541  0.00  0.00    +0.000 F 
ATOM      9  F   UNL     1      87.984  71.194  89.044  0.00  0.00    +0.000 F 
ATOM     10  F   UNL     1      89.939  70.956  87.153  0.00  0.00    +0.000 F 
ATOM     11  F   UNL     1      90.229  68.636  85.771  0.00  0.00    +0.000 F 
ENDROOT
BRANCH   1  12
ATOM     12  C   UNL     1      88.535  66.423  86.203  0.00  0.00    +0.000 C 
ATOM     13  O   UNL     1      88.018  66.197  85.125  0.00  0.00    +0.000 OA
BRANCH  12  14
ATOM     14  O   UNL     1      89.358  65.617  86.908  0.00  0.00    +0.000 OA
BRANCH  14  15
ATOM     15  C   UNL     1      89.056  64.225  86.769  0.00  0.00    +0.000 C 
BRANCH  15  19
ATOM     16  C   UNL     1      86.737  63.023  90.199  0.00  0.00    +0.000 A 
ATOM     17  C   UNL     1      87.818  63.888  90.355  0.00  0.00    +0.000 A 
ATOM     18  C   UNL     1      88.567  64.279  89.244  0.00  0.00    +0.000 A 
ATOM     19  C   UNL     1      88.237  63.811  87.963  0.00  0.00    +0.000 A 
ATOM     20  C   UNL     1      87.153  62.933  87.819  0.00  0.00    +0.000 A 
ATOM     21  C   UNL     1      86.406  62.544  88.932  0.00  0.00    +0.000 A 
ENDBRANCH  15  19
ENDBRANCH  14  15
ENDBRANCH  12  14
ENDBRANCH   1  12
TORSDOF 4
ENDMDL
