MODEL 1
REMARK VINA RESULT:      -3.8      0.000      0.000
REMARK  Name = *****
REMARK  3 active torsions:
REMARK  status: ('A' for Active; 'I' for Inactive)
REMARK    1  A    between atoms: C_5  and  C_6
REMARK    2  A    between atoms: C_6  and  S_7
REMARK    3  A    between atoms: S_7  and  C_8
REMARK                            x       y       z     vdW  Elec       q    Type
REMARK                         _______ _______ _______ _____ _____    ______ ____
ROOT
ATOM      1  C   UNL     1      89.209  68.849  86.130  0.00  0.00    +0.000 C 
ENDROOT
BRANCH   1   6
ATOM      2  C   UNL     1      89.510  63.555  85.157  0.00  0.00    +0.000 C 
ATOM      3  C   UNL     1      90.060  64.776  84.429  0.00  0.00    +0.000 C 
ATOM      4  S   UNL     1      90.695  66.049  85.555  0.00  0.00    +0.000 S 
ATOM      5  C   UNL     1      89.283  66.322  86.527  0.00  0.00    +0.000 C 
ATOM      6  C   UNL     1      88.751  67.544  86.705  0.00  0.00    +0.000 C 
ATOM      7  S   UNL     1      88.576  64.973  87.371  0.00  0.00    +0.000 S 
ATOM      8  C   UNL     1      88.260  63.859  85.975  0.00  0.00    +0.000 C 
ENDBRANCH   1   6
BRANCH   1   9
ATOM      9  S   UNL     1      89.217  70.099  87.457  0.00  0.00    +0.000 S 
BRANCH   9  10
ATOM     10  C   UNL     1      87.627  70.844  87.151  0.00  0.00    +0.000 A 
ATOM     11  C   UNL     1      87.220  71.089  85.836  0.00  0.00    +0.000 A 
ATOM     12  C   UNL     1      85.975  71.669  85.581  0.00  0.00    +0.000 A 
ATOM     13  C   UNL     1      85.129  71.997  86.640  0.00  0.00    +0.000 A 
ATOM     14  C   UNL     1      85.525  71.744  87.953  0.00  0.00    +0.000 A 
ATOM     15  C   UNL     1      86.770  71.166  88.207  0.00  0.00    +0.000 A 
ENDBRANCH   9  10
ENDBRANCH   1   9
TORSDOF 3
ENDMDL
