REMARK  Name = *****
REMARK  3 active torsions:
REMARK  status: ('A' for Active; 'I' for Inactive)
REMARK    1  A    between atoms: C_4  and  C_7
REMARK    2  A    between atoms: C_7  and  C_8
REMARK    3  A    between atoms: C_9  and  C_10
REMARK                            x       y       z     vdW  Elec       q    Type
REMARK                         _______ _______ _______ _____ _____    ______ ____
ROOT
ATOM      1  C   UNL     1      -2.840   0.402  -0.118  0.00  0.00    +0.000 C 
ENDROOT
BRANCH   1   5
ATOM      2  C   UNL     1       1.384  -0.353   0.343  0.00  0.00    +0.000 A 
ATOM      3  C   UNL     1       0.892   0.138  -0.865  0.00  0.00    +0.000 A 
ATOM      4  C   UNL     1      -0.474   0.385  -1.016  0.00  0.00    +0.000 A 
ATOM      5  C   UNL     1      -1.361   0.148   0.044  0.00  0.00    +0.000 A 
ATOM      6  C   UNL     1      -0.855  -0.352   1.253  0.00  0.00    +0.000 A 
ATOM      7  C   UNL     1       0.511  -0.599   1.401  0.00  0.00    +0.000 A 
ENDBRANCH   1   5
BRANCH   1   8
ATOM      8  C   UNL     1      -3.615  -0.868  -0.343  0.00  0.00    +0.000 C 
ATOM      9  C   UNL     1      -4.619  -1.272   0.452  0.00  0.00    +0.000 C 
BRANCH   9  10
ATOM     10  C   UNL     1      -5.343  -2.480   0.228  0.00  0.00    +0.000 A 
ATOM     11  C   UNL     1      -5.163  -3.496  -0.699  0.00  0.00    +0.000 A 
ATOM     12  C   UNL     1      -6.121  -4.546  -0.582  0.00  0.00    +0.000 A 
ATOM     13  C   UNL     1      -7.015  -4.312   0.435  0.00  0.00    +0.000 A 
ATOM     14  S   UNL     1      -6.696  -2.842   1.240  0.00  0.00    +0.000 S 
ENDBRANCH   9  10
ENDBRANCH   1   8
TORSDOF 3
