REMARK  Name = *****
REMARK  3 active torsions:
REMARK  status: ('A' for Active; 'I' for Inactive)
REMARK    1  A    between atoms: N_6  and  O_7
REMARK    2  A    between atoms: O_7  and  C_8
REMARK    3  A    between atoms: C_8  and  C_9
REMARK                            x       y       z     vdW  Elec       q    Type
REMARK                         _______ _______ _______ _____ _____    ______ ____
ROOT
ATOM      1  C   UNL     1       1.916  -5.578  -0.106  0.00  0.00    +0.000 A 
ATOM      2  C   UNL     1       1.628  -6.194  -1.327  0.00  0.00    +0.000 A 
ATOM      3  C   UNL     1       1.060  -7.464  -1.373  0.00  0.00    +0.000 A 
ATOM      4  C   UNL     1       0.765  -8.136  -0.195  0.00  0.00    +0.000 A 
ATOM      5  C   UNL     1       1.036  -7.538   1.027  0.00  0.00    +0.000 A 
ATOM      6  C   UNL     1       1.605  -6.267   1.069  0.00  0.00    +0.000 A 
ATOM      7  F   UNL     1       1.858  -5.701   2.257  0.00  0.00    +0.000 F 
ATOM      8  F   UNL     1       0.751  -8.181   2.167  0.00  0.00    +0.000 F 
ATOM      9  F   UNL     1       0.219  -9.359  -0.238  0.00  0.00    +0.000 F 
ATOM     10  F   UNL     1       0.799  -8.038  -2.556  0.00  0.00    +0.000 F 
ATOM     11  F   UNL     1       1.905  -5.557  -2.474  0.00  0.00    +0.000 F 
ENDROOT
BRANCH   1  12
ATOM     12  C   UNL     1       2.489  -4.195  -0.057  0.00  0.00    +0.000 C 
BRANCH  12  13
ATOM     13  O   UNL     1       1.403  -3.271   0.010  0.00  0.00    +0.000 OA
BRANCH  13  19
ATOM     14  C   UNL     1       0.465   1.297  -0.475  0.00  0.00    +0.000 C 
ATOM     15  C   UNL     1      -0.958   1.124   0.050  0.00  0.00    +0.000 C 
ATOM     16  C   UNL     1      -1.347  -0.319   0.172  0.00  0.00    +0.000 C 
ATOM     17  C   UNL     1      -0.477  -1.338   0.189  0.00  0.00    +0.000 C 
ATOM     18  C   UNL     1       0.993  -1.073   0.147  0.00  0.00    +0.000 C 
ATOM     19  N   UNL     1       1.927  -1.971   0.079  0.00  0.00    +0.000 NA
ATOM     20  C   UNL     1       1.437   0.378   0.247  0.00  0.00    +0.000 C 
ENDBRANCH  13  19
ENDBRANCH  12  13
ENDBRANCH   1  12
TORSDOF 3
