MODEL 1
REMARK VINA RESULT:      -4.2      0.000      0.000
REMARK  Name = *****
REMARK  5 active torsions:
REMARK  status: ('A' for Active; 'I' for Inactive)
REMARK    1  A    between atoms: N_2  and  C_3
REMARK    2  A    between atoms: C_8  and  C_9
REMARK    3  A    between atoms: C_9  and  O_10
REMARK    4  A    between atoms: O_10  and  C_11
REMARK    5  A    between atoms: C_11  and  C_12
REMARK                            x       y       z     vdW  Elec       q    Type
REMARK                         _______ _______ _______ _____ _____    ______ ____
ROOT
ATOM      1  C   UNL     1     103.898 126.388  80.416  0.00  0.00    +0.000 C 
ENDROOT
BRANCH   1   7
ATOM      2  C   UNL     1     103.251 128.022  82.266  0.00  0.00    +0.000 A 
ATOM      3  C   UNL     1     102.410 128.434  83.304  0.00  0.00    +0.000 A 
ATOM      4  C   UNL     1     101.301 127.660  83.641  0.00  0.00    +0.000 A 
ATOM      5  C   UNL     1     101.040 126.484  82.940  0.00  0.00    +0.000 A 
ATOM      6  C   UNL     1     101.888 126.078  81.905  0.00  0.00    +0.000 A 
ATOM      7  C   UNL     1     103.018 126.836  81.555  0.00  0.00    +0.000 A 
BRANCH   2   9
ATOM      8  C   UNL     1     105.256 129.515  81.702  0.00  0.00    +0.000 C 
ATOM      9  N   UNL     1     104.333 128.839  81.957  0.00  0.00    +0.000 NA
ENDBRANCH   2   9
ENDBRANCH   1   7
BRANCH   1  10
ATOM     10  O   UNL     1     103.598 125.028  80.103  0.00  0.00    +0.000 OA
BRANCH  10  11
ATOM     11  C   UNL     1     104.770 124.215  80.117  0.00  0.00    +0.000 C 
BRANCH  11  12
ATOM     12  C   UNL     1     104.624 123.109  81.132  0.00  0.00    +0.000 A 
ATOM     13  C   UNL     1     104.653 121.768  80.723  0.00  0.00    +0.000 A 
ATOM     14  C   UNL     1     104.568 120.736  81.662  0.00  0.00    +0.000 A 
ATOM     15  C   UNL     1     104.464 121.034  83.018  0.00  0.00    +0.000 A 
ATOM     16  C   UNL     1     104.447 122.361  83.440  0.00  0.00    +0.000 A 
ATOM     17  C   UNL     1     104.533 123.392  82.503  0.00  0.00    +0.000 A 
ENDBRANCH  11  12
ENDBRANCH  10  11
ENDBRANCH   1  10
TORSDOF 5
ENDMDL
