REMARK  Name = *****
REMARK  5 active torsions:
REMARK  status: ('A' for Active; 'I' for Inactive)
REMARK    1  A    between atoms: C_1  and  C_2
REMARK    2  A    between atoms: C_5  and  C_8
REMARK    3  A    between atoms: C_9  and  O_10
REMARK    4  A    between atoms: O_10  and  C_11
REMARK    5  A    between atoms: C_14  and  C_17
REMARK                            x       y       z     vdW  Elec       q    Type
REMARK                         _______ _______ _______ _____ _____    ______ ____
ROOT
ATOM      1  C   UNL     1      -3.259   0.057  -0.253  0.00  0.00    +0.000 C 
ATOM      2  C   UNL     1      -4.015   1.143  -0.452  0.00  0.00    +0.000 C 
ENDROOT
BRANCH   1   7
ATOM      3  C   UNL     1       2.506  -0.036   0.274  0.00  0.00    +0.000 C 
ATOM      4  C   UNL     1       1.014   0.016   0.131  0.00  0.00    +0.000 A 
ATOM      5  C   UNL     1       0.277   1.084   0.653  0.00  0.00    +0.000 A 
ATOM      6  C   UNL     1      -1.116   1.114   0.527  0.00  0.00    +0.000 A 
ATOM      7  C   UNL     1      -1.797   0.079  -0.125  0.00  0.00    +0.000 A 
ATOM      8  C   UNL     1      -1.059  -1.001  -0.624  0.00  0.00    +0.000 A 
ATOM      9  C   UNL     1       0.334  -1.031  -0.501  0.00  0.00    +0.000 A 
ENDBRANCH   1   7
BRANCH   2  10
ATOM     10  O   UNL     1      -5.385   1.058  -0.566  0.00  0.00    +0.000 OA
BRANCH  10  11
ATOM     11  C   UNL     1      -6.045   2.197  -0.958  0.00  0.00    +0.000 A 
ATOM     12  C   UNL     1      -5.778   2.815  -2.180  0.00  0.00    +0.000 A 
ATOM     13  C   UNL     1      -6.502   3.949  -2.555  0.00  0.00    +0.000 A 
ATOM     14  C   UNL     1      -7.496   4.466  -1.714  0.00  0.00    +0.000 A 
ATOM     15  C   UNL     1      -7.778   3.814  -0.506  0.00  0.00    +0.000 A 
ATOM     16  C   UNL     1      -7.055   2.680  -0.130  0.00  0.00    +0.000 A 
ATOM     17  C   UNL     1      -8.298   5.662  -2.136  0.00  0.00    +0.000 C 
ENDBRANCH  10  11
ENDBRANCH   2  10
TORSDOF 3
