MODEL 1
REMARK VINA RESULT:      -4.5      0.000      0.000
REMARK  Name = *****
REMARK  5 active torsions:
REMARK  status: ('A' for Active; 'I' for Inactive)
REMARK    1  A    between atoms: C_1  and  O_2
REMARK    2  A    between atoms: O_2  and  P_3
REMARK    3  A    between atoms: P_3  and  C_5
REMARK    4  A    between atoms: P_3  and  C_11
REMARK    5  A    between atoms: C_11  and  C_12
REMARK                            x       y       z     vdW  Elec       q    Type
REMARK                         _______ _______ _______ _____ _____    ______ ____
ROOT
ATOM      1  P   UNL     1      88.502  70.209  86.846  0.00  0.00    +0.000 P 
ATOM      2  O   UNL     1      89.570  71.001  87.571  0.00  0.00    +0.000 OA
ENDROOT
BRANCH   1   3
ATOM      3  C   UNL     1      88.781  68.450  86.798  0.00  0.00    +0.000 A 
ATOM      4  C   UNL     1      89.948  67.910  86.241  0.00  0.00    +0.000 A 
ATOM      5  C   UNL     1      90.149  66.529  86.213  0.00  0.00    +0.000 A 
ATOM      6  C   UNL     1      89.183  65.674  86.740  0.00  0.00    +0.000 A 
ATOM      7  C   UNL     1      88.016  66.197  87.293  0.00  0.00    +0.000 A 
ATOM      8  C   UNL     1      87.815  67.578  87.321  0.00  0.00    +0.000 A 
ENDBRANCH   1   3
BRANCH   1   9
ATOM      9  C   UNL     1      88.155  70.844  85.184  0.00  0.00    +0.000 C 
ATOM     10  F   UNL     1      87.702  69.723  84.553  0.00  0.00    +0.000 F 
ATOM     11  F   UNL     1      87.056  71.624  85.402  0.00  0.00    +0.000 F 
BRANCH   9  12
ATOM     12  C   UNL     1      89.260  71.545  84.438  0.00  0.00    +0.000 A 
ATOM     13  C   UNL     1      89.060  72.841  83.932  0.00  0.00    +0.000 A 
ATOM     14  C   UNL     1      90.075  73.489  83.226  0.00  0.00    +0.000 A 
ATOM     15  C   UNL     1      91.289  72.845  83.026  0.00  0.00    +0.000 A 
ATOM     16  C   UNL     1      91.509  71.564  83.517  0.00  0.00    +0.000 A 
ATOM     17  C   UNL     1      90.495  70.912  84.221  0.00  0.00    +0.000 A 
ATOM     18  F   UNL     1      92.263  73.467  82.348  0.00  0.00    +0.000 F 
ENDBRANCH   9  12
ENDBRANCH   1   9
BRANCH   1  20
ATOM     19  C   UNL     1      87.049  71.209  88.760  0.00  0.00    +0.000 C 
ATOM     20  O   UNL     1      87.067  70.378  87.614  0.00  0.00    +0.000 OA
ENDBRANCH   1  20
TORSDOF 4
ENDMDL
