REMARK  Name = *****
REMARK  3 active torsions:
REMARK  status: ('A' for Active; 'I' for Inactive)
REMARK    1  A    between atoms: C_6  and  O_7
REMARK    2  A    between atoms: O_7  and  C_8
REMARK    3  A    between atoms: C_8  and  C_10
REMARK                            x       y       z     vdW  Elec       q    Type
REMARK                         _______ _______ _______ _____ _____    ______ ____
ROOT
ATOM      1  C   UNL     1       4.521   1.334  -0.220  0.00  0.00    +0.000 C 
ATOM      2  O   UNL     1       4.044   2.306  -0.785  0.00  0.00    +0.000 OA
ENDROOT
BRANCH   1   3
ATOM      3  C   UNL     1       5.963   1.225   0.089  0.00  0.00    +0.000 A 
ATOM      4  C   UNL     1       6.447   0.461   1.155  0.00  0.00    +0.000 A 
ATOM      5  C   UNL     1       7.812   0.389   1.419  0.00  0.00    +0.000 A 
ATOM      6  C   UNL     1       8.696   1.093   0.613  0.00  0.00    +0.000 A 
ATOM      7  C   UNL     1       8.239   1.873  -0.446  0.00  0.00    +0.000 A 
ATOM      8  C   UNL     1       6.869   1.944  -0.707  0.00  0.00    +0.000 A 
ATOM      9  F   UNL     1      10.010   1.028   0.862  0.00  0.00    +0.000 F 
ATOM     10  F   UNL     1       5.614  -0.200   1.971  0.00  0.00    +0.000 F 
ENDBRANCH   1   3
BRANCH   1  11
ATOM     11  O   UNL     1       3.875   0.172   0.153  0.00  0.00    +0.000 OA
BRANCH  11  17
ATOM     12  C   UNL     1       1.958   0.272  -1.363  0.00  0.00    +0.000 A 
ATOM     13  C   UNL     1       0.581   0.138  -1.548  0.00  0.00    +0.000 A 
ATOM     14  C   UNL     1      -0.238  -0.179  -0.463  0.00  0.00    +0.000 A 
ATOM     15  C   UNL     1       0.308  -0.369   0.807  0.00  0.00    +0.000 A 
ATOM     16  C   UNL     1       1.684  -0.234   0.997  0.00  0.00    +0.000 A 
ATOM     17  C   UNL     1       2.495   0.105  -0.086  0.00  0.00    +0.000 A 
ATOM     18 CL   UNL     1      -1.935  -0.348  -0.696  0.00  0.00    +0.000 Cl
ENDBRANCH  11  17
ENDBRANCH   1  11
TORSDOF 3
