MODEL 1
REMARK VINA RESULT:      -4.4      0.000      0.000
REMARK  Name = *****
REMARK  3 active torsions:
REMARK  status: ('A' for Active; 'I' for Inactive)
REMARK    1  A    between atoms: C_4  and  C_7
REMARK    2  A    between atoms: C_7  and  C_8
REMARK    3  A    between atoms: C_9  and  C_10
REMARK                            x       y       z     vdW  Elec       q    Type
REMARK                         _______ _______ _______ _____ _____    ______ ____
ROOT
ATOM      1  C   UNL     1      99.791 126.685  82.415  0.00  0.00    +0.000 C 
ATOM      2  C   UNL     1      98.851 127.635  82.560  0.00  0.00    +0.000 C 
ENDROOT
BRANCH   2   3
ATOM      3  C   UNL     1      98.876 128.684  83.578  0.00  0.00    +0.000 A 
ATOM      4  C   UNL     1      99.423 129.940  83.295  0.00  0.00    +0.000 A 
ATOM      5  C   UNL     1      99.446 130.933  84.276  0.00  0.00    +0.000 A 
ATOM      6  C   UNL     1      98.921 130.675  85.542  0.00  0.00    +0.000 A 
ATOM      7  C   UNL     1      98.372 129.426  85.828  0.00  0.00    +0.000 A 
ATOM      8  C   UNL     1      98.349 128.432  84.848  0.00  0.00    +0.000 A 
ENDBRANCH   2   3
BRANCH   1   9
ATOM      9  C   UNL     1     101.035 126.498  83.239  0.00  0.00    +0.000 C 
BRANCH   9  13
ATOM     10  C   UNL     1     104.364 128.704  81.603  0.00  0.00    +0.000 A 
ATOM     11  C   UNL     1     103.880 129.015  82.872  0.00  0.00    +0.000 A 
ATOM     12  C   UNL     1     102.806 128.302  83.406  0.00  0.00    +0.000 A 
ATOM     13  C   UNL     1     102.210 127.264  82.675  0.00  0.00    +0.000 A 
ATOM     14  C   UNL     1     102.700 126.965  81.397  0.00  0.00    +0.000 A 
ATOM     15  C   UNL     1     103.774 127.681  80.865  0.00  0.00    +0.000 A 
ENDBRANCH   9  13
ENDBRANCH   1   9
TORSDOF 3
ENDMDL
