MODEL 1
REMARK VINA RESULT:      -4.2      0.000      0.000
REMARK  Name = *****
REMARK  3 active torsions:
REMARK  status: ('A' for Active; 'I' for Inactive)
REMARK    1  A    between atoms: C_4  and  S_7
REMARK    2  A    between atoms: S_7  and  S_8
REMARK    3  A    between atoms: S_8  and  C_10
REMARK                            x       y       z     vdW  Elec       q    Type
REMARK                         _______ _______ _______ _____ _____    ______ ____
ROOT
ATOM      1  S   UNL     1     103.604 125.416  83.551  0.00  0.00    +0.000 S 
ATOM      2  O   UNL     1     102.761 124.696  84.562  0.00  0.00    +0.000 OA
ENDROOT
BRANCH   1   3
ATOM      3  C   UNL     1     104.595 124.165  82.640  0.00  0.00    +0.000 C 
ATOM      4  C   UNL     1     104.187 124.176  81.161  0.00  0.00    +0.000 C 
ATOM      5  C   UNL     1     104.925 123.101  80.368  0.00  0.00    +0.000 C 
ATOM      6  C   UNL     1     104.731 121.718  80.982  0.00  0.00    +0.000 C 
ATOM      7  C   UNL     1     105.126 121.699  82.455  0.00  0.00    +0.000 C 
ATOM      8  C   UNL     1     104.388 122.775  83.251  0.00  0.00    +0.000 C 
ENDBRANCH   1   3
BRANCH   1   9
ATOM      9  S   UNL     1     102.170 125.895  82.195  0.00  0.00    +0.000 S 
BRANCH   9  13
ATOM     10  C   UNL     1      99.247 129.312  83.323  0.00  0.00    +0.000 C 
ATOM     11  C   UNL     1      98.682 127.906  83.147  0.00  0.00    +0.000 C 
ATOM     12  C   UNL     1      99.672 126.988  82.431  0.00  0.00    +0.000 C 
ATOM     13  C   UNL     1     101.025 126.953  83.155  0.00  0.00    +0.000 C 
ATOM     14  C   UNL     1     101.593 128.369  83.315  0.00  0.00    +0.000 C 
ATOM     15  C   UNL     1     100.600 129.288  84.028  0.00  0.00    +0.000 C 
ENDBRANCH   9  13
ENDBRANCH   1   9
TORSDOF 3
ENDMDL
