MODEL 1
REMARK VINA RESULT:      -4.7      0.000      0.000
REMARK  Name = *****
REMARK  4 active torsions:
REMARK  status: ('A' for Active; 'I' for Inactive)
REMARK    1  A    between atoms: C_4  and  C_7
REMARK    2  A    between atoms: C_7  and  C_8
REMARK    3  A    between atoms: C_8  and  C_9
REMARK    4  A    between atoms: C_12  and  C_15
REMARK                            x       y       z     vdW  Elec       q    Type
REMARK                         _______ _______ _______ _____ _____    ______ ____
ROOT
ATOM      1  C   UNL     1     103.247 127.560  81.754  0.00  0.00    +0.000 C 
ENDROOT
BRANCH   1   2
ATOM      2  C   UNL     1     103.706 126.147  81.469  0.00  0.00    +0.000 A 
ATOM      3  C   UNL     1     104.167 125.772  80.197  0.00  0.00    +0.000 A 
ATOM      4  C   UNL     1     104.615 124.471  79.959  0.00  0.00    +0.000 A 
ATOM      5  C   UNL     1     104.621 123.536  80.995  0.00  0.00    +0.000 A 
ATOM      6  C   UNL     1     104.180 123.895  82.270  0.00  0.00    +0.000 A 
ATOM      7  C   UNL     1     103.727 125.197  82.503  0.00  0.00    +0.000 A 
BRANCH   5   8
ATOM      8  C   UNL     1     105.103 122.162  80.756  0.00  0.00    +0.000 C 
ATOM      9  O   UNL     1     104.366 121.187  80.836  0.00  0.00    +0.000 OA
ENDBRANCH   5   8
ENDBRANCH   1   2
BRANCH   1  10
ATOM     10  C   UNL     1     102.625 127.743  83.144  0.00  0.00    +0.000 C 
BRANCH  10  14
ATOM     11  C   UNL     1      98.322 127.933  82.914  0.00  0.00    +0.000 A 
ATOM     12  C   UNL     1      98.999 126.823  82.414  0.00  0.00    +0.000 A 
ATOM     13  C   UNL     1     100.390 126.757  82.493  0.00  0.00    +0.000 A 
ATOM     14  C   UNL     1     101.119 127.804  83.076  0.00  0.00    +0.000 A 
ATOM     15  C   UNL     1     100.429 128.917  83.573  0.00  0.00    +0.000 A 
ATOM     16  C   UNL     1      99.036 128.979  83.494  0.00  0.00    +0.000 A 
ENDBRANCH  10  14
ENDBRANCH   1  10
TORSDOF 4
ENDMDL
