MODEL 1
REMARK VINA RESULT:      -5.0      0.000      0.000
REMARK  Name = *****
REMARK  4 active torsions:
REMARK  status: ('A' for Active; 'I' for Inactive)
REMARK    1  A    between atoms: C_1  and  C_2
REMARK    2  A    between atoms: C_3  and  C_16
REMARK    3  A    between atoms: C_5  and  C_7
REMARK    4  A    between atoms: C_8  and  C_9
REMARK                            x       y       z     vdW  Elec       q    Type
REMARK                         _______ _______ _______ _____ _____    ______ ____
ROOT
ATOM      1  C   UNL     1     102.915 126.366  81.084  0.00  0.00    +0.000 C 
ATOM      2  C   UNL     1     102.072 126.102  82.094  0.00  0.00    +0.000 C 
ENDROOT
BRANCH   1   7
ATOM      3  C   UNL     1     105.683 122.155  80.595  0.00  0.00    +0.000 C 
ATOM      4  C   UNL     1     105.129 123.515  80.394  0.00  0.00    +0.000 A 
ATOM      5  C   UNL     1     105.496 124.464  79.463  0.00  0.00    +0.000 A 
ATOM      6  O   UNL     1     104.744 125.585  79.609  0.00  0.00    +0.000 OA
ATOM      7  C   UNL     1     103.860 125.397  80.648  0.00  0.00    +0.000 A 
ATOM      8  C   UNL     1     104.082 124.120  81.146  0.00  0.00    +0.000 A 
ATOM      9  C   UNL     1     106.500 124.513  78.378  0.00  0.00    +0.000 C 
ENDBRANCH   1   7
BRANCH   2  10
ATOM     10  C   UNL     1     101.075 127.053  82.608  0.00  0.00    +0.000 A 
ATOM     11  C   UNL     1     101.434 128.234  83.270  0.00  0.00    +0.000 A 
ATOM     12  C   UNL     1     100.448 129.117  83.713  0.00  0.00    +0.000 A 
ATOM     13  C   UNL     1      99.100 128.846  83.494  0.00  0.00    +0.000 A 
ATOM     14  C   UNL     1      98.733 127.683  82.820  0.00  0.00    +0.000 A 
ATOM     15  C   UNL     1      99.716 126.795  82.375  0.00  0.00    +0.000 A 
ATOM     16 CL   UNL     1     100.904 130.561  84.534  0.00  0.00    +0.000 Cl
ENDBRANCH   2  10
TORSDOF 2
ENDMDL
