MODEL 1
REMARK VINA RESULT:      -4.5      0.000      0.000
REMARK  Name = *****
REMARK  4 active torsions:
REMARK  status: ('A' for Active; 'I' for Inactive)
REMARK    1  A    between atoms: C_6  and  O_7
REMARK    2  A    between atoms: O_7  and  C_8
REMARK    3  A    between atoms: C_8  and  O_10
REMARK    4  A    between atoms: O_10  and  C_11
REMARK                            x       y       z     vdW  Elec       q    Type
REMARK                         _______ _______ _______ _____ _____    ______ ____
ROOT
ATOM      1  C   UNL     1     103.414 126.523  80.666  0.00  0.00    +0.000 C 
ATOM      2  O   UNL     1     103.591 127.546  80.018  0.00  0.00    +0.000 OA
ENDROOT
BRANCH   1   3
ATOM      3  O   UNL     1     103.289 125.237  80.157  0.00  0.00    +0.000 OA
BRANCH   3   9
ATOM      4  C   UNL     1     104.527 123.320  81.003  0.00  0.00    +0.000 A 
ATOM      5  C   UNL     1     105.684 122.543  80.972  0.00  0.00    +0.000 A 
ATOM      6  C   UNL     1     106.734 122.906  80.133  0.00  0.00    +0.000 A 
ATOM      7  C   UNL     1     106.649 124.030  79.316  0.00  0.00    +0.000 A 
ATOM      8  C   UNL     1     105.496 124.813  79.342  0.00  0.00    +0.000 A 
ATOM      9  C   UNL     1     104.452 124.461  80.200  0.00  0.00    +0.000 A 
ATOM     10  F   UNL     1     107.842 122.153  80.102  0.00  0.00    +0.000 F 
ENDBRANCH   3   9
ENDBRANCH   1   3
BRANCH   1  11
ATOM     11  O   UNL     1     103.301 126.433  82.046  0.00  0.00    +0.000 OA
BRANCH  11  12
ATOM     12  C   UNL     1     102.145 127.037  82.542  0.00  0.00    +0.000 A 
ATOM     13  C   UNL     1     102.246 128.250  83.223  0.00  0.00    +0.000 A 
ATOM     14  C   UNL     1     101.083 128.873  83.674  0.00  0.00    +0.000 A 
ATOM     15  C   UNL     1      99.848 128.282  83.425  0.00  0.00    +0.000 A 
ATOM     16  C   UNL     1      99.748 127.081  82.728  0.00  0.00    +0.000 A 
ATOM     17  C   UNL     1     100.906 126.452  82.273  0.00  0.00    +0.000 A 
ATOM     18  F   UNL     1      98.731 128.885  83.857  0.00  0.00    +0.000 F 
ENDBRANCH  11  12
ENDBRANCH   1  11
TORSDOF 4
ENDMDL
