MODEL 1
REMARK VINA RESULT:      -4.8      0.000      0.000
REMARK  Name = *****
REMARK  5 active torsions:
REMARK  status: ('A' for Active; 'I' for Inactive)
REMARK    1  A    between atoms: C_1  and  C_2
REMARK    2  A    between atoms: C_4  and  O_8
REMARK    3  A    between atoms: O_8  and  C_9
REMARK    4  A    between atoms: C_9  and  C_11
REMARK    5  A    between atoms: C_16  and  C_17
REMARK                            x       y       z     vdW  Elec       q    Type
REMARK                         _______ _______ _______ _____ _____    ______ ____
ROOT
ATOM      1  C   UNL     1     101.896 127.137  84.468  0.00  0.00    +0.000 C 
ATOM      2  O   UNL     1     101.434 126.126  84.971  0.00  0.00    +0.000 OA
ENDROOT
BRANCH   1   3
ATOM      3  C   UNL     1     101.091 128.354  84.219  0.00  0.00    +0.000 A 
ATOM      4  C   UNL     1     101.596 129.552  84.748  0.00  0.00    +0.000 A 
ATOM      5  C   UNL     1     100.899 130.746  84.579  0.00  0.00    +0.000 A 
ATOM      6  C   UNL     1      99.697 130.753  83.876  0.00  0.00    +0.000 A 
ATOM      7  C   UNL     1      99.200 129.569  83.328  0.00  0.00    +0.000 A 
ATOM      8  C   UNL     1      99.897 128.353  83.476  0.00  0.00    +0.000 A 
BRANCH   8   9
ATOM      9  C   UNL     1      99.349 127.104  82.834  0.00  0.00    +0.000 C 
ATOM     10  F   UNL     1     100.278 126.415  82.116  0.00  0.00    +0.000 F 
ATOM     11  F   UNL     1      98.831 126.233  83.740  0.00  0.00    +0.000 F 
ATOM     12  F   UNL     1      98.338 127.363  81.956  0.00  0.00    +0.000 F 
ENDBRANCH   8   9
ENDBRANCH   1   3
BRANCH   1  13
ATOM     13  O   UNL     1     103.149 127.336  83.928  0.00  0.00    +0.000 OA
BRANCH  13  17
ATOM     14  C   UNL     1     104.398 123.566  80.972  0.00  0.00    +0.000 C 
ATOM     15  C   UNL     1     103.967 124.988  81.178  0.00  0.00    +0.000 A 
ATOM     16  C   UNL     1     103.732 125.473  82.470  0.00  0.00    +0.000 A 
ATOM     17  C   UNL     1     103.344 126.802  82.648  0.00  0.00    +0.000 A 
ATOM     18  C   UNL     1     103.235 127.672  81.567  0.00  0.00    +0.000 A 
ATOM     19  C   UNL     1     103.486 127.197  80.282  0.00  0.00    +0.000 A 
ATOM     20  C   UNL     1     103.852 125.861  80.088  0.00  0.00    +0.000 A 
ENDBRANCH  13  17
ENDBRANCH   1  13
TORSDOF 4
ENDMDL
