MODEL 1
REMARK VINA RESULT:      -4.8      0.000      0.000
REMARK  Name = *****
REMARK  4 active torsions:
REMARK  status: ('A' for Active; 'I' for Inactive)
REMARK    1  A    between atoms: C_1  and  O_2
REMARK    2  A    between atoms: O_2  and  C_3
REMARK    3  A    between atoms: C_7  and  C_9
REMARK    4  A    between atoms: C_10  and  C_11
REMARK                            x       y       z     vdW  Elec       q    Type
REMARK                         _______ _______ _______ _____ _____    ______ ____
ROOT
ATOM      1  C   UNL     1      98.625 127.569  82.911  0.00  0.00    +0.000 A 
ATOM      2  C   UNL     1      98.962 128.795  83.486  0.00  0.00    +0.000 A 
ATOM      3  C   UNL     1     100.305 129.147  83.656  0.00  0.00    +0.000 A 
ATOM      4  C   UNL     1     101.315 128.275  83.249  0.00  0.00    +0.000 A 
ATOM      5  C   UNL     1     100.984 127.047  82.676  0.00  0.00    +0.000 A 
ATOM      6  C   UNL     1      99.642 126.696  82.514  0.00  0.00    +0.000 A 
ENDROOT
BRANCH   1   8
ATOM      7  C   UNL     1      96.845 126.161  83.616  0.00  0.00    +0.000 C 
ATOM      8  O   UNL     1      97.356 127.108  82.688  0.00  0.00    +0.000 OA
ENDBRANCH   1   8
BRANCH   5   9
ATOM      9  C   UNL     1     102.014 126.158  82.237  0.00  0.00    +0.000 C 
ATOM     10  C   UNL     1     102.884 125.428  81.846  0.00  0.00    +0.000 C 
BRANCH  10  11
ATOM     11  C   UNL     1     103.927 124.586  81.358  0.00  0.00    +0.000 C 
ATOM     12  C   UNL     1     104.465 124.838  80.152  0.00  0.00    +0.000 C 
ATOM     13  C   UNL     1     105.574 124.025  79.549  0.00  0.00    +0.000 C 
ATOM     14  C   UNL     1     105.844 122.717  80.292  0.00  0.00    +0.000 C 
ATOM     15  C   UNL     1     105.788 122.919  81.802  0.00  0.00    +0.000 C 
ATOM     16  C   UNL     1     104.423 123.461  82.233  0.00  0.00    +0.000 C 
ENDBRANCH  10  11
ENDBRANCH   5   9
TORSDOF 3
ENDMDL
