MODEL 1
REMARK VINA RESULT:      -5.1      0.000      0.000
REMARK  Name = *****
REMARK  2 active torsions:
REMARK  status: ('A' for Active; 'I' for Inactive)
REMARK    1  A    between atoms: C_9  and  S_11
REMARK    2  A    between atoms: S_11  and  C_12
REMARK                            x       y       z     vdW  Elec       q    Type
REMARK                         _______ _______ _______ _____ _____    ______ ____
ROOT
ATOM      1  C   UNL     1      88.699  70.792  88.738  0.00  0.00    +0.000 C 
ATOM      2  C   UNL     1      87.238  70.798  89.189  0.00  0.00    +0.000 C 
ATOM      3  C   UNL     1      86.315  71.365  88.136  0.00  0.00    +0.000 A 
ATOM      4  C   UNL     1      85.123  71.993  88.529  0.00  0.00    +0.000 A 
ATOM      5  C   UNL     1      84.243  72.491  87.572  0.00  0.00    +0.000 A 
ATOM      6  C   UNL     1      84.543  72.359  86.220  0.00  0.00    +0.000 A 
ATOM      7  C   UNL     1      85.722  71.720  85.822  0.00  0.00    +0.000 A 
ATOM      8  C   UNL     1      86.624  71.202  86.767  0.00  0.00    +0.000 A 
ATOM      9  C   UNL     1      87.884  70.501  86.396  0.00  0.00    +0.000 C 
ATOM     10  C   UNL     1      88.853  70.345  87.315  0.00  0.00    +0.000 C 
ENDROOT
BRANCH   9  11
ATOM     11  S   UNL     1      88.115  69.925  84.775  0.00  0.00    +0.000 S 
BRANCH  11  12
ATOM     12  C   UNL     1      89.226  71.188  84.177  0.00  0.00    +0.000 A 
ATOM     13  C   UNL     1      90.588  70.927  83.993  0.00  0.00    +0.000 A 
ATOM     14  C   UNL     1      91.438  71.925  83.511  0.00  0.00    +0.000 A 
ATOM     15  C   UNL     1      90.930  73.186  83.203  0.00  0.00    +0.000 A 
ATOM     16  C   UNL     1      89.572  73.450  83.374  0.00  0.00    +0.000 A 
ATOM     17  C   UNL     1      88.721  72.453  83.856  0.00  0.00    +0.000 A 
ENDBRANCH  11  12
ENDBRANCH   9  11
TORSDOF 2
ENDMDL
