MODEL 1
REMARK VINA RESULT:      -4.4      0.000      0.000
REMARK  Name = *****
REMARK  4 active torsions:
REMARK  status: ('A' for Active; 'I' for Inactive)
REMARK    1  A    between atoms: C_1  and  C_2
REMARK    2  A    between atoms: C_4  and  C_15
REMARK    3  A    between atoms: N_6  and  C_7
REMARK    4  A    between atoms: C_8  and  C_9
REMARK                            x       y       z     vdW  Elec       q    Type
REMARK                         _______ _______ _______ _____ _____    ______ ____
ROOT
ATOM      1  C   UNL     1     101.627 126.694  83.006  0.00  0.00    +0.000 C 
ATOM      2  C   UNL     1     102.377 126.483  81.911  0.00  0.00    +0.000 C 
ENDROOT
BRANCH   1   8
ATOM      3  C   UNL     1      98.639 126.667  82.430  0.00  0.00    +0.000 C 
ATOM      4  C   UNL     1      99.400 127.815  82.996  0.00  0.00    +0.000 A 
ATOM      5  C   UNL     1      98.919 129.059  83.363  0.00  0.00    +0.000 A 
ATOM      6  C   UNL     1     100.001 129.826  83.849  0.00  0.00    +0.000 A 
ATOM      7  C   UNL     1     101.114 129.016  83.762  0.00  0.00    +0.000 A 
ATOM      8  N   UNL     1     100.770 127.778  83.243  0.00  0.00    +0.000 N 
ATOM      9  C   UNL     1      99.956 131.220  84.355  0.00  0.00    +0.000 C 
ENDBRANCH   1   8
BRANCH   2  10
ATOM     10  C   UNL     1     103.257 125.317  81.745  0.00  0.00    +0.000 A 
ATOM     11  C   UNL     1     103.808 124.969  80.506  0.00  0.00    +0.000 A 
ATOM     12  C   UNL     1     104.664 123.870  80.393  0.00  0.00    +0.000 A 
ATOM     13  C   UNL     1     104.985 123.117  81.519  0.00  0.00    +0.000 A 
ATOM     14  C   UNL     1     104.456 123.464  82.761  0.00  0.00    +0.000 A 
ATOM     15  C   UNL     1     103.600 124.562  82.874  0.00  0.00    +0.000 A 
ENDBRANCH   2  10
TORSDOF 2
ENDMDL
