MODEL 1
REMARK VINA RESULT:      -4.4      0.000      0.000
REMARK  Name = *****
REMARK  5 active torsions:
REMARK  status: ('A' for Active; 'I' for Inactive)
REMARK    1  A    between atoms: C_1  and  C_2
REMARK    2  A    between atoms: C_5  and  C_7
REMARK    3  A    between atoms: C_5  and  O_15
REMARK    4  A    between atoms: C_8  and  C_9
REMARK    5  A    between atoms: O_15  and  C_16
REMARK                            x       y       z     vdW  Elec       q    Type
REMARK                         _______ _______ _______ _____ _____    ______ ____
ROOT
ATOM      1  C   UNL     1      98.910 131.137  85.081  0.00  0.00    +0.000 C 
ATOM      2  C   UNL     1      99.018 129.693  84.743  0.00  0.00    +0.000 C 
ATOM      3  C   UNL     1      98.933 128.657  85.587  0.00  0.00    +0.000 C 
ATOM      4  C   UNL     1      99.123 127.344  84.891  0.00  0.00    +0.000 C 
ATOM      5  C   UNL     1      99.059 127.710  83.382  0.00  0.00    +0.000 C 
ATOM      6  C   UNL     1      99.278 129.248  83.330  0.00  0.00    +0.000 C 
ENDROOT
BRANCH   5   7
ATOM      7  C   UNL     1     100.180 127.002  82.633  0.00  0.00    +0.000 C 
ATOM      8  C   UNL     1     101.482 127.333  82.646  0.00  0.00    +0.000 C 
BRANCH   8   9
ATOM      9  C   UNL     1     102.529 126.607  81.914  0.00  0.00    +0.000 A 
ATOM     10  C   UNL     1     102.872 125.282  82.211  0.00  0.00    +0.000 A 
ATOM     11  C   UNL     1     103.854 124.618  81.470  0.00  0.00    +0.000 A 
ATOM     12  C   UNL     1     104.493 125.268  80.417  0.00  0.00    +0.000 A 
ATOM     13  C   UNL     1     104.149 126.579  80.099  0.00  0.00    +0.000 A 
ATOM     14  C   UNL     1     103.167 127.244  80.841  0.00  0.00    +0.000 A 
ENDBRANCH   8   9
ENDBRANCH   5   7
BRANCH   5  15
ATOM     15  O   UNL     1      97.811 127.318  82.779  0.00  0.00    +0.000 OA
ATOM     16  C   UNL     1      96.946 126.486  83.537  0.00  0.00    +0.000 C 
ENDBRANCH   5  15
TORSDOF 3
ENDMDL
