MODEL 1
REMARK VINA RESULT:      -5.2      0.000      0.000
REMARK  Name = *****
REMARK  1 active torsions:
REMARK  status: ('A' for Active; 'I' for Inactive)
REMARK    1  A    between atoms: C_3  and  C_8
REMARK                            x       y       z     vdW  Elec       q    Type
REMARK                         _______ _______ _______ _____ _____    ______ ____
ROOT
ATOM      1  C   UNL     1     103.016 126.156  82.001  0.00  0.00    +0.000 A 
ATOM      2  C   UNL     1     101.622 126.035  81.952  0.00  0.00    +0.000 A 
ATOM      3  C   UNL     1     100.793 127.015  82.524  0.00  0.00    +0.000 A 
ATOM      4  C   UNL     1      99.394 126.902  82.489  0.00  0.00    +0.000 A 
ATOM      5  C   UNL     1      98.583 127.884  83.062  0.00  0.00    +0.000 A 
ATOM      6  C   UNL     1      99.161 128.992  83.675  0.00  0.00    +0.000 A 
ATOM      7  C   UNL     1     100.550 129.119  83.719  0.00  0.00    +0.000 A 
ATOM      8  C   UNL     1     101.379 128.139  83.149  0.00  0.00    +0.000 A 
ATOM      9  C   UNL     1     102.778 128.253  83.187  0.00  0.00    +0.000 A 
ATOM     10  C   UNL     1     103.590 127.270  82.618  0.00  0.00    +0.000 A 
ENDROOT
BRANCH   1  13
ATOM     11  C   UNL     1     104.967 122.879  81.495  0.00  0.00    +0.000 C 
ATOM     12  C   UNL     1     104.135 123.994  82.068  0.00  0.00    +0.000 C 
ATOM     13  C   UNL     1     103.873 125.130  81.396  0.00  0.00    +0.000 C 
ATOM     14  C   UNL     1     104.418 125.427  80.023  0.00  0.00    +0.000 C 
ATOM     15  S   UNL     1     105.910 124.416  79.672  0.00  0.00    +0.000 S 
ATOM     16  O   UNL     1     106.095 124.385  78.185  0.00  0.00    +0.000 OA
ATOM     17  O   UNL     1     105.189 123.035  80.095  0.00  0.00    +0.000 OA
ENDBRANCH   1  13
TORSDOF 1
ENDMDL
