MODEL 1
REMARK VINA RESULT:      -4.6      0.000      0.000
REMARK  Name = *****
REMARK  6 active torsions:
REMARK  status: ('A' for Active; 'I' for Inactive)
REMARK    1  A    between atoms: C_3  and  C_17
REMARK    2  A    between atoms: C_6  and  C_7
REMARK    3  A    between atoms: C_7  and  C_8
REMARK    4  A    between atoms: C_8  and  C_9
REMARK    5  A    between atoms: C_12  and  C_15
REMARK    6  A    between atoms: C_17  and  N_18
REMARK                            x       y       z     vdW  Elec       q    Type
REMARK                         _______ _______ _______ _____ _____    ______ ____
ROOT
ATOM      1  C   UNL     1      86.998  69.331  88.318  0.00  0.00    +0.000 C 
ENDROOT
BRANCH   1   7
ATOM      2  C   UNL     1      87.865  67.086  87.550  0.00  0.00    +0.000 A 
ATOM      3  C   UNL     1      88.782  66.299  86.850  0.00  0.00    +0.000 A 
ATOM      4  C   UNL     1      89.855  66.889  86.168  0.00  0.00    +0.000 A 
ATOM      5  C   UNL     1      89.981  68.286  86.189  0.00  0.00    +0.000 A 
ATOM      6  C   UNL     1      89.065  69.073  86.891  0.00  0.00    +0.000 A 
ATOM      7  C   UNL     1      88.002  68.479  87.582  0.00  0.00    +0.000 A 
BRANCH   4   8
ATOM      8  C   UNL     1      90.840  66.045  85.402  0.00  0.00    +0.000 C 
BRANCH   8   9
ATOM      9  N   UNL     1      90.405  65.856  83.988  0.00  0.00    +0.000 NA
ATOM     10  O   UNL     1      91.089  65.013  83.397  0.00  0.00    +0.000 OA
ENDBRANCH   8   9
ENDBRANCH   4   8
ENDBRANCH   1   7
BRANCH   1  11
ATOM     11  C   UNL     1      87.250  70.824  88.090  0.00  0.00    +0.000 C 
BRANCH  11  12
ATOM     12  C   UNL     1      86.127  71.466  87.312  0.00  0.00    +0.000 A 
ATOM     13  C   UNL     1      86.199  71.567  85.915  0.00  0.00    +0.000 A 
ATOM     14  C   UNL     1      85.169  72.176  85.196  0.00  0.00    +0.000 A 
ATOM     15  C   UNL     1      84.062  72.690  85.873  0.00  0.00    +0.000 A 
ATOM     16  C   UNL     1      83.978  72.601  87.263  0.00  0.00    +0.000 A 
ATOM     17  C   UNL     1      85.011  71.992  87.980  0.00  0.00    +0.000 A 
BRANCH  15  18
ATOM     18  C   UNL     1      82.967  73.336  85.121  0.00  0.00    +0.000 C 
ATOM     19  O   UNL     1      82.363  74.310  85.554  0.00  0.00    +0.000 OA
ENDBRANCH  15  18
ENDBRANCH  11  12
ENDBRANCH   1  11
TORSDOF 6
ENDMDL
