REMARK  Name = *****
REMARK  5 active torsions:
REMARK  status: ('A' for Active; 'I' for Inactive)
REMARK    1  A    between atoms: C_1  and  C_2
REMARK    2  A    between atoms: C_4  and  C_17
REMARK    3  A    between atoms: C_5  and  C_9
REMARK    4  A    between atoms: C_6  and  C_8
REMARK    5  A    between atoms: C_10  and  C_11
REMARK                            x       y       z     vdW  Elec       q    Type
REMARK                         _______ _______ _______ _____ _____    ______ ____
ROOT
ATOM      1  C   UNL     1       2.186   1.892   0.258  0.00  0.00    +0.000 C 
ATOM      2  C   UNL     1       1.068   0.905   0.106  0.00  0.00    +0.000 A 
ATOM      3  C   UNL     1       1.327  -0.469   0.093  0.00  0.00    +0.000 A 
ATOM      4  C   UNL     1       0.284  -1.403  -0.021  0.00  0.00    +0.000 A 
ATOM      5  C   UNL     1      -1.049  -0.947  -0.101  0.00  0.00    +0.000 A 
ATOM      6  C   UNL     1      -1.321   0.438  -0.083  0.00  0.00    +0.000 A 
ATOM      7  C   UNL     1      -0.257   1.347   0.030  0.00  0.00    +0.000 A 
ATOM      8  C   UNL     1      -2.728   0.970  -0.159  0.00  0.00    +0.000 C 
ATOM      9  C   UNL     1       0.620  -2.872  -0.031  0.00  0.00    +0.000 C 
ENDROOT
BRANCH   5  10
ATOM     10  C   UNL     1      -2.155  -1.912  -0.186  0.00  0.00    +0.000 C 
ATOM     11  C   UNL     1      -2.739  -2.410   0.916  0.00  0.00    +0.000 C 
BRANCH  11  12
ATOM     12  C   UNL     1      -3.847  -3.374   0.892  0.00  0.00    +0.000 A 
ATOM     13  C   UNL     1      -4.388  -3.842   2.086  0.00  0.00    +0.000 A 
ATOM     14  C   UNL     1      -5.438  -4.756   2.037  0.00  0.00    +0.000 A 
ATOM     15  C   UNL     1      -5.917  -5.176   0.803  0.00  0.00    +0.000 A 
ATOM     16  C   UNL     1      -5.323  -4.662  -0.336  0.00  0.00    +0.000 A 
ATOM     17  N   UNL     1      -4.304  -3.775  -0.318  0.00  0.00    +0.000 NA
ENDBRANCH  11  12
ENDBRANCH   5  10
TORSDOF 2
