MODEL 1
REMARK VINA RESULT:      -5.3      0.000      0.000
REMARK  Name = *****
REMARK  2 active torsions:
REMARK  status: ('A' for Active; 'I' for Inactive)
REMARK    1  A    between atoms: C_3  and  C_11
REMARK    2  A    between atoms: C_11  and  C_12
REMARK                            x       y       z     vdW  Elec       q    Type
REMARK                         _______ _______ _______ _____ _____    ______ ____
ROOT
ATOM      1  C   UNL     1      89.811  69.288  86.252  0.00  0.00    +0.000 C 
ATOM      2  C   UNL     1      89.343  70.220  87.378  0.00  0.00    +0.000 C 
ATOM      3  C   UNL     1      87.974  69.872  87.919  0.00  0.00    +0.000 C 
ATOM      4  C   UNL     1      87.508  68.610  87.851  0.00  0.00    +0.000 C 
ATOM      5  C   UNL     1      88.310  67.535  87.255  0.00  0.00    +0.000 A 
ATOM      6  C   UNL     1      87.936  66.198  87.424  0.00  0.00    +0.000 A 
ATOM      7  C   UNL     1      88.695  65.176  86.849  0.00  0.00    +0.000 A 
ATOM      8  C   UNL     1      89.825  65.485  86.095  0.00  0.00    +0.000 A 
ATOM      9  C   UNL     1      90.200  66.816  85.913  0.00  0.00    +0.000 A 
ATOM     10  C   UNL     1      89.452  67.846  86.499  0.00  0.00    +0.000 A 
ENDROOT
BRANCH   3  11
ATOM     11  C   UNL     1      87.193  70.977  88.590  0.00  0.00    +0.000 C 
BRANCH  11  12
ATOM     12  C   UNL     1      86.082  71.540  87.732  0.00  0.00    +0.000 A 
ATOM     13  C   UNL     1      86.207  71.570  86.335  0.00  0.00    +0.000 A 
ATOM     14  C   UNL     1      85.180  72.087  85.543  0.00  0.00    +0.000 A 
ATOM     15  C   UNL     1      84.019  72.575  86.136  0.00  0.00    +0.000 A 
ATOM     16  C   UNL     1      83.882  72.549  87.523  0.00  0.00    +0.000 A 
ATOM     17  C   UNL     1      84.908  72.033  88.318  0.00  0.00    +0.000 A 
ENDBRANCH  11  12
ENDBRANCH   3  11
TORSDOF 2
ENDMDL
