MODEL 1
REMARK VINA RESULT:      -4.6      0.000      0.000
REMARK  Name = *****
REMARK  1 active torsions:
REMARK  status: ('A' for Active; 'I' for Inactive)
REMARK    1  A    between atoms: N_8  and  C_11
REMARK                            x       y       z     vdW  Elec       q    Type
REMARK                         _______ _______ _______ _____ _____    ______ ____
ROOT
ATOM      1  C   UNL     1     100.132 131.206  84.942  0.00  0.00    +0.000 A 
ATOM      2  C   UNL     1      98.971 130.432  84.827  0.00  0.00    +0.000 A 
ATOM      3  C   UNL     1      99.044 129.121  84.351  0.00  0.00    +0.000 A 
ATOM      4  C   UNL     1     100.286 128.596  83.995  0.00  0.00    +0.000 A 
ATOM      5  C   UNL     1     101.437 129.371  84.102  0.00  0.00    +0.000 A 
ATOM      6  C   UNL     1     101.371 130.676  84.576  0.00  0.00    +0.000 A 
ATOM      7  S   UNL     1     102.916 128.560  83.567  0.00  0.00    +0.000 S 
ATOM      8  N   UNL     1     102.115 127.222  82.911  0.00  0.00    +0.000 N 
ATOM      9  S   UNL     1     100.509 126.920  83.404  0.00  0.00    +0.000 S 
ATOM     10  O   UNL     1      99.570 126.765  82.245  0.00  0.00    +0.000 OA
ENDROOT
BRANCH   8  11
ATOM     11  C   UNL     1     102.846 126.221  82.196  0.00  0.00    +0.000 A 
ATOM     12  C   UNL     1     103.260 125.019  82.809  0.00  0.00    +0.000 A 
ATOM     13  C   UNL     1     103.970 124.050  82.098  0.00  0.00    +0.000 A 
ATOM     14  C   UNL     1     104.295 124.249  80.765  0.00  0.00    +0.000 A 
ATOM     15  C   UNL     1     103.916 125.420  80.129  0.00  0.00    +0.000 A 
ATOM     16  C   UNL     1     103.199 126.392  80.840  0.00  0.00    +0.000 A 
ATOM     17  F   UNL     1     104.977 123.317  80.087  0.00  0.00    +0.000 F 
ATOM     18  F   UNL     1     104.330 122.918  82.717  0.00  0.00    +0.000 F 
ENDBRANCH   8  11
TORSDOF 1
ENDMDL
