MODEL 1
REMARK VINA RESULT:      -4.6      0.000      0.000
REMARK  Name = *****
REMARK  3 active torsions:
REMARK  status: ('A' for Active; 'I' for Inactive)
REMARK    1  A    between atoms: C_1  and  C_2
REMARK    2  A    between atoms: C_2  and  C_10
REMARK    3  A    between atoms: N_3  and  C_4
REMARK                            x       y       z     vdW  Elec       q    Type
REMARK                         _______ _______ _______ _____ _____    ______ ____
ROOT
ATOM      1  C   UNL     1     103.334 127.052  80.592  0.00  0.00    +0.000 C 
ATOM      2  C   UNL     1     102.921 125.951  81.547  0.00  0.00    +0.000 C 
ATOM      3  N   UNL     1     101.890 126.014  82.322  0.00  0.00    +0.000 NA
ENDROOT
BRANCH   3   4
ATOM      4  C   UNL     1     101.026 127.192  82.359  0.00  0.00    +0.000 C 
ATOM      5  C   UNL     1     101.423 128.021  83.587  0.00  0.00    +0.000 C 
ATOM      6  C   UNL     1     100.486 129.208  83.791  0.00  0.00    +0.000 C 
ATOM      7  C   UNL     1      99.028 128.764  83.875  0.00  0.00    +0.000 C 
ATOM      8  C   UNL     1      98.624 127.924  82.669  0.00  0.00    +0.000 C 
ATOM      9  C   UNL     1      99.566 126.738  82.468  0.00  0.00    +0.000 C 
ENDBRANCH   3   4
BRANCH   2  10
ATOM     10  C   UNL     1     103.768 124.718  81.600  0.00  0.00    +0.000 A 
ATOM     11  C   UNL     1     103.964 124.014  82.794  0.00  0.00    +0.000 A 
ATOM     12  C   UNL     1     104.757 122.863  82.806  0.00  0.00    +0.000 A 
ATOM     13  C   UNL     1     105.349 122.408  81.628  0.00  0.00    +0.000 A 
ATOM     14  C   UNL     1     105.145 123.096  80.434  0.00  0.00    +0.000 A 
ATOM     15  C   UNL     1     104.354 124.246  80.418  0.00  0.00    +0.000 A 
ENDBRANCH   2  10
TORSDOF 2
ENDMDL
