REMARK  Name = *****
REMARK  5 active torsions:
REMARK  status: ('A' for Active; 'I' for Inactive)
REMARK    1  A    between atoms: C_1  and  C_2
REMARK    2  A    between atoms: C_5  and  C_8
REMARK    3  A    between atoms: C_8  and  O_10
REMARK    4  A    between atoms: O_10  and  C_11
REMARK    5  A    between atoms: C_14  and  C_17
REMARK                            x       y       z     vdW  Elec       q    Type
REMARK                         _______ _______ _______ _____ _____    ______ ____
ROOT
ATOM      1  C   UNL     1      -2.882   0.029   1.167  0.00  0.00    +0.000 C 
ATOM      2  O   UNL     1      -3.471  -0.993   1.488  0.00  0.00    +0.000 OA
ENDROOT
BRANCH   1   7
ATOM      3  C   UNL     1       2.504  -0.151  -0.991  0.00  0.00    +0.000 C 
ATOM      4  C   UNL     1       1.100  -0.092  -0.464  0.00  0.00    +0.000 A 
ATOM      5  C   UNL     1       0.457   1.141  -0.299  0.00  0.00    +0.000 A 
ATOM      6  C   UNL     1      -0.838   1.203   0.224  0.00  0.00    +0.000 A 
ATOM      7  C   UNL     1      -1.505   0.029   0.599  0.00  0.00    +0.000 A 
ATOM      8  C   UNL     1      -0.856  -1.204   0.446  0.00  0.00    +0.000 A 
ATOM      9  C   UNL     1       0.439  -1.263  -0.076  0.00  0.00    +0.000 A 
ENDBRANCH   1   7
BRANCH   1  10
ATOM     10  O   UNL     1      -3.348   1.328   1.260  0.00  0.00    +0.000 OA
BRANCH  10  11
ATOM     11  C   UNL     1      -4.623   1.486   1.818  0.00  0.00    +0.000 A 
ATOM     12  C   UNL     1      -4.890   1.108   3.132  0.00  0.00    +0.000 A 
ATOM     13  C   UNL     1      -6.156   1.346   3.667  0.00  0.00    +0.000 A 
ATOM     14  C   UNL     1      -7.150   1.965   2.896  0.00  0.00    +0.000 A 
ATOM     15  C   UNL     1      -6.850   2.371   1.588  0.00  0.00    +0.000 A 
ATOM     16  C   UNL     1      -5.585   2.134   1.047  0.00  0.00    +0.000 A 
ATOM     17  C   UNL     1      -8.500   2.248   3.487  0.00  0.00    +0.000 C 
ENDBRANCH  10  11
ENDBRANCH   1  10
TORSDOF 3
