MODEL 1
REMARK VINA RESULT:      -4.3      0.000      0.000
REMARK  Name = *****
REMARK  2 active torsions:
REMARK  status: ('A' for Active; 'I' for Inactive)
REMARK    1  A    between atoms: N_5  and  S_6
REMARK    2  A    between atoms: S_6  and  C_7
REMARK                            x       y       z     vdW  Elec       q    Type
REMARK                         _______ _______ _______ _____ _____    ______ ____
ROOT
ATOM      1  S   UNL     1      89.672  66.454  86.493  0.00  0.00    +0.000 S 
ENDROOT
BRANCH   1   6
ATOM      2  C   UNL     1      87.383  63.809  90.366  0.00  0.00    +0.000 C 
ATOM      3  C   UNL     1      88.736  63.783  89.656  0.00  0.00    +0.000 C 
ATOM      4  C   UNL     1      88.604  64.095  88.167  0.00  0.00    +0.000 C 
ATOM      5  C   UNL     1      87.858  65.408  87.993  0.00  0.00    +0.000 C 
ATOM      6  N   UNL     1      88.219  66.449  87.308  0.00  0.00    +0.000 NA
ATOM      7  C   UNL     1      86.508  65.477  88.688  0.00  0.00    +0.000 C 
ATOM      8  C   UNL     1      86.674  65.149  90.165  0.00  0.00    +0.000 C 
ENDBRANCH   1   6
BRANCH   1   9
ATOM      9  C   UNL     1      89.714  68.140  85.900  0.00  0.00    +0.000 A 
ATOM     10  C   UNL     1      89.876  68.366  84.527  0.00  0.00    +0.000 A 
ATOM     11  C   UNL     1      89.896  69.668  84.018  0.00  0.00    +0.000 A 
ATOM     12  C   UNL     1      89.749  70.751  84.882  0.00  0.00    +0.000 A 
ATOM     13  C   UNL     1      89.581  70.542  86.249  0.00  0.00    +0.000 A 
ATOM     14  C   UNL     1      89.561  69.239  86.756  0.00  0.00    +0.000 A 
ATOM     15 CL   UNL     1      89.773  72.353  84.258  0.00  0.00    +0.000 Cl
ENDBRANCH   1   9
TORSDOF 2
ENDMDL
