MODEL 1
REMARK VINA RESULT:      -4.1      0.000      0.000
REMARK  Name = *****
REMARK  2 active torsions:
REMARK  status: ('A' for Active; 'I' for Inactive)
REMARK    1  A    between atoms: C_4  and  C_7
REMARK    2  A    between atoms: C_8  and  C_9
REMARK                            x       y       z     vdW  Elec       q    Type
REMARK                         _______ _______ _______ _____ _____    ______ ____
ROOT
ATOM      1  C   UNL     1     102.309 127.158  82.127  0.00  0.00    +0.000 C 
ATOM      2  C   UNL     1     101.871 127.435  83.367  0.00  0.00    +0.000 C 
ENDROOT
BRANCH   1   6
ATOM      3  C   UNL     1     104.564 123.634  81.238  0.00  0.00    +0.000 A 
ATOM      4  C   UNL     1     104.292 124.548  80.222  0.00  0.00    +0.000 A 
ATOM      5  C   UNL     1     103.551 125.700  80.497  0.00  0.00    +0.000 A 
ATOM      6  C   UNL     1     103.065 125.943  81.789  0.00  0.00    +0.000 A 
ATOM      7  C   UNL     1     103.361 125.025  82.804  0.00  0.00    +0.000 A 
ATOM      8  C   UNL     1     104.101 123.874  82.530  0.00  0.00    +0.000 A 
ENDBRANCH   1   6
BRANCH   2   9
ATOM      9  C   UNL     1     101.130 128.611  83.710  0.00  0.00    +0.000 A 
ATOM     10  C   UNL     1      99.781 128.868  83.521  0.00  0.00    +0.000 A 
ATOM     11  C   UNL     1      99.346 130.131  83.999  0.00  0.00    +0.000 A 
ATOM     12  C   UNL     1     100.381 130.835  84.566  0.00  0.00    +0.000 A 
ATOM     13  S   UNL     1     101.849 129.966  84.516  0.00  0.00    +0.000 S 
ATOM     14 BR   UNL     1      98.537 127.703  82.689  0.00  0.00    +0.000 Br
ENDBRANCH   2   9
TORSDOF 2
ENDMDL
