MODEL 1
REMARK VINA RESULT:      -4.4      0.000      0.000
REMARK  Name = *****
REMARK  4 active torsions:
REMARK  status: ('A' for Active; 'I' for Inactive)
REMARK    1  A    between atoms: C_1  and  O_2
REMARK    2  A    between atoms: O_2  and  C_3
REMARK    3  A    between atoms: C_8  and  C_9
REMARK    4  A    between atoms: C_10  and  C_11
REMARK                            x       y       z     vdW  Elec       q    Type
REMARK                         _______ _______ _______ _____ _____    ______ ____
ROOT
ATOM      1  C   UNL     1      89.175  65.438  86.650  0.00  0.00    +0.000 A 
ATOM      2  C   UNL     1      89.404  64.082  86.391  0.00  0.00    +0.000 A 
ATOM      3  C   UNL     1      90.512  63.680  85.638  0.00  0.00    +0.000 A 
ATOM      4  C   UNL     1      91.400  64.627  85.134  0.00  0.00    +0.000 A 
ATOM      5  C   UNL     1      91.181  65.981  85.382  0.00  0.00    +0.000 A 
ATOM      6  C   UNL     1      90.074  66.391  86.137  0.00  0.00    +0.000 A 
ENDROOT
BRANCH   1   8
ATOM      7  C   UNL     1      87.698  65.173  88.508  0.00  0.00    +0.000 C 
ATOM      8  O   UNL     1      88.116  65.923  87.377  0.00  0.00    +0.000 OA
ENDBRANCH   1   8
BRANCH   6   9
ATOM      9  C   UNL     1      89.891  67.794  86.375  0.00  0.00    +0.000 C 
ATOM     10  C   UNL     1      89.750  68.972  86.572  0.00  0.00    +0.000 C 
BRANCH  10  11
ATOM     11  C   UNL     1      89.614  70.422  86.819  0.00  0.00    +0.000 C 
ATOM     12  C   UNL     1      88.719  70.692  88.035  0.00  0.00    +0.000 C 
ATOM     13  C   UNL     1      87.248  70.353  87.776  0.00  0.00    +0.000 C 
ATOM     14  C   UNL     1      86.767  70.797  86.425  0.00  0.00    +0.000 C 
ATOM     15  C   UNL     1      87.594  71.171  85.439  0.00  0.00    +0.000 C 
ATOM     16  C   UNL     1      89.092  71.161  85.572  0.00  0.00    +0.000 C 
ENDBRANCH  10  11
ENDBRANCH   6   9
TORSDOF 3
ENDMDL
