MODEL 1
REMARK VINA RESULT:      -4.7      0.000      0.000
REMARK  Name = *****
REMARK  6 active torsions:
REMARK  status: ('A' for Active; 'I' for Inactive)
REMARK    1  A    between atoms: C_1  and  C_2
REMARK    2  A    between atoms: C_4  and  C_19
REMARK    3  A    between atoms: C_6  and  C_8
REMARK    4  A    between atoms: C_8  and  O_9
REMARK    5  A    between atoms: O_9  and  C_10
REMARK    6  A    between atoms: C_10  and  C_12
REMARK                            x       y       z     vdW  Elec       q    Type
REMARK                         _______ _______ _______ _____ _____    ______ ____
ROOT
ATOM      1  O   UNL     1      89.997  68.591  86.710  0.00  0.00    +0.000 OA
ENDROOT
BRANCH   1   2
ATOM      2  C   UNL     1      89.501  67.533  86.027  0.00  0.00    +0.000 C 
ATOM      3  O   UNL     1      89.669  67.293  84.842  0.00  0.00    +0.000 OA
BRANCH   2   4
ATOM      4  C   UNL     1      88.707  66.658  86.934  0.00  0.00    +0.000 A 
ATOM      5  C   UNL     1      87.602  67.131  87.660  0.00  0.00    +0.000 A 
ATOM      6  C   UNL     1      86.896  66.269  88.503  0.00  0.00    +0.000 A 
ATOM      7  C   UNL     1      87.292  64.942  88.619  0.00  0.00    +0.000 A 
ATOM      8  C   UNL     1      88.382  64.456  87.905  0.00  0.00    +0.000 A 
ATOM      9  C   UNL     1      89.091  65.314  87.062  0.00  0.00    +0.000 A 
ATOM     10  F   UNL     1      86.614  64.119  89.429  0.00  0.00    +0.000 F 
ENDBRANCH   2   4
ENDBRANCH   1   2
BRANCH   1  11
ATOM     11  C   UNL     1      89.612  69.882  86.218  0.00  0.00    +0.000 C 
BRANCH  11  17
ATOM     12  C   UNL     1      87.855  71.189  90.751  0.00  0.00    +0.000 C 
ATOM     13  C   UNL     1      87.657  71.086  89.267  0.00  0.00    +0.000 A 
ATOM     14  C   UNL     1      86.470  71.524  88.667  0.00  0.00    +0.000 A 
ATOM     15  C   UNL     1      86.290  71.430  87.281  0.00  0.00    +0.000 A 
ATOM     16  C   UNL     1      87.318  70.898  86.494  0.00  0.00    +0.000 A 
ATOM     17  C   UNL     1      88.514  70.454  87.076  0.00  0.00    +0.000 A 
ATOM     18  C   UNL     1      88.676  70.559  88.463  0.00  0.00    +0.000 A 
ATOM     19  C   UNL     1      85.028  71.921  86.634  0.00  0.00    +0.000 C 
ENDBRANCH  11  17
ENDBRANCH   1  11
TORSDOF 4
ENDMDL
