MODEL 1
REMARK VINA RESULT:      -4.3      0.000      0.000
REMARK  Name = *****
REMARK  6 active torsions:
REMARK  status: ('A' for Active; 'I' for Inactive)
REMARK    1  A    between atoms: C_1  and  C_2
REMARK    2  A    between atoms: C_2  and  N_17
REMARK    3  A    between atoms: C_6  and  C_7
REMARK    4  A    between atoms: C_6  and  O_8
REMARK    5  A    between atoms: O_8  and  C_9
REMARK    6  A    between atoms: C_9  and  C_11
REMARK                            x       y       z     vdW  Elec       q    Type
REMARK                         _______ _______ _______ _____ _____    ______ ____
ROOT
ATOM      1  C   UNL     1      90.434  66.615  86.033  0.00  0.00    +0.000 C 
ATOM      2  C   UNL     1      89.382  67.436  85.265  0.00  0.00    +0.000 C 
ATOM      3  C   UNL     1      88.169  66.559  84.888  0.00  0.00    +0.000 C 
ATOM      4  C   UNL     1      87.247  66.582  86.107  0.00  0.00    +0.000 C 
ATOM      5  C   UNL     1      87.734  67.726  87.000  0.00  0.00    +0.000 C 
ATOM      6  C   UNL     1      88.709  68.552  86.128  0.00  0.00    +0.000 C 
ATOM      7  C   UNL     1      89.633  69.366  87.039  0.00  0.00    +0.000 C 
ENDROOT
BRANCH   2   8
ATOM      8  N   UNL     1      90.059  68.006  84.043  0.00  0.00    +0.000 NA
ATOM      9  O   UNL     1      89.692  67.475  82.988  0.00  0.00    +0.000 OA
ENDBRANCH   2   8
BRANCH   6  10
ATOM     10  O   UNL     1      87.809  69.395  85.341  0.00  0.00    +0.000 OA
BRANCH  10  11
ATOM     11  C   UNL     1      87.879  70.746  85.378  0.00  0.00    +0.000 C 
ATOM     12  O   UNL     1      88.773  71.443  84.929  0.00  0.00    +0.000 OA
BRANCH  11  13
ATOM     13  C   UNL     1      86.690  71.300  86.082  0.00  0.00    +0.000 A 
ATOM     14  C   UNL     1      86.559  71.275  87.477  0.00  0.00    +0.000 A 
ATOM     15  C   UNL     1      85.419  71.808  88.086  0.00  0.00    +0.000 A 
ATOM     16  C   UNL     1      84.407  72.367  87.307  0.00  0.00    +0.000 A 
ATOM     17  C   UNL     1      84.528  72.393  85.919  0.00  0.00    +0.000 A 
ATOM     18  C   UNL     1      85.665  71.861  85.306  0.00  0.00    +0.000 A 
ENDBRANCH  11  13
ENDBRANCH  10  11
ENDBRANCH   6  10
TORSDOF 4
ENDMDL
