REMARK  Name = *****
REMARK  4 active torsions:
REMARK  status: ('A' for Active; 'I' for Inactive)
REMARK    1  A    between atoms: C_3  and  C_17
REMARK    2  A    between atoms: C_6  and  C_7
REMARK    3  A    between atoms: C_7  and  C_8
REMARK    4  A    between atoms: C_8  and  C_10
REMARK                            x       y       z     vdW  Elec       q    Type
REMARK                         _______ _______ _______ _____ _____    ______ ____
ROOT
ATOM      1  C   UNL     1       3.771  -0.135   0.321  0.00  0.00    +0.000 C 
ENDROOT
BRANCH   1   7
ATOM      2  C   UNL     1       1.688   0.123  -1.093  0.00  0.00    +0.000 A 
ATOM      3  C   UNL     1       0.299   0.118  -1.244  0.00  0.00    +0.000 A 
ATOM      4  C   UNL     1      -0.526  -0.141  -0.145  0.00  0.00    +0.000 A 
ATOM      5  C   UNL     1       0.045  -0.397   1.105  0.00  0.00    +0.000 A 
ATOM      6  C   UNL     1       1.434  -0.391   1.255  0.00  0.00    +0.000 A 
ATOM      7  C   UNL     1       2.267  -0.124   0.159  0.00  0.00    +0.000 A 
BRANCH   4   8
ATOM      8  C   UNL     1      -1.951  -0.148  -0.300  0.00  0.00    +0.000 C 
ATOM      9  N   UNL     1      -3.105  -0.146  -0.424  0.00  0.00    +0.000 NA
ENDBRANCH   4   8
ENDBRANCH   1   7
BRANCH   1  10
ATOM     10  C   UNL     1       4.400  -1.514   0.181  0.00  0.00    +0.000 C 
ATOM     11  O   UNL     1       3.756  -2.521  -0.106  0.00  0.00    +0.000 OA
BRANCH  10  12
ATOM     12  C   UNL     1       5.875  -1.648   0.403  0.00  0.00    +0.000 A 
ATOM     13  C   UNL     1       6.702  -0.546   0.662  0.00  0.00    +0.000 A 
ATOM     14  C   UNL     1       8.076  -0.730   0.863  0.00  0.00    +0.000 A 
ATOM     15  C   UNL     1       8.625  -2.010   0.805  0.00  0.00    +0.000 A 
ATOM     16  C   UNL     1       7.814  -3.111   0.547  0.00  0.00    +0.000 A 
ATOM     17  C   UNL     1       6.443  -2.930   0.346  0.00  0.00    +0.000 A 
ATOM     18 CL   UNL     1      10.313  -2.227   1.054  0.00  0.00    +0.000 Cl
ENDBRANCH  10  12
ENDBRANCH   1  10
TORSDOF 4
