MODEL 1
REMARK VINA RESULT:      -4.1      0.000      0.000
REMARK  Name = *****
REMARK  3 active torsions:
REMARK  status: ('A' for Active; 'I' for Inactive)
REMARK    1  A    between atoms: C_4  and  C_7
REMARK    2  A    between atoms: C_7  and  S_8
REMARK    3  A    between atoms: S_8  and  C_9
REMARK                            x       y       z     vdW  Elec       q    Type
REMARK                         _______ _______ _______ _____ _____    ______ ____
ROOT
ATOM      1  C   UNL     1     103.149 126.221  81.243  0.00  0.00    +0.000 C 
ENDROOT
BRANCH   1   5
ATOM      2  C   UNL     1     104.764 122.171  81.714  0.00  0.00    +0.000 C 
ATOM      3  C   UNL     1     104.812 123.103  82.918  0.00  0.00    +0.000 C 
ATOM      4  C   UNL     1     103.816 124.255  82.763  0.00  0.00    +0.000 C 
ATOM      5  C   UNL     1     103.815 124.874  81.382  0.00  0.00    +0.000 C 
ATOM      6  C   UNL     1     104.418 124.268  80.340  0.00  0.00    +0.000 C 
ATOM      7  C   UNL     1     105.084 122.924  80.423  0.00  0.00    +0.000 C 
ENDBRANCH   1   5
BRANCH   1   8
ATOM      8  S   UNL     1     103.115 127.069  82.856  0.00  0.00    +0.000 S 
BRANCH   8   9
ATOM      9  C   UNL     1     101.386 127.496  82.937  0.00  0.00    +0.000 A 
ATOM     10  C   UNL     1     100.955 128.702  83.500  0.00  0.00    +0.000 A 
ATOM     11  C   UNL     1      99.594 129.013  83.542  0.00  0.00    +0.000 A 
ATOM     12  C   UNL     1      98.658 128.125  83.013  0.00  0.00    +0.000 A 
ATOM     13  C   UNL     1      99.082 126.929  82.438  0.00  0.00    +0.000 A 
ATOM     14  C   UNL     1     100.443 126.617  82.396  0.00  0.00    +0.000 A 
ENDBRANCH   8   9
ENDBRANCH   1   8
TORSDOF 3
ENDMDL
