MODEL 1
REMARK VINA RESULT:      -3.9      0.000      0.000
REMARK  Name = *****
REMARK  4 active torsions:
REMARK  status: ('A' for Active; 'I' for Inactive)
REMARK    1  A    between atoms: C_4  and  C_7
REMARK    2  A    between atoms: C_7  and  C_8
REMARK    3  A    between atoms: C_8  and  S_11
REMARK    4  A    between atoms: S_11  and  C_12
REMARK                            x       y       z     vdW  Elec       q    Type
REMARK                         _______ _______ _______ _____ _____    ______ ____
ROOT
ATOM      1  C   UNL     1      87.251  64.056  86.426  0.00  0.00    +0.000 C 
ATOM      2  C   UNL     1      88.398  63.568  85.937  0.00  0.00    +0.000 C 
ATOM      3  F   UNL     1      88.460  62.375  85.315  0.00  0.00    +0.000 F 
ENDROOT
BRANCH   1   4
ATOM      4  C   UNL     1      85.953  63.292  86.315  0.00  0.00    +0.000 C 
BRANCH   4   8
ATOM      5  C   UNL     1      84.551  61.678  90.067  0.00  0.00    +0.000 A 
ATOM      6  C   UNL     1      85.818  61.344  89.594  0.00  0.00    +0.000 A 
ATOM      7  C   UNL     1      86.272  61.869  88.382  0.00  0.00    +0.000 A 
ATOM      8  C   UNL     1      85.463  62.737  87.634  0.00  0.00    +0.000 A 
ATOM      9  C   UNL     1      84.186  63.059  88.118  0.00  0.00    +0.000 A 
ATOM     10  C   UNL     1      83.734  62.533  89.329  0.00  0.00    +0.000 A 
ENDBRANCH   4   8
ENDBRANCH   1   4
BRANCH   1  11
ATOM     11  S   UNL     1      87.231  65.609  87.231  0.00  0.00    +0.000 S 
BRANCH  11  12
ATOM     12  C   UNL     1      87.373  65.079  88.930  0.00  0.00    +0.000 A 
ATOM     13  C   UNL     1      86.413  65.432  89.883  0.00  0.00    +0.000 A 
ATOM     14  C   UNL     1      86.548  65.013  91.208  0.00  0.00    +0.000 A 
ATOM     15  C   UNL     1      87.647  64.244  91.588  0.00  0.00    +0.000 A 
ATOM     16  C   UNL     1      88.614  63.898  90.646  0.00  0.00    +0.000 A 
ATOM     17  C   UNL     1      88.480  64.317  89.321  0.00  0.00    +0.000 A 
ENDBRANCH  11  12
ENDBRANCH   1  11
TORSDOF 4
ENDMDL
