MODEL 1
REMARK VINA RESULT:      -3.7      0.000      0.000
REMARK  Name = *****
REMARK  2 active torsions:
REMARK  status: ('A' for Active; 'I' for Inactive)
REMARK    1  A    between atoms: C_4  and  C_6
REMARK    2  A    between atoms: N_7  and  C_8
REMARK                            x       y       z     vdW  Elec       q    Type
REMARK                         _______ _______ _______ _____ _____    ______ ____
ROOT
ATOM      1  C   UNL     1      97.033 116.774  82.111  0.00  0.00    +0.000 C 
ATOM      2  N   UNL     1      96.787 115.874  81.209  0.00  0.00    +0.000 NA
ATOM      3 CL   UNL     1      97.180 116.153  83.722  0.00  0.00    +0.000 Cl
ENDROOT
BRANCH   2   4
ATOM      4  C   UNL     1      96.591 116.219  79.868  0.00  0.00    +0.000 A 
ATOM      5  C   UNL     1      97.604 115.964  78.939  0.00  0.00    +0.000 A 
ATOM      6  C   UNL     1      97.425 116.276  77.589  0.00  0.00    +0.000 A 
ATOM      7  C   UNL     1      96.218 116.828  77.164  0.00  0.00    +0.000 A 
ATOM      8  C   UNL     1      95.189 117.061  78.074  0.00  0.00    +0.000 A 
ATOM      9  C   UNL     1      95.373 116.747  79.423  0.00  0.00    +0.000 A 
ATOM     10 CL   UNL     1      95.994 117.215  75.503  0.00  0.00    +0.000 Cl
ENDBRANCH   2   4
BRANCH   1  14
ATOM     11  C   UNL     1      98.110 120.277  81.299  0.00  0.00    +0.000 A 
ATOM     12  C   UNL     1      96.911 120.651  81.859  0.00  0.00    +0.000 A 
ATOM     13  S   UNL     1      96.016 119.308  82.416  0.00  0.00    +0.000 S 
ATOM     14  C   UNL     1      97.227 118.200  81.911  0.00  0.00    +0.000 A 
ATOM     15  C   UNL     1      98.293 118.863  81.331  0.00  0.00    +0.000 A 
ENDBRANCH   1  14
TORSDOF 2
ENDMDL
