MODEL 1
REMARK VINA RESULT:      -4.7      0.000      0.000
REMARK  Name = *****
REMARK  1 active torsions:
REMARK  status: ('A' for Active; 'I' for Inactive)
REMARK    1  A    between atoms: C_6  and  C_10
REMARK                            x       y       z     vdW  Elec       q    Type
REMARK                         _______ _______ _______ _____ _____    ______ ____
ROOT
ATOM      1  C   UNL     1     100.407 131.038  84.993  0.00  0.00    +0.000 C 
ATOM      2  C   UNL     1      99.415 130.155  84.317  0.00  0.00    +0.000 C 
ATOM      3  C   UNL     1      99.884 129.055  83.699  0.00  0.00    +0.000 C 
ATOM      4  C   UNL     1     101.318 128.918  83.801  0.00  0.00    +0.000 C 
ATOM      5  C   UNL     1     102.105 127.941  83.344  0.00  0.00    +0.000 C 
ATOM      6  C   UNL     1     101.685 126.756  82.636  0.00  0.00    +0.000 C 
ATOM      7  C   UNL     1     100.420 126.480  82.277  0.00  0.00    +0.000 C 
ATOM      8  N   UNL     1      99.251 127.161  82.439  0.00  0.00    +0.000 NA
ATOM      9  N   UNL     1      99.033 128.226  83.036  0.00  0.00    +0.000 NA
ATOM     10  S   UNL     1     102.026 130.263  84.682  0.00  0.00    +0.000 S 
ENDROOT
BRANCH   6  11
ATOM     11  C   UNL     1     102.688 125.733  82.257  0.00  0.00    +0.000 A 
ATOM     12  C   UNL     1     103.104 125.612  80.924  0.00  0.00    +0.000 A 
ATOM     13  C   UNL     1     104.056 124.653  80.572  0.00  0.00    +0.000 A 
ATOM     14  C   UNL     1     104.598 123.816  81.547  0.00  0.00    +0.000 A 
ATOM     15  C   UNL     1     104.193 123.936  82.875  0.00  0.00    +0.000 A 
ATOM     16  C   UNL     1     103.241 124.894  83.231  0.00  0.00    +0.000 A 
ENDBRANCH   6  11
TORSDOF 1
ENDMDL
