MODEL 1
REMARK VINA RESULT:      -4.9      0.000      0.000
REMARK  Name = *****
REMARK  4 active torsions:
REMARK  status: ('A' for Active; 'I' for Inactive)
REMARK    1  A    between atoms: C_1  and  C_2
REMARK    2  A    between atoms: C_5  and  N_8
REMARK    3  A    between atoms: C_9  and  C_10
REMARK    4  A    between atoms: C_13  and  C_16
REMARK                            x       y       z     vdW  Elec       q    Type
REMARK                         _______ _______ _______ _____ _____    ______ ____
ROOT
ATOM      1  C   UNL     1      86.765  63.977  89.209  0.00  0.00    +0.000 A 
ATOM      2  C   UNL     1      86.803  62.838  88.402  0.00  0.00    +0.000 A 
ATOM      3  C   UNL     1      86.304  61.626  88.884  0.00  0.00    +0.000 A 
ATOM      4  C   UNL     1      85.758  61.542  90.175  0.00  0.00    +0.000 A 
ATOM      5  C   UNL     1      85.734  62.694  90.979  0.00  0.00    +0.000 A 
ATOM      6  C   UNL     1      86.231  63.909  90.498  0.00  0.00    +0.000 A 
ENDROOT
BRANCH   4   7
ATOM      7  C   UNL     1      85.241  60.225  90.704  0.00  0.00    +0.000 C 
ATOM      8  F   UNL     1      84.009  59.900  90.222  0.00  0.00    +0.000 F 
ATOM      9  F   UNL     1      86.057  59.184  90.383  0.00  0.00    +0.000 F 
ATOM     10  F   UNL     1      85.125  60.205  92.062  0.00  0.00    +0.000 F 
ENDBRANCH   4   7
BRANCH   1  12
ATOM     11  N   UNL     1      87.956  65.362  87.615  0.00  0.00    +0.000 NA
ATOM     12  C   UNL     1      87.285  65.269  88.720  0.00  0.00    +0.000 C 
BRANCH  11  17
ATOM     13  C   UNL     1      89.675  70.616  86.167  0.00  0.00    +0.000 C 
ATOM     14  C   UNL     1      89.241  69.238  86.574  0.00  0.00    +0.000 A 
ATOM     15  C   UNL     1      89.961  68.116  86.148  0.00  0.00    +0.000 A 
ATOM     16  C   UNL     1      89.537  66.831  86.497  0.00  0.00    +0.000 A 
ATOM     17  C   UNL     1      88.391  66.650  87.273  0.00  0.00    +0.000 A 
ATOM     18  C   UNL     1      87.655  67.767  87.672  0.00  0.00    +0.000 A 
ATOM     19  C   UNL     1      88.075  69.053  87.325  0.00  0.00    +0.000 A 
ENDBRANCH  11  17
ENDBRANCH   1  12
TORSDOF 3
ENDMDL
