MODEL 1
REMARK VINA RESULT:      -4.5      0.000      0.000
REMARK  Name = *****
REMARK  5 active torsions:
REMARK  status: ('A' for Active; 'I' for Inactive)
REMARK    1  A    between atoms: C_1  and  C_2
REMARK    2  A    between atoms: C_4  and  C_16
REMARK    3  A    between atoms: C_6  and  O_8
REMARK    4  A    between atoms: O_8  and  C_9
REMARK    5  A    between atoms: C_9  and  C_11
REMARK                            x       y       z     vdW  Elec       q    Type
REMARK                         _______ _______ _______ _____ _____    ______ ____
ROOT
ATOM      1  C   UNL     1      98.397 126.550  82.523  0.00  0.00    +0.000 C 
ATOM      2  C   UNL     1      99.706 127.220  82.820  0.00  0.00    +0.000 A 
ATOM      3  C   UNL     1      99.754 128.422  83.542  0.00  0.00    +0.000 A 
ATOM      4  C   UNL     1     100.977 129.049  83.819  0.00  0.00    +0.000 A 
ATOM      5  C   UNL     1     102.163 128.453  83.377  0.00  0.00    +0.000 A 
ATOM      6  C   UNL     1     102.117 127.247  82.679  0.00  0.00    +0.000 A 
ATOM      7  C   UNL     1     100.901 126.638  82.379  0.00  0.00    +0.000 A 
ATOM      8  C   UNL     1     101.028 130.338  84.583  0.00  0.00    +0.000 C 
ENDROOT
BRANCH   6   9
ATOM      9  O   UNL     1     103.347 126.742  82.222  0.00  0.00    +0.000 OA
BRANCH   9  10
ATOM     10  C   UNL     1     103.520 126.516  80.857  0.00  0.00    +0.000 C 
ATOM     11  O   UNL     1     103.420 127.347  79.964  0.00  0.00    +0.000 OA
BRANCH  10  12
ATOM     12  C   UNL     1     103.750 125.034  80.626  0.00  0.00    +0.000 C 
ATOM     13  C   UNL     1     104.001 124.243  81.909  0.00  0.00    +0.000 C 
ATOM     14  C   UNL     1     104.819 123.023  81.489  0.00  0.00    +0.000 C 
ATOM     15  C   UNL     1     105.285 123.287  80.061  0.00  0.00    +0.000 C 
ATOM     16  C   UNL     1     105.017 124.764  79.819  0.00  0.00    +0.000 C 
ENDBRANCH  10  12
ENDBRANCH   9  10
ENDBRANCH   6   9
TORSDOF 3
ENDMDL
