MODEL 1
REMARK VINA RESULT:      -5.3      0.000      0.000
REMARK  Name = *****
REMARK  7 active torsions:
REMARK  status: ('A' for Active; 'I' for Inactive)
REMARK    1  A    between atoms: C_1  and  C_2
REMARK    2  A    between atoms: C_4  and  C_19
REMARK    3  A    between atoms: C_5  and  C_9
REMARK    4  A    between atoms: C_6  and  C_8
REMARK    5  A    between atoms: C_9  and  C_11
REMARK    6  A    between atoms: C_11  and  C_12
REMARK    7  A    between atoms: C_12  and  C_13
REMARK                            x       y       z     vdW  Elec       q    Type
REMARK                         _______ _______ _______ _____ _____    ______ ____
ROOT
ATOM      1  C   UNL     1      88.659  70.209  86.898  0.00  0.00    +0.000 C 
ATOM      2  O   UNL     1      89.685  70.881  86.843  0.00  0.00    +0.000 OA
ENDROOT
BRANCH   1   7
ATOM      3  C   UNL     1      83.567  72.782  87.864  0.00  0.00    +0.000 C 
ATOM      4  C   UNL     1      84.877  72.095  87.608  0.00  0.00    +0.000 A 
ATOM      5  C   UNL     1      85.352  71.944  86.300  0.00  0.00    +0.000 A 
ATOM      6  C   UNL     1      86.596  71.349  86.044  0.00  0.00    +0.000 A 
ATOM      7  C   UNL     1      87.357  70.881  87.132  0.00  0.00    +0.000 A 
ATOM      8  C   UNL     1      86.906  71.041  88.458  0.00  0.00    +0.000 A 
ATOM      9  C   UNL     1      85.668  71.662  88.679  0.00  0.00    +0.000 A 
ATOM     10  C   UNL     1      87.727  70.594  89.636  0.00  0.00    +0.000 C 
ATOM     11  C   UNL     1      87.061  71.225  84.619  0.00  0.00    +0.000 C 
ENDBRANCH   1   7
BRANCH   1  12
ATOM     12  C   UNL     1      88.642  68.704  86.747  0.00  0.00    +0.000 C 
BRANCH  12  13
ATOM     13  C   UNL     1      90.021  68.191  86.343  0.00  0.00    +0.000 C 
BRANCH  13  14
ATOM     14  C   UNL     1      90.031  66.689  86.208  0.00  0.00    +0.000 A 
ATOM     15  C   UNL     1      91.031  66.052  85.461  0.00  0.00    +0.000 A 
ATOM     16  C   UNL     1      91.029  64.664  85.315  0.00  0.00    +0.000 A 
ATOM     17  C   UNL     1      90.025  63.902  85.910  0.00  0.00    +0.000 A 
ATOM     18  C   UNL     1      89.023  64.526  86.651  0.00  0.00    +0.000 A 
ATOM     19  C   UNL     1      89.024  65.914  86.797  0.00  0.00    +0.000 A 
ENDBRANCH  13  14
ENDBRANCH  12  13
ENDBRANCH   1  12
TORSDOF 4
ENDMDL
