MODEL 1
REMARK VINA RESULT:      -4.4      0.000      0.000
REMARK  Name = *****
REMARK  3 active torsions:
REMARK  status: ('A' for Active; 'I' for Inactive)
REMARK    1  A    between atoms: C_5  and  C_8
REMARK    2  A    between atoms: C_8  and  C_9
REMARK    3  A    between atoms: C_9  and  C_10
REMARK                            x       y       z     vdW  Elec       q    Type
REMARK                         _______ _______ _______ _____ _____    ______ ____
ROOT
ATOM      1  C   UNL     1      86.412  62.287  88.410  0.00  0.00    +0.000 C 
ATOM      2  C   UNL     1      87.001  63.111  89.557  0.00  0.00    +0.000 C 
ATOM      3  C   UNL     1      88.424  63.593  89.261  0.00  0.00    +0.000 C 
ATOM      4  C   UNL     1      88.518  64.878  88.438  0.00  0.00    +0.000 C 
ATOM      5  C   UNL     1      87.490  65.011  87.312  0.00  0.00    +0.000 C 
ATOM      6  O   UNL     1      87.298  63.757  86.660  0.00  0.00    +0.000 OA
ATOM      7  C   UNL     1      86.148  63.057  87.123  0.00  0.00    +0.000 C 
ATOM      8 CL   UNL     1      89.297  63.857  90.814  0.00  0.00    +0.000 Cl
ENDROOT
BRANCH   5   9
ATOM      9  C   UNL     1      87.970  66.033  86.270  0.00  0.00    +0.000 C 
BRANCH   9  10
ATOM     10  C   UNL     1      89.354  66.591  86.617  0.00  0.00    +0.000 C 
BRANCH  10  11
ATOM     11  C   UNL     1      89.524  68.005  86.114  0.00  0.00    +0.000 A 
ATOM     12  C   UNL     1      89.770  68.247  84.756  0.00  0.00    +0.000 A 
ATOM     13  C   UNL     1      89.945  69.552  84.292  0.00  0.00    +0.000 A 
ATOM     14  C   UNL     1      89.881  70.624  85.181  0.00  0.00    +0.000 A 
ATOM     15  C   UNL     1      89.644  70.392  86.535  0.00  0.00    +0.000 A 
ATOM     16  C   UNL     1      89.468  69.088  87.000  0.00  0.00    +0.000 A 
ENDBRANCH  10  11
ENDBRANCH   9  10
ENDBRANCH   5   9
TORSDOF 3
ENDMDL
