MODEL 1
REMARK VINA RESULT:      -4.6      0.000      0.000
REMARK  Name = *****
REMARK  4 active torsions:
REMARK  status: ('A' for Active; 'I' for Inactive)
REMARK    1  A    between atoms: C_1  and  O_2
REMARK    2  A    between atoms: O_2  and  C_3
REMARK    3  A    between atoms: C_6  and  C_9
REMARK    4  A    between atoms: C_11  and  C_12
REMARK                            x       y       z     vdW  Elec       q    Type
REMARK                         _______ _______ _______ _____ _____    ______ ____
ROOT
ATOM      1  C   UNL     1      87.854  65.258  87.289  0.00  0.00    +0.000 C 
ATOM      2  C   UNL     1      88.834  64.130  87.089  0.00  0.00    +0.000 C 
ATOM      3  C   UNL     1      88.339  64.439  88.479  0.00  0.00    +0.000 C 
ENDROOT
BRANCH   1   7
ATOM      4  C   UNL     1      89.163  69.384  86.888  0.00  0.00    +0.000 A 
ATOM      5  C   UNL     1      88.021  69.076  87.623  0.00  0.00    +0.000 A 
ATOM      6  C   UNL     1      87.601  67.745  87.743  0.00  0.00    +0.000 A 
ATOM      7  C   UNL     1      88.299  66.692  87.131  0.00  0.00    +0.000 A 
ATOM      8  C   UNL     1      89.448  67.024  86.400  0.00  0.00    +0.000 A 
ATOM      9  C   UNL     1      89.872  68.351  86.276  0.00  0.00    +0.000 A 
BRANCH   4  11
ATOM     10  C   UNL     1      89.973  71.007  85.353  0.00  0.00    +0.000 C 
ATOM     11  O   UNL     1      89.685  70.633  86.694  0.00  0.00    +0.000 OA
ENDBRANCH   4  11
ENDBRANCH   1   7
BRANCH   3  12
ATOM     12  C   UNL     1      87.378  63.506  89.177  0.00  0.00    +0.000 A 
ATOM     13  C   UNL     1      86.840  63.811  90.437  0.00  0.00    +0.000 A 
ATOM     14  C   UNL     1      85.940  62.952  91.075  0.00  0.00    +0.000 A 
ATOM     15  C   UNL     1      85.552  61.768  90.456  0.00  0.00    +0.000 A 
ATOM     16  C   UNL     1      86.060  61.445  89.201  0.00  0.00    +0.000 A 
ATOM     17  C   UNL     1      86.960  62.308  88.571  0.00  0.00    +0.000 A 
ENDBRANCH   3  12
TORSDOF 3
ENDMDL
