MODEL 1
REMARK VINA RESULT:      -4.5      0.000      0.000
REMARK  Name = *****
REMARK  5 active torsions:
REMARK  status: ('A' for Active; 'I' for Inactive)
REMARK    1  A    between atoms: C_1  and  C_2
REMARK    2  A    between atoms: C_6  and  C_7
REMARK    3  A    between atoms: C_7  and  O_9
REMARK    4  A    between atoms: O_9  and  C_10
REMARK    5  A    between atoms: C_10  and  C_11
REMARK                            x       y       z     vdW  Elec       q    Type
REMARK                         _______ _______ _______ _____ _____    ______ ____
ROOT
ATOM      1  C   UNL     1      89.221  67.305  86.505  0.00  0.00    +0.000 C 
ATOM      2  O   UNL     1      90.440  67.194  86.494  0.00  0.00    +0.000 OA
ENDROOT
BRANCH   1   8
ATOM      3  C   UNL     1      89.872  70.758  85.909  0.00  0.00    +0.000 C 
ATOM      4  C   UNL     1      89.277  69.822  86.952  0.00  0.00    +0.000 C 
ATOM      5  C   UNL     1      88.220  70.474  87.882  0.00  0.00    +0.000 C 
ATOM      6  C   UNL     1      87.562  69.218  88.463  0.00  0.00    +0.000 C 
ATOM      7  C   UNL     1      87.134  68.687  87.089  0.00  0.00    +0.000 C 
ATOM      8  C   UNL     1      88.485  68.620  86.323  0.00  0.00    +0.000 C 
ATOM      9  C   UNL     1      86.400  69.914  86.592  0.00  0.00    +0.000 C 
ATOM     10  C   UNL     1      87.054  70.985  87.066  0.00  0.00    +0.000 C 
ENDBRANCH   1   8
BRANCH   1  11
ATOM     11  O   UNL     1      88.351  66.268  86.583  0.00  0.00    +0.000 OA
BRANCH  11  12
ATOM     12  C   UNL     1      88.871  65.054  87.137  0.00  0.00    +0.000 C 
BRANCH  12  13
ATOM     13  C   UNL     1      88.217  64.847  88.479  0.00  0.00    +0.000 A 
ATOM     14  C   UNL     1      87.011  65.492  88.790  0.00  0.00    +0.000 A 
ATOM     15  C   UNL     1      86.417  65.316  90.041  0.00  0.00    +0.000 A 
ATOM     16  C   UNL     1      87.023  64.499  90.993  0.00  0.00    +0.000 A 
ATOM     17  C   UNL     1      88.224  63.857  90.697  0.00  0.00    +0.000 A 
ATOM     18  C   UNL     1      88.821  64.033  89.447  0.00  0.00    +0.000 A 
ENDBRANCH  12  13
ENDBRANCH  11  12
ENDBRANCH   1  11
TORSDOF 4
ENDMDL
