MODEL 1
REMARK VINA RESULT:      -3.7      0.000      0.000
REMARK  Name = *****
REMARK  4 active torsions:
REMARK  status: ('A' for Active; 'I' for Inactive)
REMARK    1  A    between atoms: C_4  and  S_7
REMARK    2  A    between atoms: S_7  and  C_8
REMARK    3  A    between atoms: C_9  and  S_10
REMARK    4  A    between atoms: S_10  and  C_12
REMARK                            x       y       z     vdW  Elec       q    Type
REMARK                         _______ _______ _______ _____ _____    ______ ____
ROOT
ATOM      1  C   UNL     1      88.349  64.011  86.443  0.00  0.00    +0.000 C 
ATOM      2  C   UNL     1      87.374  63.189  86.026  0.00  0.00    +0.000 C 
ENDROOT
BRANCH   2   3
ATOM      3  S   UNL     1      85.642  63.615  86.122  0.00  0.00    +0.000 S 
ATOM      4  O   UNL     1      84.994  62.775  85.060  0.00  0.00    +0.000 OA
BRANCH   3   5
ATOM      5  C   UNL     1      85.244  62.790  87.688  0.00  0.00    +0.000 A 
ATOM      6  C   UNL     1      86.191  61.952  88.291  0.00  0.00    +0.000 A 
ATOM      7  C   UNL     1      85.897  61.313  89.498  0.00  0.00    +0.000 A 
ATOM      8  C   UNL     1      84.660  61.511  90.110  0.00  0.00    +0.000 A 
ATOM      9  C   UNL     1      83.716  62.349  89.519  0.00  0.00    +0.000 A 
ATOM     10  C   UNL     1      84.008  62.989  88.312  0.00  0.00    +0.000 A 
ENDBRANCH   3   5
ENDBRANCH   2   3
BRANCH   1  11
ATOM     11  S   UNL     1      88.123  65.578  87.147  0.00  0.00    +0.000 S 
BRANCH  11  15
ATOM     12  C   UNL     1      87.150  64.355  91.454  0.00  0.00    +0.000 A 
ATOM     13  C   UNL     1      88.310  63.881  90.843  0.00  0.00    +0.000 A 
ATOM     14  C   UNL     1      88.611  64.252  89.531  0.00  0.00    +0.000 A 
ATOM     15  C   UNL     1      87.746  65.093  88.821  0.00  0.00    +0.000 A 
ATOM     16  C   UNL     1      86.588  65.572  89.441  0.00  0.00    +0.000 A 
ATOM     17  C   UNL     1      86.290  65.201  90.754  0.00  0.00    +0.000 A 
ENDBRANCH  11  15
ENDBRANCH   1  11
TORSDOF 4
ENDMDL
