REMARK  Name = *****
REMARK  6 active torsions:
REMARK  status: ('A' for Active; 'I' for Inactive)
REMARK    1  A    between atoms: C_1  and  C_2
REMARK    2  A    between atoms: C_4  and  C_11
REMARK    3  A    between atoms: C_5  and  C_8
REMARK    4  A    between atoms: C_8  and  C_10
REMARK    5  A    between atoms: C_11  and  C_12
REMARK    6  A    between atoms: C_12  and  C_13
REMARK                            x       y       z     vdW  Elec       q    Type
REMARK                         _______ _______ _______ _____ _____    ______ ____
ROOT
ATOM      1  C   UNL     1       2.321  -0.705  -0.452  0.00  0.00    +0.000 C 
ATOM      2  C   UNL     1       0.839  -0.473  -0.396  0.00  0.00    +0.000 A 
ATOM      3  C   UNL     1       0.334   0.797  -0.070  0.00  0.00    +0.000 A 
ATOM      4  C   UNL     1      -1.049   1.044   0.019  0.00  0.00    +0.000 A 
ATOM      5  C   UNL     1      -1.925  -0.043  -0.199  0.00  0.00    +0.000 A 
ATOM      6  C   UNL     1      -1.423  -1.317  -0.505  0.00  0.00    +0.000 A 
ATOM      7  C   UNL     1      -0.050  -1.529  -0.601  0.00  0.00    +0.000 A 
ENDROOT
BRANCH   5   8
ATOM      8  C   UNL     1      -3.403   0.110  -0.083  0.00  0.00    +0.000 C 
ATOM      9  O   UNL     1      -3.893   0.723   0.861  0.00  0.00    +0.000 OA
ATOM     10  C   UNL     1      -4.265  -0.538  -1.135  0.00  0.00    +0.000 C 
ENDBRANCH   5   8
BRANCH   4  11
ATOM     11  C   UNL     1      -1.593   2.422   0.356  0.00  0.00    +0.000 C 
BRANCH  11  12
ATOM     12  C   UNL     1      -0.612   3.601   0.265  0.00  0.00    +0.000 C 
BRANCH  12  13
ATOM     13  C   UNL     1      -1.297   4.931   0.484  0.00  0.00    +0.000 A 
ATOM     14  C   UNL     1      -1.672   5.332   1.775  0.00  0.00    +0.000 A 
ATOM     15  C   UNL     1      -2.313   6.555   1.976  0.00  0.00    +0.000 A 
ATOM     16  C   UNL     1      -2.579   7.375   0.886  0.00  0.00    +0.000 A 
ATOM     17  C   UNL     1      -2.219   6.995  -0.400  0.00  0.00    +0.000 A 
ATOM     18  C   UNL     1      -1.579   5.772  -0.604  0.00  0.00    +0.000 A 
ATOM     19  F   UNL     1      -3.194   8.550   1.079  0.00  0.00    +0.000 F 
ENDBRANCH  12  13
ENDBRANCH  11  12
ENDBRANCH   4  11
TORSDOF 4
