REMARK  Name = *****
REMARK  4 active torsions:
REMARK  status: ('A' for Active; 'I' for Inactive)
REMARK    1  A    between atoms: C_6  and  C_7
REMARK    2  A    between atoms: C_7  and  C_8
REMARK    3  A    between atoms: C_8  and  C_10
REMARK    4  A    between atoms: C_10  and  C_11
REMARK                            x       y       z     vdW  Elec       q    Type
REMARK                         _______ _______ _______ _____ _____    ______ ____
ROOT
ATOM      1  C   UNL     1       4.417   1.535   0.473  0.00  0.00    +0.000 C 
ATOM      2  O   UNL     1       3.657   2.346   1.005  0.00  0.00    +0.000 OA
ENDROOT
BRANCH   1   3
ATOM      3  C   UNL     1       4.009   0.112   0.117  0.00  0.00    +0.000 C 
BRANCH   3   9
ATOM      4  C   UNL     1       2.580  -0.954   1.909  0.00  0.00    +0.000 A 
ATOM      5  C   UNL     1       1.338  -1.332   2.424  0.00  0.00    +0.000 A 
ATOM      6  C   UNL     1       0.177  -1.056   1.706  0.00  0.00    +0.000 A 
ATOM      7  C   UNL     1       0.247  -0.404   0.477  0.00  0.00    +0.000 A 
ATOM      8  C   UNL     1       1.489  -0.027  -0.040  0.00  0.00    +0.000 A 
ATOM      9  C   UNL     1       2.667  -0.306   0.668  0.00  0.00    +0.000 A 
ATOM     10 CL   UNL     1      -1.353  -1.522   2.341  0.00  0.00    +0.000 Cl
ENDBRANCH   3   9
ENDBRANCH   1   3
BRANCH   1  11
ATOM     11  C   UNL     1       5.831   1.940   0.100  0.00  0.00    +0.000 C 
BRANCH  11  12
ATOM     12  C   UNL     1       6.874   1.287   0.971  0.00  0.00    +0.000 A 
ATOM     13  C   UNL     1       7.816   0.406   0.421  0.00  0.00    +0.000 A 
ATOM     14  C   UNL     1       8.776  -0.199   1.236  0.00  0.00    +0.000 A 
ATOM     15  C   UNL     1       8.802   0.077   2.602  0.00  0.00    +0.000 A 
ATOM     16  C   UNL     1       7.876   0.954   3.160  0.00  0.00    +0.000 A 
ATOM     17  C   UNL     1       6.915   1.560   2.347  0.00  0.00    +0.000 A 
ATOM     18 CL   UNL     1       9.985  -0.670   3.602  0.00  0.00    +0.000 Cl
ENDBRANCH  11  12
ENDBRANCH   1  11
TORSDOF 4
