REMARK  Name = *****
REMARK  5 active torsions:
REMARK  status: ('A' for Active; 'I' for Inactive)
REMARK    1  A    between atoms: C_1  and  O_2
REMARK    2  A    between atoms: O_2  and  P_3
REMARK    3  A    between atoms: P_3  and  C_5
REMARK    4  A    between atoms: P_3  and  O_11
REMARK    5  A    between atoms: O_11  and  C_12
REMARK                            x       y       z     vdW  Elec       q    Type
REMARK                         _______ _______ _______ _____ _____    ______ ____
ROOT
ATOM      1  P   UNL     1       3.056   1.122  -1.163  0.00  0.00    +0.000 P 
ATOM      2  S   UNL     1       2.358   2.693  -0.101  0.00  0.00    +0.000 S 
ENDROOT
BRANCH   1   3
ATOM      3  C   UNL     1       4.790   0.534  -0.876  0.00  0.00    +0.000 A 
ATOM      4  C   UNL     1       5.268  -0.568  -1.604  0.00  0.00    +0.000 A 
ATOM      5  C   UNL     1       6.583  -1.003  -1.434  0.00  0.00    +0.000 A 
ATOM      6  C   UNL     1       7.428  -0.344  -0.541  0.00  0.00    +0.000 A 
ATOM      7  C   UNL     1       6.959   0.749   0.188  0.00  0.00    +0.000 A 
ATOM      8  C   UNL     1       5.645   1.187   0.024  0.00  0.00    +0.000 A 
ENDBRANCH   1   3
BRANCH   1  10
ATOM      9  C   UNL     1       1.433  -0.806  -0.359  0.00  0.00    +0.000 C 
ATOM     10  O   UNL     1       2.479   0.048   0.065  0.00  0.00    +0.000 OA
ENDBRANCH   1  10
BRANCH   1  11
ATOM     11  O   UNL     1       3.632   2.196  -2.390  0.00  0.00    +0.000 OA
BRANCH  11  12
ATOM     12  C   UNL     1       3.226   1.987  -3.683  0.00  0.00    +0.000 A 
ATOM     13  C   UNL     1       2.007   1.400  -4.015  0.00  0.00    +0.000 A 
ATOM     14  C   UNL     1       1.681   1.220  -5.360  0.00  0.00    +0.000 A 
ATOM     15  C   UNL     1       2.553   1.632  -6.367  0.00  0.00    +0.000 A 
ATOM     16  C   UNL     1       3.763   2.237  -6.027  0.00  0.00    +0.000 A 
ATOM     17  C   UNL     1       4.097   2.417  -4.684  0.00  0.00    +0.000 A 
ATOM     18 CL   UNL     1       0.185   0.477  -5.776  0.00  0.00    +0.000 Cl
ENDBRANCH  11  12
ENDBRANCH   1  11
TORSDOF 4
