MODEL 1
REMARK VINA RESULT:      -4.5      0.000      0.000
REMARK  Name = *****
REMARK  4 active torsions:
REMARK  status: ('A' for Active; 'I' for Inactive)
REMARK    1  A    between atoms: C_1  and  C_2
REMARK    2  A    between atoms: C_2  and  C_3
REMARK    3  A    between atoms: C_2  and  N_9
REMARK    4  A    between atoms: C_10  and  C_12
REMARK                            x       y       z     vdW  Elec       q    Type
REMARK                         _______ _______ _______ _____ _____    ______ ____
ROOT
ATOM      1  N   UNL     1      89.835  68.455  86.620  0.00  0.00    +0.000 NA
ATOM      2  C   UNL     1      89.648  69.891  86.847  0.00  0.00    +0.000 C 
ATOM      3  O   UNL     1      90.073  69.413  85.561  0.00  0.00    +0.000 OA
ENDROOT
BRANCH   2   4
ATOM      4  C   UNL     1      88.284  70.517  86.981  0.00  0.00    +0.000 A 
ATOM      5  C   UNL     1      87.694  70.700  88.246  0.00  0.00    +0.000 A 
ATOM      6  C   UNL     1      86.433  71.287  88.388  0.00  0.00    +0.000 A 
ATOM      7  C   UNL     1      85.742  71.716  87.260  0.00  0.00    +0.000 A 
ATOM      8  C   UNL     1      86.303  71.564  85.996  0.00  0.00    +0.000 A 
ATOM      9  C   UNL     1      87.564  70.975  85.862  0.00  0.00    +0.000 A 
ATOM     10 CL   UNL     1      84.189  72.435  87.427  0.00  0.00    +0.000 Cl
ENDBRANCH   2   4
BRANCH   1  12
ATOM     11  C   UNL     1      89.098  66.872  84.903  0.00  0.00    +0.000 C 
ATOM     12  C   UNL     1      88.681  67.669  86.148  0.00  0.00    +0.000 C 
BRANCH  12  13
ATOM     13  C   UNL     1      88.176  66.712  87.222  0.00  0.00    +0.000 A 
ATOM     14  C   UNL     1      88.764  65.452  87.419  0.00  0.00    +0.000 A 
ATOM     15  C   UNL     1      88.283  64.586  88.403  0.00  0.00    +0.000 A 
ATOM     16  C   UNL     1      87.205  64.965  89.200  0.00  0.00    +0.000 A 
ATOM     17  C   UNL     1      86.606  66.209  89.012  0.00  0.00    +0.000 A 
ATOM     18  C   UNL     1      87.086  67.075  88.028  0.00  0.00    +0.000 A 
ENDBRANCH  12  13
ENDBRANCH   1  12
TORSDOF 3
ENDMDL
