REMARK  Name = *****
REMARK  2 active torsions:
REMARK  status: ('A' for Active; 'I' for Inactive)
REMARK    1  A    between atoms: C_4  and  C_7
REMARK    2  A    between atoms: C_8  and  C_9
REMARK                            x       y       z     vdW  Elec       q    Type
REMARK                         _______ _______ _______ _____ _____    ______ ____
ROOT
ATOM      1  C   UNL     1      -2.802   0.436  -0.308  0.00  0.00    +0.000 C 
ATOM      2  C   UNL     1      -3.719  -0.539  -0.421  0.00  0.00    +0.000 C 
ENDROOT
BRANCH   2   3
ATOM      3  C   UNL     1      -5.157  -0.296  -0.597  0.00  0.00    +0.000 A 
ATOM      4  C   UNL     1      -5.647   0.753  -1.386  0.00  0.00    +0.000 A 
ATOM      5  C   UNL     1      -7.021   0.922  -1.546  0.00  0.00    +0.000 A 
ATOM      6  C   UNL     1      -7.915   0.052  -0.936  0.00  0.00    +0.000 A 
ATOM      7  C   UNL     1      -7.448  -1.004  -0.163  0.00  0.00    +0.000 A 
ATOM      8  C   UNL     1      -6.071  -1.180   0.002  0.00  0.00    +0.000 A 
ATOM      9  F   UNL     1      -9.235   0.219  -1.094  0.00  0.00    +0.000 F 
ATOM     10  F   UNL     1      -7.473   1.933  -2.300  0.00  0.00    +0.000 F 
ENDBRANCH   2   3
BRANCH   1  14
ATOM     11  C   UNL     1       1.394  -0.179   0.252  0.00  0.00    +0.000 A 
ATOM     12  C   UNL     1       0.683  -1.028  -0.593  0.00  0.00    +0.000 A 
ATOM     13  C   UNL     1      -0.689  -0.843  -0.780  0.00  0.00    +0.000 A 
ATOM     14  C   UNL     1      -1.366   0.187  -0.114  0.00  0.00    +0.000 A 
ATOM     15  C   UNL     1      -0.637   1.044   0.720  0.00  0.00    +0.000 A 
ATOM     16  C   UNL     1       0.735   0.859   0.907  0.00  0.00    +0.000 A 
ENDBRANCH   1  14
TORSDOF 2
