MODEL 1
REMARK VINA RESULT:      -4.6      0.000      0.000
REMARK  Name = *****
REMARK  4 active torsions:
REMARK  status: ('A' for Active; 'I' for Inactive)
REMARK    1  A    between atoms: C_1  and  C_2
REMARK    2  A    between atoms: C_7  and  C_8
REMARK    3  A    between atoms: C_9  and  C_11
REMARK    4  A    between atoms: C_16  and  C_17
REMARK                            x       y       z     vdW  Elec       q    Type
REMARK                         _______ _______ _______ _____ _____    ______ ____
ROOT
ATOM      1  C   UNL     1      88.445  66.369  86.535  0.00  0.00    +0.000 C 
ATOM      2  C   UNL     1      89.691  67.247  86.571  0.00  0.00    +0.000 C 
ATOM      3  O   UNL     1      89.659  65.998  85.864  0.00  0.00    +0.000 OA
ENDROOT
BRANCH   1  10
ATOM      4  C   UNL     1      86.404  67.365  88.495  0.00  0.00    +0.000 C 
ATOM      5  C   UNL     1      87.079  66.034  88.683  0.00  0.00    +0.000 A 
ATOM      6  C   UNL     1      86.753  65.265  89.814  0.00  0.00    +0.000 A 
ATOM      7  C   UNL     1      87.358  64.031  90.036  0.00  0.00    +0.000 A 
ATOM      8  C   UNL     1      88.299  63.553  89.133  0.00  0.00    +0.000 A 
ATOM      9  C   UNL     1      88.635  64.315  88.012  0.00  0.00    +0.000 A 
ATOM     10  C   UNL     1      88.048  65.572  87.762  0.00  0.00    +0.000 A 
ENDBRANCH   1  10
BRANCH   2  11
ATOM     11  C   UNL     1      89.756  68.518  85.751  0.00  0.00    +0.000 A 
ATOM     12  C   UNL     1      90.018  68.443  84.368  0.00  0.00    +0.000 A 
ATOM     13  C   UNL     1      90.080  69.584  83.565  0.00  0.00    +0.000 A 
ATOM     14  C   UNL     1      89.879  70.837  84.128  0.00  0.00    +0.000 A 
ATOM     15  C   UNL     1      89.608  70.945  85.489  0.00  0.00    +0.000 A 
ATOM     16  C   UNL     1      89.529  69.800  86.303  0.00  0.00    +0.000 A 
ATOM     17  C   UNL     1      89.239  69.977  87.770  0.00  0.00    +0.000 C 
ENDBRANCH   2  11
TORSDOF 2
ENDMDL
