MODEL 1
REMARK VINA RESULT:      -4.2      0.000      0.000
REMARK  Name = *****
REMARK  4 active torsions:
REMARK  status: ('A' for Active; 'I' for Inactive)
REMARK    1  A    between atoms: C_4  and  C_7
REMARK    2  A    between atoms: C_7  and  C_9
REMARK    3  A    between atoms: C_10  and  C_11
REMARK    4  A    between atoms: C_10  and  S_16
REMARK                            x       y       z     vdW  Elec       q    Type
REMARK                         _______ _______ _______ _____ _____    ______ ____
ROOT
ATOM      1  C   UNL     1      89.862  68.427  86.501  0.00  0.00    +0.000 C 
ATOM      2  C   UNL     1      89.216  67.247  86.549  0.00  0.00    +0.000 C 
ENDROOT
BRANCH   2   3
ATOM      3  C   UNL     1      89.906  66.078  86.092  0.00  0.00    +0.000 A 
ATOM      4  C   UNL     1      91.131  65.990  85.446  0.00  0.00    +0.000 A 
ATOM      5  C   UNL     1      91.502  64.651  85.128  0.00  0.00    +0.000 A 
ATOM      6  C   UNL     1      90.548  63.746  85.529  0.00  0.00    +0.000 A 
ATOM      7  S   UNL     1      89.217  64.506  86.283  0.00  0.00    +0.000 S 
ENDBRANCH   2   3
BRANCH   1   8
ATOM      8  C   UNL     1      89.320  69.752  86.915  0.00  0.00    +0.000 C 
ATOM      9  O   UNL     1      89.197  70.075  88.091  0.00  0.00    +0.000 OA
BRANCH   8  13
ATOM     10  C   UNL     1      88.083  72.407  83.787  0.00  0.00    +0.000 A 
ATOM     11  C   UNL     1      87.117  71.812  84.597  0.00  0.00    +0.000 A 
ATOM     12  C   UNL     1      87.498  70.942  85.621  0.00  0.00    +0.000 A 
ATOM     13  C   UNL     1      88.855  70.672  85.842  0.00  0.00    +0.000 A 
ATOM     14  C   UNL     1      89.820  71.257  85.011  0.00  0.00    +0.000 A 
ATOM     15  C   UNL     1      89.434  72.128  83.990  0.00  0.00    +0.000 A 
ENDBRANCH   8  13
ENDBRANCH   1   8
BRANCH   2  16
ATOM     16  S   UNL     1      87.590  67.009  87.119  0.00  0.00    +0.000 S 
ATOM     17  H   UNL     1      86.867  68.141  86.914  0.00  0.00    +0.000 HD
ENDBRANCH   2  16
TORSDOF 4
ENDMDL
