MODEL 1
REMARK VINA RESULT:      -4.1      0.000      0.000
REMARK  Name = *****
REMARK  4 active torsions:
REMARK  status: ('A' for Active; 'I' for Inactive)
REMARK    1  A    between atoms: C_4  and  C_8
REMARK    2  A    between atoms: C_8  and  O_9
REMARK    3  A    between atoms: O_9  and  C_10
REMARK    4  A    between atoms: C_10  and  C_12
REMARK                            x       y       z     vdW  Elec       q    Type
REMARK                         _______ _______ _______ _____ _____    ______ ____
ROOT
ATOM      1  C   UNL     1     101.866 125.880  82.484  0.00  0.00    +0.000 C 
ENDROOT
BRANCH   1   5
ATOM      2  C   UNL     1      99.262 129.214  83.398  0.00  0.00    +0.000 A 
ATOM      3  C   UNL     1      98.774 128.078  82.760  0.00  0.00    +0.000 A 
ATOM      4  C   UNL     1      99.633 127.018  82.483  0.00  0.00    +0.000 A 
ATOM      5  C   UNL     1     100.990 127.055  82.822  0.00  0.00    +0.000 A 
ATOM      6  C   UNL     1     101.465 128.201  83.478  0.00  0.00    +0.000 A 
ATOM      7  C   UNL     1     100.608 129.273  83.760  0.00  0.00    +0.000 A 
ATOM      8 CL   UNL     1     103.111 128.347  83.985  0.00  0.00    +0.000 Cl
ATOM      9  F   UNL     1      99.124 125.931  81.886  0.00  0.00    +0.000 F 
ENDBRANCH   1   5
BRANCH   1  10
ATOM     10  O   UNL     1     102.241 125.899  81.100  0.00  0.00    +0.000 OA
BRANCH  10  11
ATOM     11  C   UNL     1     103.526 125.539  80.821  0.00  0.00    +0.000 C 
ATOM     12  O   UNL     1     103.920 124.382  80.763  0.00  0.00    +0.000 OA
BRANCH  11  13
ATOM     13  C   UNL     1     104.323 126.734  80.605  0.00  0.00    +0.000 A 
ATOM     14  C   UNL     1     103.914 128.039  80.386  0.00  0.00    +0.000 A 
ATOM     15  C   UNL     1     105.009 128.935  80.216  0.00  0.00    +0.000 A 
ATOM     16  C   UNL     1     106.220 128.289  80.307  0.00  0.00    +0.000 A 
ATOM     17  S   UNL     1     106.034 126.615  80.596  0.00  0.00    +0.000 S 
ENDBRANCH  11  13
ENDBRANCH  10  11
ENDBRANCH   1  10
TORSDOF 4
ENDMDL
