MODEL 1
REMARK VINA RESULT:      -3.7      0.000      0.000
REMARK  Name = *****
REMARK  4 active torsions:
REMARK  status: ('A' for Active; 'I' for Inactive)
REMARK    1  A    between atoms: C_4  and  C_7
REMARK    2  A    between atoms: C_7  and  O_9
REMARK    3  A    between atoms: O_9  and  C_10
REMARK    4  A    between atoms: C_10  and  C_11
REMARK                            x       y       z     vdW  Elec       q    Type
REMARK                         _______ _______ _______ _____ _____    ______ ____
ROOT
ATOM      1  C   UNL     1      89.455  67.313  86.170  0.00  0.00    +0.000 C 
ATOM      2  O   UNL     1      90.592  67.028  86.526  0.00  0.00    +0.000 OA
ENDROOT
BRANCH   1   6
ATOM      3  C   UNL     1      87.185  65.449  88.672  0.00  0.00    +0.000 C 
ATOM      4  C   UNL     1      88.530  64.885  88.243  0.00  0.00    +0.000 C 
ATOM      5  S   UNL     1      88.679  64.643  86.448  0.00  0.00    +0.000 S 
ATOM      6  C   UNL     1      88.338  66.323  85.842  0.00  0.00    +0.000 C 
ATOM      7  S   UNL     1      86.718  66.950  86.375  0.00  0.00    +0.000 S 
ATOM      8  C   UNL     1      86.916  66.862  88.177  0.00  0.00    +0.000 C 
ENDBRANCH   1   6
BRANCH   1   9
ATOM      9  O   UNL     1      88.992  68.593  86.056  0.00  0.00    +0.000 OA
BRANCH   9  10
ATOM     10  C   UNL     1      89.570  69.506  86.991  0.00  0.00    +0.000 C 
BRANCH  10  11
ATOM     11  C   UNL     1      88.445  70.232  87.681  0.00  0.00    +0.000 A 
ATOM     12  C   UNL     1      87.342  70.690  86.945  0.00  0.00    +0.000 A 
ATOM     13  C   UNL     1      86.307  71.380  87.578  0.00  0.00    +0.000 A 
ATOM     14  C   UNL     1      86.366  71.623  88.948  0.00  0.00    +0.000 A 
ATOM     15  C   UNL     1      87.462  71.183  89.687  0.00  0.00    +0.000 A 
ATOM     16  C   UNL     1      88.500  70.493  89.057  0.00  0.00    +0.000 A 
ENDBRANCH  10  11
ENDBRANCH   9  10
ENDBRANCH   1   9
TORSDOF 4
ENDMDL
