REMARK  Name = *****
REMARK  7 active torsions:
REMARK  status: ('A' for Active; 'I' for Inactive)
REMARK    1  A    between atoms: C_1  and  C_2
REMARK    2  A    between atoms: C_4  and  C_19
REMARK    3  A    between atoms: C_5  and  N_9
REMARK    4  A    between atoms: C_6  and  C_8
REMARK    5  A    between atoms: C_10  and  C_11
REMARK    6  A    between atoms: C_16  and  O_17
REMARK    7  A    between atoms: O_17  and  O_18
REMARK                            x       y       z     vdW  Elec       q    Type
REMARK                         _______ _______ _______ _____ _____    ______ ____
ROOT
ATOM      1  N   UNL     1      -1.934  -2.050  -0.531  0.00  0.00    +0.000 NA
ATOM      2  C   UNL     1      -2.168  -2.878   0.441  0.00  0.00    +0.000 C 
ENDROOT
BRANCH   1   7
ATOM      3  C   UNL     1       2.164   1.829   0.448  0.00  0.00    +0.000 C 
ATOM      4  C   UNL     1       1.094   0.805   0.210  0.00  0.00    +0.000 A 
ATOM      5  C   UNL     1       1.406  -0.421  -0.386  0.00  0.00    +0.000 A 
ATOM      6  C   UNL     1       0.408  -1.372  -0.646  0.00  0.00    +0.000 A 
ATOM      7  C   UNL     1      -0.927  -1.096  -0.292  0.00  0.00    +0.000 A 
ATOM      8  C   UNL     1      -1.256   0.155   0.266  0.00  0.00    +0.000 A 
ATOM      9  C   UNL     1      -0.240   1.091   0.518  0.00  0.00    +0.000 A 
ATOM     10  C   UNL     1      -2.679   0.492   0.614  0.00  0.00    +0.000 C 
ATOM     11  C   UNL     1       0.778  -2.683  -1.284  0.00  0.00    +0.000 C 
ENDBRANCH   1   7
BRANCH   2  12
ATOM     12  C   UNL     1      -3.197  -3.933   0.335  0.00  0.00    +0.000 A 
ATOM     13  C   UNL     1      -3.986  -4.017  -0.820  0.00  0.00    +0.000 A 
ATOM     14  C   UNL     1      -4.966  -5.004  -0.928  0.00  0.00    +0.000 A 
ATOM     15  C   UNL     1      -5.165  -5.904   0.116  0.00  0.00    +0.000 A 
ATOM     16  C   UNL     1      -4.380  -5.826   1.269  0.00  0.00    +0.000 A 
ATOM     17  C   UNL     1      -3.382  -4.851   1.378  0.00  0.00    +0.000 A 
BRANCH  17  18
ATOM     18  O   UNL     1      -2.602  -4.731   2.506  0.00  0.00    +0.000 OA
BRANCH  18  19
ATOM     19  O   UNL     1      -2.422  -6.057   3.081  0.00  0.00    +0.000 OA
ATOM     20  H   UNL     1      -1.874  -5.992   3.878  0.00  0.00    +0.000 HD
ENDBRANCH  18  19
ENDBRANCH  17  18
ENDBRANCH   2  12
TORSDOF 4
