MODEL 1
REMARK VINA RESULT:      -5.1      0.000      0.000
REMARK  Name = *****
REMARK  5 active torsions:
REMARK  status: ('A' for Active; 'I' for Inactive)
REMARK    1  A    between atoms: C_1  and  C_2
REMARK    2  A    between atoms: C_5  and  C_8
REMARK    3  A    between atoms: C_9  and  C_10
REMARK    4  A    between atoms: C_12  and  C_16
REMARK    5  A    between atoms: C_16  and  C_18
REMARK                            x       y       z     vdW  Elec       q    Type
REMARK                         _______ _______ _______ _____ _____    ______ ____
ROOT
ATOM      1  C   UNL     1     102.688 125.912  81.575  0.00  0.00    +0.000 C 
ATOM      2  C   UNL     1     101.964 126.013  82.701  0.00  0.00    +0.000 C 
ENDROOT
BRANCH   1   7
ATOM      3  C   UNL     1     106.765 121.864  80.853  0.00  0.00    +0.000 C 
ATOM      4  C   UNL     1     105.687 122.894  81.018  0.00  0.00    +0.000 A 
ATOM      5  C   UNL     1     105.360 123.755  79.966  0.00  0.00    +0.000 A 
ATOM      6  C   UNL     1     104.377 124.736  80.131  0.00  0.00    +0.000 A 
ATOM      7  C   UNL     1     103.703 124.873  81.351  0.00  0.00    +0.000 A 
ATOM      8  C   UNL     1     104.055 124.029  82.411  0.00  0.00    +0.000 A 
ATOM      9  C   UNL     1     105.038 123.048  82.247  0.00  0.00    +0.000 A 
ENDBRANCH   1   7
BRANCH   2  10
ATOM     10  C   UNL     1     100.962 127.063  82.933  0.00  0.00    +0.000 A 
ATOM     11  C   UNL     1     101.292 128.283  83.545  0.00  0.00    +0.000 A 
ATOM     12  C   UNL     1     100.320 129.276  83.724  0.00  0.00    +0.000 A 
ATOM     13  C   UNL     1      99.013 129.049  83.275  0.00  0.00    +0.000 A 
ATOM     14  C   UNL     1      98.682 127.847  82.650  0.00  0.00    +0.000 A 
ATOM     15  C   UNL     1      99.654 126.862  82.475  0.00  0.00    +0.000 A 
BRANCH  12  16
ATOM     16  C   UNL     1     100.629 130.584  84.376  0.00  0.00    +0.000 C 
ATOM     17  O   UNL     1     101.782 131.012  84.377  0.00  0.00    +0.000 OA
ATOM     18  C   UNL     1      99.512 131.360  85.024  0.00  0.00    +0.000 C 
ENDBRANCH  12  16
ENDBRANCH   2  10
TORSDOF 3
ENDMDL
