REMARK  Name = *****
REMARK  3 active torsions:
REMARK  status: ('A' for Active; 'I' for Inactive)
REMARK    1  A    between atoms: C_3  and  C_9
REMARK    2  A    between atoms: C_9  and  O_10
REMARK    3  A    between atoms: O_10  and  C_11
REMARK                            x       y       z     vdW  Elec       q    Type
REMARK                         _______ _______ _______ _____ _____    ______ ____
ROOT
ATOM      1  C   UNL     1       2.480  -2.310   0.095  0.00  0.00    +0.000 C 
ENDROOT
BRANCH   1   4
ATOM      2  C   UNL     1      -1.242  -1.388  -0.085  0.00  0.00    +0.000 A 
ATOM      3  C   UNL     1      -0.063  -2.138  -0.048  0.00  0.00    +0.000 A 
ATOM      4  C   UNL     1       1.191  -1.508   0.052  0.00  0.00    +0.000 A 
ATOM      5  C   UNL     1       1.223  -0.102   0.110  0.00  0.00    +0.000 A 
ATOM      6  C   UNL     1       0.044   0.649   0.073  0.00  0.00    +0.000 A 
ATOM      7  C   UNL     1      -1.182   0.001  -0.023  0.00  0.00    +0.000 A 
ATOM      8 CL   UNL     1      -2.635   0.920  -0.068  0.00  0.00    +0.000 Cl
ATOM      9 CL   UNL     1       2.714   0.765   0.229  0.00  0.00    +0.000 Cl
ENDBRANCH   1   4
BRANCH   1  10
ATOM     10  O   UNL     1       2.219  -3.718   0.050  0.00  0.00    +0.000 OA
BRANCH  10  11
ATOM     11  C   UNL     1       3.365  -4.481   0.110  0.00  0.00    +0.000 A 
ATOM     12  N   UNL     1       4.582  -3.900   0.184  0.00  0.00    +0.000 NA
ATOM     13  N   UNL     1       5.704  -4.684   0.245  0.00  0.00    +0.000 NA
ATOM     14  C   UNL     1       5.574  -6.026   0.229  0.00  0.00    +0.000 A 
ATOM     15  C   UNL     1       4.345  -6.650   0.152  0.00  0.00    +0.000 A 
ATOM     16  C   UNL     1       3.206  -5.855   0.090  0.00  0.00    +0.000 A 
ATOM     17  F   UNL     1       6.683  -6.775   0.290  0.00  0.00    +0.000 F 
ENDBRANCH  10  11
ENDBRANCH   1  10
TORSDOF 3
