MODEL 1
REMARK VINA RESULT:      -4.7      0.000      0.000
REMARK  Name = *****
REMARK  4 active torsions:
REMARK  status: ('A' for Active; 'I' for Inactive)
REMARK    1  A    between atoms: C_1  and  C_2
REMARK    2  A    between atoms: C_2  and  C_5
REMARK    3  A    between atoms: C_10  and  C_11
REMARK    4  A    between atoms: C_12  and  C_13
REMARK                            x       y       z     vdW  Elec       q    Type
REMARK                         _______ _______ _______ _____ _____    ______ ____
ROOT
ATOM      1  C   UNL     1     101.238 127.975  83.773  0.00  0.00    +0.000 A 
ATOM      2  C   UNL     1     100.165 128.680  84.344  0.00  0.00    +0.000 A 
ATOM      3  C   UNL     1      98.860 128.476  83.893  0.00  0.00    +0.000 A 
ATOM      4  C   UNL     1      98.612 127.569  82.866  0.00  0.00    +0.000 A 
ATOM      5  C   UNL     1      99.667 126.862  82.290  0.00  0.00    +0.000 A 
ATOM      6  C   UNL     1     100.979 127.058  82.737  0.00  0.00    +0.000 A 
ENDROOT
BRANCH   1   8
ATOM      7  C   UNL     1     103.113 127.269  85.306  0.00  0.00    +0.000 C 
ATOM      8  C   UNL     1     102.597 128.230  84.280  0.00  0.00    +0.000 C 
ATOM      9  C   UNL     1     103.278 129.249  83.840  0.00  0.00    +0.000 C 
ATOM     10  O   UNL     1     103.912 130.159  83.447  0.00  0.00    +0.000 OA
ENDBRANCH   1   8
BRANCH   6  11
ATOM     11  C   UNL     1     102.030 126.304  82.116  0.00  0.00    +0.000 C 
ATOM     12  C   UNL     1     102.906 125.676  81.586  0.00  0.00    +0.000 C 
BRANCH  12  13
ATOM     13  C   UNL     1     103.944 124.930  80.942  0.00  0.00    +0.000 A 
ATOM     14  C   UNL     1     104.654 125.496  79.882  0.00  0.00    +0.000 A 
ATOM     15  C   UNL     1     105.662 124.766  79.247  0.00  0.00    +0.000 A 
ATOM     16  C   UNL     1     105.960 123.472  79.675  0.00  0.00    +0.000 A 
ATOM     17  C   UNL     1     105.251 122.907  80.734  0.00  0.00    +0.000 A 
ATOM     18  C   UNL     1     104.242 123.635  81.369  0.00  0.00    +0.000 A 
ENDBRANCH  12  13
ENDBRANCH   6  11
TORSDOF 3
ENDMDL
