MODEL 1
REMARK VINA RESULT:      -4.5      0.000      0.000
REMARK  Name = *****
REMARK  3 active torsions:
REMARK  status: ('A' for Active; 'I' for Inactive)
REMARK    1  A    between atoms: C_4  and  C_7
REMARK    2  A    between atoms: C_7  and  C_9
REMARK    3  A    between atoms: C_10  and  C_11
REMARK                            x       y       z     vdW  Elec       q    Type
REMARK                         _______ _______ _______ _____ _____    ______ ____
ROOT
ATOM      1  C   UNL     1      99.807 126.447  83.904  0.00  0.00    +0.000 C 
ATOM      2  C   UNL     1     101.126 126.219  83.803  0.00  0.00    +0.000 C 
ENDROOT
BRANCH   2   3
ATOM      3  C   UNL     1     102.085 126.963  82.987  0.00  0.00    +0.000 A 
ATOM      4  C   UNL     1     102.758 128.073  83.511  0.00  0.00    +0.000 A 
ATOM      5  C   UNL     1     103.685 128.767  82.730  0.00  0.00    +0.000 A 
ATOM      6  C   UNL     1     103.942 128.349  81.426  0.00  0.00    +0.000 A 
ATOM      7  C   UNL     1     103.279 127.243  80.896  0.00  0.00    +0.000 A 
ATOM      8  C   UNL     1     102.351 126.550  81.676  0.00  0.00    +0.000 A 
ATOM      9 CL   UNL     1     105.086 129.202  80.465  0.00  0.00    +0.000 Cl
ENDBRANCH   2   3
BRANCH   1  10
ATOM     10  C   UNL     1      99.054 127.542  83.223  0.00  0.00    +0.000 C 
ATOM     11  O   UNL     1      98.539 127.405  82.120  0.00  0.00    +0.000 OA
BRANCH  10  15
ATOM     12  C   UNL     1      98.904 131.312  85.261  0.00  0.00    +0.000 A 
ATOM     13  C   UNL     1      99.495 131.243  83.999  0.00  0.00    +0.000 A 
ATOM     14  C   UNL     1      99.556 130.024  83.319  0.00  0.00    +0.000 A 
ATOM     15  C   UNL     1      99.013 128.869  83.898  0.00  0.00    +0.000 A 
ATOM     16  C   UNL     1      98.438 128.943  85.173  0.00  0.00    +0.000 A 
ATOM     17  C   UNL     1      98.379 130.163  85.850  0.00  0.00    +0.000 A 
ENDBRANCH  10  15
ENDBRANCH   1  10
TORSDOF 3
ENDMDL
