MODEL 1
REMARK VINA RESULT:      -4.3      0.000      0.000
REMARK  Name = *****
REMARK  6 active torsions:
REMARK  status: ('A' for Active; 'I' for Inactive)
REMARK    1  A    between atoms: C_1  and  C_2
REMARK    2  A    between atoms: C_4  and  C_18
REMARK    3  A    between atoms: C_7  and  C_8
REMARK    4  A    between atoms: C_8  and  O_10
REMARK    5  A    between atoms: O_10  and  C_11
REMARK    6  A    between atoms: C_11  and  C_12
REMARK                            x       y       z     vdW  Elec       q    Type
REMARK                         _______ _______ _______ _____ _____    ______ ____
ROOT
ATOM      1  C   UNL     1      89.612  67.763  85.797  0.00  0.00    +0.000 C 
ATOM      2  O   UNL     1      90.518  67.484  86.569  0.00  0.00    +0.000 OA
ENDROOT
BRANCH   1   9
ATOM      3  C   UNL     1      89.987  65.146  84.537  0.00  0.00    +0.000 C 
ATOM      4  C   UNL     1      88.720  65.399  85.359  0.00  0.00    +0.000 C 
ATOM      5  C   UNL     1      88.774  64.656  86.671  0.00  0.00    +0.000 C 
ATOM      6  C   UNL     1      88.301  65.145  87.831  0.00  0.00    +0.000 C 
ATOM      7  C   UNL     1      87.640  66.495  87.930  0.00  0.00    +0.000 C 
ATOM      8  C   UNL     1      87.307  67.128  86.575  0.00  0.00    +0.000 C 
ATOM      9  C   UNL     1      88.389  66.898  85.513  0.00  0.00    +0.000 C 
ATOM     10  C   UNL     1      88.407  64.377  89.117  0.00  0.00    +0.000 C 
ENDBRANCH   1   9
BRANCH   1  11
ATOM     11  O   UNL     1      89.544  68.903  85.053  0.00  0.00    +0.000 OA
BRANCH  11  12
ATOM     12  C   UNL     1      89.844  70.120  85.746  0.00  0.00    +0.000 C 
BRANCH  12  13
ATOM     13  C   UNL     1      88.662  70.510  86.595  0.00  0.00    +0.000 A 
ATOM     14  C   UNL     1      87.468  70.941  85.999  0.00  0.00    +0.000 A 
ATOM     15  C   UNL     1      86.383  71.328  86.788  0.00  0.00    +0.000 A 
ATOM     16  C   UNL     1      86.484  71.294  88.178  0.00  0.00    +0.000 A 
ATOM     17  C   UNL     1      87.670  70.879  88.780  0.00  0.00    +0.000 A 
ATOM     18  C   UNL     1      88.756  70.492  87.994  0.00  0.00    +0.000 A 
ENDBRANCH  12  13
ENDBRANCH  11  12
ENDBRANCH   1  11
TORSDOF 4
ENDMDL
