REMARK  Name = *****
REMARK  3 active torsions:
REMARK  status: ('A' for Active; 'I' for Inactive)
REMARK    1  A    between atoms: C_4  and  C_7
REMARK    2  A    between atoms: C_7  and  C_8
REMARK    3  A    between atoms: C_8  and  C_9
REMARK                            x       y       z     vdW  Elec       q    Type
REMARK                         _______ _______ _______ _____ _____    ______ ____
ROOT
ATOM      1  C   UNL     1      -3.651  -0.884  -0.466  0.00  0.00    +0.000 C 
ENDROOT
BRANCH   1   2
ATOM      2  C   UNL     1      -5.108  -0.517  -0.664  0.00  0.00    +0.000 A 
ATOM      3  C   UNL     1      -5.534  -0.227  -1.975  0.00  0.00    +0.000 A 
ATOM      4  C   UNL     1      -6.855   0.136  -2.243  0.00  0.00    +0.000 A 
ATOM      5  C   UNL     1      -7.775   0.223  -1.205  0.00  0.00    +0.000 A 
ATOM      6  C   UNL     1      -7.374  -0.053   0.102  0.00  0.00    +0.000 A 
ATOM      7  C   UNL     1      -6.049  -0.419   0.376  0.00  0.00    +0.000 A 
ATOM      8  I   UNL     1      -5.589  -0.804   2.390  0.00  0.00    +0.000 I 
ENDBRANCH   1   2
BRANCH   1   9
ATOM      9  C   UNL     1      -2.785   0.345  -0.154  0.00  0.00    +0.000 C 
BRANCH   9  13
ATOM     10  C   UNL     1       1.499  -0.185   0.163  0.00  0.00    +0.000 A 
ATOM     11  C   UNL     1       0.667  -1.297   0.265  0.00  0.00    +0.000 A 
ATOM     12  C   UNL     1      -0.720  -1.150   0.161  0.00  0.00    +0.000 A 
ATOM     13  C   UNL     1      -1.292   0.110  -0.059  0.00  0.00    +0.000 A 
ATOM     14  C   UNL     1      -0.438   1.222  -0.147  0.00  0.00    +0.000 A 
ATOM     15  C   UNL     1       0.947   1.076  -0.041  0.00  0.00    +0.000 A 
ENDBRANCH   9  13
ENDBRANCH   1   9
TORSDOF 3
