MODEL 1
REMARK VINA RESULT:      -4.7      0.000      0.000
REMARK  Name = *****
REMARK  5 active torsions:
REMARK  status: ('A' for Active; 'I' for Inactive)
REMARK    1  A    between atoms: C_1  and  C_2
REMARK    2  A    between atoms: C_1  and  O_9
REMARK    3  A    between atoms: C_5  and  C_8
REMARK    4  A    between atoms: O_9  and  C_10
REMARK    5  A    between atoms: C_10  and  C_12
REMARK                            x       y       z     vdW  Elec       q    Type
REMARK                         _______ _______ _______ _____ _____    ______ ____
ROOT
ATOM      1  O   UNL     1     100.442 126.709  83.308  0.00  0.00    +0.000 OA
ENDROOT
BRANCH   1   2
ATOM      2  C   UNL     1      99.302 127.343  82.943  0.00  0.00    +0.000 C 
ATOM      3  O   UNL     1      98.538 126.983  82.061  0.00  0.00    +0.000 OA
BRANCH   2   4
ATOM      4  C   UNL     1      99.090 128.566  83.764  0.00  0.00    +0.000 A 
ATOM      5  C   UNL     1      98.404 128.433  84.981  0.00  0.00    +0.000 A 
ATOM      6  C   UNL     1      98.180 129.549  85.789  0.00  0.00    +0.000 A 
ATOM      7  C   UNL     1      98.638 130.803  85.388  0.00  0.00    +0.000 A 
ATOM      8  C   UNL     1      99.322 130.943  84.180  0.00  0.00    +0.000 A 
ATOM      9  C   UNL     1      99.549 129.829  83.368  0.00  0.00    +0.000 A 
ENDBRANCH   2   4
ENDBRANCH   1   2
BRANCH   1  10
ATOM     10  C   UNL     1     101.222 126.258  82.196  0.00  0.00    +0.000 C 
BRANCH  10  11
ATOM     11  C   UNL     1     102.415 127.166  82.030  0.00  0.00    +0.000 A 
ATOM     12  C   UNL     1     103.136 127.186  80.829  0.00  0.00    +0.000 A 
ATOM     13  C   UNL     1     104.217 128.056  80.662  0.00  0.00    +0.000 A 
ATOM     14  C   UNL     1     104.598 128.920  81.695  0.00  0.00    +0.000 A 
ATOM     15  C   UNL     1     103.881 128.901  82.896  0.00  0.00    +0.000 A 
ATOM     16  C   UNL     1     102.799 128.032  83.062  0.00  0.00    +0.000 A 
ATOM     17  C   UNL     1     105.743 129.872  81.520  0.00  0.00    +0.000 C 
ENDBRANCH  10  11
ENDBRANCH   1  10
TORSDOF 4
ENDMDL
