MODEL 1
REMARK VINA RESULT:      -4.7      0.000      0.000
REMARK  Name = *****
REMARK  3 active torsions:
REMARK  status: ('A' for Active; 'I' for Inactive)
REMARK    1  A    between atoms: C_4  and  C_8
REMARK    2  A    between atoms: C_8  and  O_10
REMARK    3  A    between atoms: O_10  and  C_11
REMARK                            x       y       z     vdW  Elec       q    Type
REMARK                         _______ _______ _______ _____ _____    ______ ____
ROOT
ATOM      1  C   UNL     1      88.942  68.483  86.279  0.00  0.00    +0.000 C 
ATOM      2  O   UNL     1      88.410  68.462  85.181  0.00  0.00    +0.000 OA
ENDROOT
BRANCH   1   6
ATOM      3  C   UNL     1      87.338  70.463  89.695  0.00  0.00    +0.000 A 
ATOM      4  C   UNL     1      88.416  71.014  89.000  0.00  0.00    +0.000 A 
ATOM      5  C   UNL     1      88.930  70.360  87.881  0.00  0.00    +0.000 A 
ATOM      6  C   UNL     1      88.373  69.163  87.445  0.00  0.00    +0.000 A 
ATOM      7  C   UNL     1      87.304  68.613  88.145  0.00  0.00    +0.000 A 
ATOM      8  C   UNL     1      86.781  69.258  89.266  0.00  0.00    +0.000 A 
ATOM      9  F   UNL     1      86.766  67.444  87.770  0.00  0.00    +0.000 F 
ATOM     10  F   UNL     1      89.950  70.927  87.222  0.00  0.00    +0.000 F 
ENDBRANCH   1   6
BRANCH   1  11
ATOM     11  O   UNL     1      90.109  67.860  86.675  0.00  0.00    +0.000 OA
BRANCH  11  12
ATOM     12  C   UNL     1      90.156  66.522  86.283  0.00  0.00    +0.000 A 
ATOM     13  C   UNL     1      89.201  65.636  86.778  0.00  0.00    +0.000 A 
ATOM     14  C   UNL     1      89.286  64.296  86.415  0.00  0.00    +0.000 A 
ATOM     15  C   UNL     1      90.307  63.836  85.590  0.00  0.00    +0.000 A 
ATOM     16  C   UNL     1      91.257  64.738  85.127  0.00  0.00    +0.000 A 
ATOM     17  C   UNL     1      91.200  66.084  85.472  0.00  0.00    +0.000 A 
ATOM     18  F   UNL     1      92.250  64.302  84.342  0.00  0.00    +0.000 F 
ATOM     19  F   UNL     1      88.374  63.431  86.878  0.00  0.00    +0.000 F 
ENDBRANCH  11  12
ENDBRANCH   1  11
TORSDOF 3
ENDMDL
