MODEL 1
REMARK VINA RESULT:      -4.4      0.000      0.000
REMARK  Name = *****
REMARK  3 active torsions:
REMARK  status: ('A' for Active; 'I' for Inactive)
REMARK    1  A    between atoms: C_4  and  C_7
REMARK    2  A    between atoms: C_7  and  C_8
REMARK    3  A    between atoms: C_8  and  C_9
REMARK                            x       y       z     vdW  Elec       q    Type
REMARK                         _______ _______ _______ _____ _____    ______ ____
ROOT
ATOM      1  C   UNL     1     102.592 127.618  82.748  0.00  0.00    +0.000 C 
ENDROOT
BRANCH   1   5
ATOM      2  C   UNL     1      98.315 127.884  83.698  0.00  0.00    +0.000 C 
ATOM      3  C   UNL     1      98.720 127.135  82.435  0.00  0.00    +0.000 C 
ATOM      4  C   UNL     1     100.192 126.717  82.488  0.00  0.00    +0.000 C 
ATOM      5  C   UNL     1     101.110 127.805  82.996  0.00  0.00    +0.000 C 
ATOM      6  C   UNL     1     100.631 128.901  83.613  0.00  0.00    +0.000 C 
ATOM      7  C   UNL     1      99.174 129.133  83.896  0.00  0.00    +0.000 C 
ENDBRANCH   1   5
BRANCH   1   8
ATOM      8  C   UNL     1     102.887 127.008  81.373  0.00  0.00    +0.000 C 
BRANCH   8   9
ATOM      9  C   UNL     1     103.533 125.650  81.493  0.00  0.00    +0.000 A 
ATOM     10  C   UNL     1     104.031 124.997  80.356  0.00  0.00    +0.000 A 
ATOM     11  C   UNL     1     104.612 123.733  80.465  0.00  0.00    +0.000 A 
ATOM     12  C   UNL     1     104.696 123.108  81.708  0.00  0.00    +0.000 A 
ATOM     13  C   UNL     1     104.199 123.744  82.842  0.00  0.00    +0.000 A 
ATOM     14  C   UNL     1     103.617 125.009  82.736  0.00  0.00    +0.000 A 
ENDBRANCH   8   9
ENDBRANCH   1   8
TORSDOF 3
ENDMDL
