MODEL 1
REMARK VINA RESULT:      -4.0      0.000      0.000
REMARK  Name = *****
REMARK  3 active torsions:
REMARK  status: ('A' for Active; 'I' for Inactive)
REMARK    1  A    between atoms: C_4  and  C_6
REMARK    2  A    between atoms: C_6  and  S_7
REMARK    3  A    between atoms: S_7  and  C_8
REMARK                            x       y       z     vdW  Elec       q    Type
REMARK                         _______ _______ _______ _____ _____    ______ ____
ROOT
ATOM      1  S   UNL     1     103.014 127.192  82.942  0.00  0.00    +0.000 S 
ENDROOT
BRANCH   1   2
ATOM      2  C   UNL     1     101.270 127.563  82.951  0.00  0.00    +0.000 A 
ATOM      3  C   UNL     1     100.369 126.630  82.430  0.00  0.00    +0.000 A 
ATOM      4  C   UNL     1      98.997 126.897  82.435  0.00  0.00    +0.000 A 
ATOM      5  C   UNL     1      98.522 128.094  82.969  0.00  0.00    +0.000 A 
ATOM      6  C   UNL     1      99.414 129.021  83.502  0.00  0.00    +0.000 A 
ATOM      7  C   UNL     1     100.785 128.755  83.498  0.00  0.00    +0.000 A 
ENDBRANCH   1   2
BRANCH   1   8
ATOM      8  C   UNL     1     103.215 126.723  81.188  0.00  0.00    +0.000 C 
BRANCH   8  12
ATOM      9  C   UNL     1     104.899 123.445  80.334  0.00  0.00    +0.000 C 
ATOM     10  C   UNL     1     104.556 123.216  81.805  0.00  0.00    +0.000 C 
ATOM     11  C   UNL     1     103.921 124.512  82.304  0.00  0.00    +0.000 C 
ATOM     12  C   UNL     1     103.438 125.219  81.036  0.00  0.00    +0.000 C 
ATOM     13  C   UNL     1     104.565 124.904  80.052  0.00  0.00    +0.000 C 
ENDBRANCH   8  12
ENDBRANCH   1   8
TORSDOF 3
ENDMDL
