MODEL 1
REMARK VINA RESULT:      -4.9      0.000      0.000
REMARK  Name = *****
REMARK  4 active torsions:
REMARK  status: ('A' for Active; 'I' for Inactive)
REMARK    1  A    between atoms: C_1  and  C_2
REMARK    2  A    between atoms: C_7  and  C_8
REMARK    3  A    between atoms: C_9  and  C_10
REMARK    4  A    between atoms: C_13  and  C_16
REMARK                            x       y       z     vdW  Elec       q    Type
REMARK                         _______ _______ _______ _____ _____    ______ ____
ROOT
ATOM      1  C   UNL     1     101.969 126.165  82.380  0.00  0.00    +0.000 C 
ATOM      2  C   UNL     1     102.838 125.378  82.118  0.00  0.00    +0.000 C 
ENDROOT
BRANCH   1   9
ATOM      3  C   UNL     1     102.627 128.722  83.684  0.00  0.00    +0.000 C 
ATOM      4  C   UNL     1     101.221 128.333  83.318  0.00  0.00    +0.000 A 
ATOM      5  C   UNL     1     100.164 129.212  83.603  0.00  0.00    +0.000 A 
ATOM      6  C   UNL     1      98.849 128.879  83.274  0.00  0.00    +0.000 A 
ATOM      7  C   UNL     1      98.573 127.662  82.657  0.00  0.00    +0.000 A 
ATOM      8  C   UNL     1      99.612 126.777  82.368  0.00  0.00    +0.000 A 
ATOM      9  C   UNL     1     100.933 127.105  82.695  0.00  0.00    +0.000 A 
ENDBRANCH   1   9
BRANCH   2  10
ATOM     10  C   UNL     1     103.874 124.445  81.807  0.00  0.00    +0.000 A 
ATOM     11  C   UNL     1     104.422 123.645  82.813  0.00  0.00    +0.000 A 
ATOM     12  C   UNL     1     105.437 122.732  82.509  0.00  0.00    +0.000 A 
ATOM     13  C   UNL     1     105.908 122.619  81.195  0.00  0.00    +0.000 A 
ATOM     14  C   UNL     1     105.358 123.421  80.189  0.00  0.00    +0.000 A 
ATOM     15  C   UNL     1     104.342 124.332  80.495  0.00  0.00    +0.000 A 
BRANCH  13  16
ATOM     16  C   UNL     1     106.949 121.684  80.883  0.00  0.00    +0.000 C 
ATOM     17  N   UNL     1     107.792 120.928  80.629  0.00  0.00    +0.000 NA
ENDBRANCH  13  16
ENDBRANCH   2  10
TORSDOF 3
ENDMDL
