MODEL 1
REMARK VINA RESULT:      -4.1      0.000      0.000
REMARK  Name = *****
REMARK  5 active torsions:
REMARK  status: ('A' for Active; 'I' for Inactive)
REMARK    1  A    between atoms: C_1  and  O_2
REMARK    2  A    between atoms: O_2  and  C_3
REMARK    3  A    between atoms: C_6  and  C_9
REMARK    4  A    between atoms: C_9  and  S_11
REMARK    5  A    between atoms: S_11  and  C_12
REMARK                            x       y       z     vdW  Elec       q    Type
REMARK                         _______ _______ _______ _____ _____    ______ ____
ROOT
ATOM      1  C   UNL     1     103.877 127.630  82.006  0.00  0.00    +0.000 C 
ATOM      2  O   UNL     1     104.226 128.598  81.341  0.00  0.00    +0.000 OA
ENDROOT
BRANCH   1   6
ATOM      3  C   UNL     1     104.638 123.559  80.796  0.00  0.00    +0.000 A 
ATOM      4  C   UNL     1     104.207 123.861  82.086  0.00  0.00    +0.000 A 
ATOM      5  C   UNL     1     103.957 125.191  82.450  0.00  0.00    +0.000 A 
ATOM      6  C   UNL     1     104.129 126.236  81.530  0.00  0.00    +0.000 A 
ATOM      7  C   UNL     1     104.555 125.923  80.233  0.00  0.00    +0.000 A 
ATOM      8  C   UNL     1     104.805 124.594  79.875  0.00  0.00    +0.000 A 
BRANCH   3  10
ATOM      9  C   UNL     1     104.579 121.207  81.134  0.00  0.00    +0.000 C 
ATOM     10  O   UNL     1     104.926 122.314  80.312  0.00  0.00    +0.000 OA
ENDBRANCH   3  10
ENDBRANCH   1   6
BRANCH   1  11
ATOM     11  S   UNL     1     103.037 127.857  83.534  0.00  0.00    +0.000 S 
BRANCH  11  12
ATOM     12  C   UNL     1     101.332 128.063  82.904  0.00  0.00    +0.000 C 
ATOM     13  C   UNL     1     100.585 129.023  83.839  0.00  0.00    +0.000 C 
ATOM     14  C   UNL     1      99.119 129.178  83.437  0.00  0.00    +0.000 C 
ATOM     15  C   UNL     1      98.414 127.827  83.355  0.00  0.00    +0.000 C 
ATOM     16  C   UNL     1      99.148 126.874  82.420  0.00  0.00    +0.000 C 
ATOM     17  C   UNL     1     100.612 126.708  82.822  0.00  0.00    +0.000 C 
ENDBRANCH  11  12
ENDBRANCH   1  11
TORSDOF 4
ENDMDL
