MODEL 1
REMARK VINA RESULT:      -5.0      0.000      0.000
REMARK  Name = *****
REMARK  4 active torsions:
REMARK  status: ('A' for Active; 'I' for Inactive)
REMARK    1  A    between atoms: C_4  and  C_7
REMARK    2  A    between atoms: C_7  and  C_8
REMARK    3  A    between atoms: C_8  and  C_9
REMARK    4  A    between atoms: C_9  and  C_11
REMARK                            x       y       z     vdW  Elec       q    Type
REMARK                         _______ _______ _______ _____ _____    ______ ____
ROOT
ATOM      1  C   UNL     1     100.638 126.548  83.100  0.00  0.00    +0.000 C 
ENDROOT
BRANCH   1   2
ATOM      2  C   UNL     1     101.706 126.956  82.090  0.00  0.00    +0.000 C 
ATOM      3  F   UNL     1     102.289 128.104  82.559  0.00  0.00    +0.000 F 
BRANCH   2   7
ATOM      4  C   UNL     1     104.578 123.770  81.572  0.00  0.00    +0.000 A 
ATOM      5  C   UNL     1     104.183 124.537  80.478  0.00  0.00    +0.000 A 
ATOM      6  C   UNL     1     103.261 125.571  80.645  0.00  0.00    +0.000 A 
ATOM      7  C   UNL     1     102.722 125.846  81.911  0.00  0.00    +0.000 A 
ATOM      8  C   UNL     1     103.130 125.069  83.005  0.00  0.00    +0.000 A 
ATOM      9  C   UNL     1     104.053 124.036  82.836  0.00  0.00    +0.000 A 
ENDBRANCH   2   7
ENDBRANCH   1   2
BRANCH   1  10
ATOM     10  C   UNL     1      99.377 127.355  82.888  0.00  0.00    +0.000 C 
ATOM     11  O   UNL     1      98.542 127.054  82.036  0.00  0.00    +0.000 OA
BRANCH  10  12
ATOM     12  C   UNL     1      99.108 128.518  83.784  0.00  0.00    +0.000 A 
ATOM     13  C   UNL     1      99.541 129.787  83.374  0.00  0.00    +0.000 A 
ATOM     14  C   UNL     1      99.308 130.904  84.179  0.00  0.00    +0.000 A 
ATOM     15  C   UNL     1      98.634 130.760  85.391  0.00  0.00    +0.000 A 
ATOM     16  C   UNL     1      98.192 129.503  85.799  0.00  0.00    +0.000 A 
ATOM     17  C   UNL     1      98.425 128.382  84.998  0.00  0.00    +0.000 A 
ENDBRANCH  10  12
ENDBRANCH   1  10
TORSDOF 4
ENDMDL
