MODEL 1
REMARK VINA RESULT:      -4.1      0.000      0.000
REMARK  Name = *****
REMARK  4 active torsions:
REMARK  status: ('A' for Active; 'I' for Inactive)
REMARK    1  A    between atoms: C_4  and  C_7
REMARK    2  A    between atoms: C_7  and  O_8
REMARK    3  A    between atoms: O_8  and  C_9
REMARK    4  A    between atoms: C_9  and  C_11
REMARK                            x       y       z     vdW  Elec       q    Type
REMARK                         _______ _______ _______ _____ _____    ______ ____
ROOT
ATOM      1  O   UNL     1     100.326 126.675  83.314  0.00  0.00    +0.000 OA
ENDROOT
BRANCH   1   2
ATOM      2  C   UNL     1      99.217 127.367  82.923  0.00  0.00    +0.000 C 
ATOM      3  O   UNL     1      98.437 126.989  82.055  0.00  0.00    +0.000 OA
BRANCH   2   4
ATOM      4  C   UNL     1      99.115 128.592  83.697  0.00  0.00    +0.000 A 
ATOM      5  C   UNL     1      99.453 129.888  83.348  0.00  0.00    +0.000 A 
ATOM      6  C   UNL     1      99.200 130.823  84.393  0.00  0.00    +0.000 A 
ATOM      7  C   UNL     1      98.675 130.216  85.509  0.00  0.00    +0.000 A 
ATOM      8  S   UNL     1      98.490 128.530  85.294  0.00  0.00    +0.000 S 
ENDBRANCH   2   4
ENDBRANCH   1   2
BRANCH   1   9
ATOM      9  C   UNL     1     101.193 126.245  82.260  0.00  0.00    +0.000 C 
BRANCH   9  13
ATOM     10  C   UNL     1     104.540 128.942  81.946  0.00  0.00    +0.000 A 
ATOM     11  C   UNL     1     104.200 128.126  80.869  0.00  0.00    +0.000 A 
ATOM     12  C   UNL     1     103.113 127.256  80.967  0.00  0.00    +0.000 A 
ATOM     13  C   UNL     1     102.352 127.201  82.143  0.00  0.00    +0.000 A 
ATOM     14  C   UNL     1     102.711 128.017  83.224  0.00  0.00    +0.000 A 
ATOM     15  C   UNL     1     103.797 128.886  83.124  0.00  0.00    +0.000 A 
ENDBRANCH   9  13
ENDBRANCH   1   9
TORSDOF 4
ENDMDL
