MODEL 1
REMARK VINA RESULT:      -4.7      0.000      0.000
REMARK  Name = *****
REMARK  4 active torsions:
REMARK  status: ('A' for Active; 'I' for Inactive)
REMARK    1  A    between atoms: C_1  and  C_2
REMARK    2  A    between atoms: C_5  and  C_8
REMARK    3  A    between atoms: C_8  and  O_9
REMARK    4  A    between atoms: O_9  and  C_10
REMARK                            x       y       z     vdW  Elec       q    Type
REMARK                         _______ _______ _______ _____ _____    ______ ____
ROOT
ATOM      1  O   UNL     1     102.571 126.933  83.091  0.00  0.00    +0.000 OA
ENDROOT
BRANCH   1   2
ATOM      2  C   UNL     1     101.307 127.461  83.028  0.00  0.00    +0.000 A 
ATOM      3  C   UNL     1     101.016 128.730  83.550  0.00  0.00    +0.000 A 
ATOM      4  C   UNL     1      99.697 129.199  83.494  0.00  0.00    +0.000 A 
ATOM      5  C   UNL     1      98.687 128.400  82.943  0.00  0.00    +0.000 A 
ATOM      6  C   UNL     1      98.984 127.128  82.452  0.00  0.00    +0.000 A 
ATOM      7  C   UNL     1     100.293 126.655  82.502  0.00  0.00    +0.000 A 
ATOM      8 CL   UNL     1      99.239 130.757  84.092  0.00  0.00    +0.000 Cl
ATOM      9 CL   UNL     1     102.285 129.680  84.249  0.00  0.00    +0.000 Cl
ENDBRANCH   1   2
BRANCH   1  10
ATOM     10  C   UNL     1     103.097 126.730  81.772  0.00  0.00    +0.000 C 
BRANCH  10  15
ATOM     11  C   UNL     1     105.353 121.363  81.477  0.00  0.00    +0.000 C 
ATOM     12  C   UNL     1     104.798 122.754  81.556  0.00  0.00    +0.000 A 
ATOM     13  C   UNL     1     104.681 123.538  80.403  0.00  0.00    +0.000 A 
ATOM     14  C   UNL     1     104.131 124.821  80.470  0.00  0.00    +0.000 A 
ATOM     15  C   UNL     1     103.676 125.338  81.689  0.00  0.00    +0.000 A 
ATOM     16  C   UNL     1     103.785 124.546  82.841  0.00  0.00    +0.000 A 
ATOM     17  C   UNL     1     104.334 123.264  82.774  0.00  0.00    +0.000 A 
ENDBRANCH  10  15
ENDBRANCH   1  10
TORSDOF 3
ENDMDL
