MODEL 1
REMARK VINA RESULT:      -4.2      0.000      0.000
REMARK  Name = *****
REMARK  4 active torsions:
REMARK  status: ('A' for Active; 'I' for Inactive)
REMARK    1  A    between atoms: C_4  and  C_7
REMARK    2  A    between atoms: C_7  and  O_8
REMARK    3  A    between atoms: O_8  and  C_9
REMARK    4  A    between atoms: C_9  and  C_11
REMARK                            x       y       z     vdW  Elec       q    Type
REMARK                         _______ _______ _______ _____ _____    ______ ____
ROOT
ATOM      1  C   UNL     1     101.515 126.370  82.851  0.00  0.00    +0.000 C 
ATOM      2  O   UNL     1     101.668 125.587  83.773  0.00  0.00    +0.000 OA
ENDROOT
BRANCH   1   3
ATOM      3  C   UNL     1     102.606 127.081  82.183  0.00  0.00    +0.000 A 
ATOM      4  C   UNL     1     103.193 126.572  81.028  0.00  0.00    +0.000 A 
ATOM      5  C   UNL     1     104.244 127.249  80.409  0.00  0.00    +0.000 A 
ATOM      6  C   UNL     1     104.719 128.443  80.952  0.00  0.00    +0.000 A 
ATOM      7  C   UNL     1     104.139 128.952  82.116  0.00  0.00    +0.000 A 
ATOM      8  C   UNL     1     103.088 128.267  82.726  0.00  0.00    +0.000 A 
ATOM      9  F   UNL     1     102.540 128.793  83.830  0.00  0.00    +0.000 F 
ATOM     10  F   UNL     1     102.781 125.412  80.497  0.00  0.00    +0.000 F 
ENDBRANCH   1   3
BRANCH   1  11
ATOM     11  O   UNL     1     100.341 126.761  82.307  0.00  0.00    +0.000 OA
BRANCH  11  12
ATOM     12  C   UNL     1      99.273 126.868  83.254  0.00  0.00    +0.000 C 
BRANCH  12  16
ATOM     13  C   UNL     1      99.470 130.769  85.089  0.00  0.00    +0.000 A 
ATOM     14  C   UNL     1      99.486 129.625  85.884  0.00  0.00    +0.000 A 
ATOM     15  C   UNL     1      99.415 128.362  85.292  0.00  0.00    +0.000 A 
ATOM     16  C   UNL     1      99.318 128.231  83.899  0.00  0.00    +0.000 A 
ATOM     17  C   UNL     1      99.313 129.391  83.110  0.00  0.00    +0.000 A 
ATOM     18  C   UNL     1      99.385 130.652  83.703  0.00  0.00    +0.000 A 
ENDBRANCH  12  16
ENDBRANCH  11  12
ENDBRANCH   1  11
TORSDOF 4
ENDMDL
