MODEL 1
REMARK VINA RESULT:      -4.5      0.000      0.000
REMARK  Name = *****
REMARK  3 active torsions:
REMARK  status: ('A' for Active; 'I' for Inactive)
REMARK    1  A    between atoms: N_2  and  C_3
REMARK    2  A    between atoms: C_8  and  C_9
REMARK    3  A    between atoms: C_10  and  C_11
REMARK                            x       y       z     vdW  Elec       q    Type
REMARK                         _______ _______ _______ _____ _____    ______ ____
ROOT
ATOM      1  C   UNL     1     101.399 128.162  83.345  0.00  0.00    +0.000 A 
ATOM      2  C   UNL     1     100.396 129.098  83.610  0.00  0.00    +0.000 A 
ATOM      3  C   UNL     1      99.079 128.814  83.252  0.00  0.00    +0.000 A 
ATOM      4  C   UNL     1      98.774 127.603  82.631  0.00  0.00    +0.000 A 
ATOM      5  C   UNL     1      99.784 126.671  82.370  0.00  0.00    +0.000 A 
ATOM      6  C   UNL     1     101.112 126.936  82.730  0.00  0.00    +0.000 A 
ENDROOT
BRANCH   1   8
ATOM      7  C   UNL     1     103.809 128.787  83.956  0.00  0.00    +0.000 C 
ATOM      8  N   UNL     1     102.703 128.499  83.695  0.00  0.00    +0.000 NA
ENDBRANCH   1   8
BRANCH   6   9
ATOM      9  C   UNL     1     102.127 125.922  82.425  0.00  0.00    +0.000 C 
ATOM     10  C   UNL     1     102.807 125.919  81.268  0.00  0.00    +0.000 C 
BRANCH  10  11
ATOM     11  C   UNL     1     103.847 124.936  80.939  0.00  0.00    +0.000 A 
ATOM     12  C   UNL     1     104.665 125.066  79.809  0.00  0.00    +0.000 A 
ATOM     13  C   UNL     1     105.664 124.127  79.543  0.00  0.00    +0.000 A 
ATOM     14  C   UNL     1     105.864 123.054  80.409  0.00  0.00    +0.000 A 
ATOM     15  C   UNL     1     105.068 122.924  81.545  0.00  0.00    +0.000 A 
ATOM     16  C   UNL     1     104.069 123.864  81.812  0.00  0.00    +0.000 A 
ENDBRANCH  10  11
ENDBRANCH   6   9
TORSDOF 3
ENDMDL
