REMARK  Name = *****
REMARK  4 active torsions:
REMARK  status: ('A' for Active; 'I' for Inactive)
REMARK    1  A    between atoms: C_1  and  C_2
REMARK    2  A    between atoms: C_2  and  O_8
REMARK    3  A    between atoms: O_8  and  C_9
REMARK    4  A    between atoms: C_9  and  C_11
REMARK                            x       y       z     vdW  Elec       q    Type
REMARK                         _______ _______ _______ _____ _____    ______ ____
ROOT
ATOM      1  C   UNL     1       2.765  -0.611   2.498  0.00  0.00    +0.000 C 
ATOM      2  O   UNL     1       2.097  -1.629   2.542  0.00  0.00    +0.000 OA
ENDROOT
BRANCH   1   3
ATOM      3  C   UNL     1       3.415  -0.011   3.695  0.00  0.00    +0.000 A 
ATOM      4  C   UNL     1       4.197   1.150   3.622  0.00  0.00    +0.000 A 
ATOM      5  C   UNL     1       4.780   1.663   4.781  0.00  0.00    +0.000 A 
ATOM      6  C   UNL     1       4.594   1.034   6.011  0.00  0.00    +0.000 A 
ATOM      7  C   UNL     1       3.817  -0.121   6.088  0.00  0.00    +0.000 A 
ATOM      8  C   UNL     1       3.230  -0.642   4.934  0.00  0.00    +0.000 A 
ATOM      9 CL   UNL     1       5.740   3.088   4.690  0.00  0.00    +0.000 Cl
ENDBRANCH   1   3
BRANCH   1  10
ATOM     10  O   UNL     1       3.030   0.131   1.399  0.00  0.00    +0.000 OA
BRANCH  10  12
ATOM     11  C   UNL     1       0.951  -0.109   0.130  0.00  0.00    +0.000 C 
ATOM     12  C   UNL     1       2.483  -0.233   0.090  0.00  0.00    +0.000 C 
ATOM     13  C   UNL     1       3.079   0.847  -0.845  0.00  0.00    +0.000 C 
ATOM     14  C   UNL     1       2.809   0.656  -2.336  0.00  0.00    +0.000 C 
ATOM     15  C   UNL     1       3.366  -0.652  -2.877  0.00  0.00    +0.000 C 
ATOM     16  S   UNL     1       2.612  -2.084  -2.063  0.00  0.00    +0.000 S 
ATOM     17  C   UNL     1       2.962  -1.639  -0.329  0.00  0.00    +0.000 C 
ENDBRANCH  10  12
ENDBRANCH   1  10
TORSDOF 3
