MODEL 1
REMARK VINA RESULT:      -4.7      0.000      0.000
REMARK  Name = *****
REMARK  6 active torsions:
REMARK  status: ('A' for Active; 'I' for Inactive)
REMARK    1  A    between atoms: C_1  and  O_2
REMARK    2  A    between atoms: O_2  and  C_3
REMARK    3  A    between atoms: C_6  and  C_9
REMARK    4  A    between atoms: C_10  and  C_11
REMARK    5  A    between atoms: C_14  and  O_17
REMARK    6  A    between atoms: O_17  and  C_18
REMARK                            x       y       z     vdW  Elec       q    Type
REMARK                         _______ _______ _______ _____ _____    ______ ____
ROOT
ATOM      1  C   UNL     1     102.399 125.815  82.350  0.00  0.00    +0.000 C 
ATOM      2  C   UNL     1     103.258 125.831  81.317  0.00  0.00    +0.000 C 
ATOM      3 CL   UNL     1     103.400 127.157  80.214  0.00  0.00    +0.000 Cl
ENDROOT
BRANCH   1   7
ATOM      4  C   UNL     1      99.628 128.893  83.429  0.00  0.00    +0.000 A 
ATOM      5  C   UNL     1      99.171 127.735  82.802  0.00  0.00    +0.000 A 
ATOM      6  C   UNL     1     100.073 126.726  82.443  0.00  0.00    +0.000 A 
ATOM      7  C   UNL     1     101.441 126.869  82.698  0.00  0.00    +0.000 A 
ATOM      8  C   UNL     1     101.894 128.026  83.338  0.00  0.00    +0.000 A 
ATOM      9  C   UNL     1     100.991 129.030  83.697  0.00  0.00    +0.000 A 
BRANCH   4  11
ATOM     10  C   UNL     1      99.524 131.186  84.045  0.00  0.00    +0.000 C 
ATOM     11  O   UNL     1      98.857 129.949  83.832  0.00  0.00    +0.000 OA
ENDBRANCH   4  11
ENDBRANCH   1   7
BRANCH   2  12
ATOM     12  C   UNL     1     104.174 124.702  81.088  0.00  0.00    +0.000 A 
ATOM     13  C   UNL     1     104.939 124.631  79.915  0.00  0.00    +0.000 A 
ATOM     14  C   UNL     1     105.811 123.557  79.693  0.00  0.00    +0.000 A 
ATOM     15  C   UNL     1     105.928 122.541  80.641  0.00  0.00    +0.000 A 
ATOM     16  C   UNL     1     105.166 122.608  81.809  0.00  0.00    +0.000 A 
ATOM     17  C   UNL     1     104.296 123.679  82.034  0.00  0.00    +0.000 A 
BRANCH  15  18
ATOM     18  O   UNL     1     106.737 121.443  80.548  0.00  0.00    +0.000 OA
ATOM     19  C   UNL     1     108.061 121.575  81.050  0.00  0.00    +0.000 C 
ENDBRANCH  15  18
ENDBRANCH   2  12
TORSDOF 4
ENDMDL
