REMARK  Name = *****
REMARK  3 active torsions:
REMARK  status: ('A' for Active; 'I' for Inactive)
REMARK    1  A    between atoms: C_4  and  C_7
REMARK    2  A    between atoms: C_7  and  C_9
REMARK    3  A    between atoms: C_9  and  C_10
REMARK                            x       y       z     vdW  Elec       q    Type
REMARK                         _______ _______ _______ _____ _____    ______ ____
ROOT
ATOM      1  C   UNL     1      -3.719  -0.523  -0.017  0.00  0.00    +0.000 C 
ENDROOT
BRANCH   1   2
ATOM      2  C   UNL     1      -5.122  -0.108  -0.391  0.00  0.00    +0.000 A 
ATOM      3  C   UNL     1      -5.789  -0.734  -1.454  0.00  0.00    +0.000 A 
ATOM      4  C   UNL     1      -7.092  -0.360  -1.782  0.00  0.00    +0.000 A 
ATOM      5  C   UNL     1      -7.760   0.622  -1.066  0.00  0.00    +0.000 A 
ATOM      6  C   UNL     1      -7.108   1.229  -0.004  0.00  0.00    +0.000 A 
ATOM      7  C   UNL     1      -5.806   0.873   0.343  0.00  0.00    +0.000 A 
ATOM      8  F   UNL     1      -7.743   2.172   0.705  0.00  0.00    +0.000 F 
ATOM      9  F   UNL     1      -7.708  -0.964  -2.806  0.00  0.00    +0.000 F 
ENDBRANCH   1   2
BRANCH   1  10
ATOM     10  C   UNL     1      -2.765   0.642   0.173  0.00  0.00    +0.000 C 
ATOM     11  O   UNL     1      -2.490   1.048   1.303  0.00  0.00    +0.000 OA
BRANCH  10  15
ATOM     12  C   UNL     1      -0.975   2.679  -3.167  0.00  0.00    +0.000 A 
ATOM     13  C   UNL     1      -1.830   1.604  -3.404  0.00  0.00    +0.000 A 
ATOM     14  C   UNL     1      -2.423   0.926  -2.334  0.00  0.00    +0.000 A 
ATOM     15  C   UNL     1      -2.162   1.322  -1.017  0.00  0.00    +0.000 A 
ATOM     16  C   UNL     1      -1.300   2.405  -0.790  0.00  0.00    +0.000 A 
ATOM     17  C   UNL     1      -0.710   3.080  -1.860  0.00  0.00    +0.000 A 
ENDBRANCH  10  15
ENDBRANCH   1  10
TORSDOF 3
