MODEL 1
REMARK VINA RESULT:      -4.4      0.000      0.000
REMARK  Name = *****
REMARK  6 active torsions:
REMARK  status: ('A' for Active; 'I' for Inactive)
REMARK    1  A    between atoms: C_1  and  C_2
REMARK    2  A    between atoms: C_5  and  C_18
REMARK    3  A    between atoms: C_8  and  C_9
REMARK    4  A    between atoms: C_8  and  C_10
REMARK    5  A    between atoms: C_10  and  S_11
REMARK    6  A    between atoms: S_11  and  C_12
REMARK                            x       y       z     vdW  Elec       q    Type
REMARK                         _______ _______ _______ _____ _____    ______ ____
ROOT
ATOM      1  C   UNL     1      87.579  71.782  82.692  0.00  0.00    +0.000 C 
ATOM      2  C   UNL     1      88.370  71.956  84.003  0.00  0.00    +0.000 C 
ATOM      3  C   UNL     1      89.382  73.106  83.854  0.00  0.00    +0.000 C 
ATOM      4  C   UNL     1      90.611  72.702  83.100  0.00  0.00    +0.000 C 
ATOM      5  C   UNL     1      91.007  71.433  82.908  0.00  0.00    +0.000 C 
ATOM      6  C   UNL     1      90.229  70.309  83.523  0.00  0.00    +0.000 C 
ATOM      7  O   UNL     1      90.585  69.148  83.315  0.00  0.00    +0.000 OA
ATOM      8  C   UNL     1      89.072  70.646  84.482  0.00  0.00    +0.000 C 
ATOM      9  C   UNL     1      88.083  69.461  84.492  0.00  0.00    +0.000 C 
ATOM     10  C   UNL     1      92.219  71.055  82.114  0.00  0.00    +0.000 C 
ENDROOT
BRANCH   8  11
ATOM     11  C   UNL     1      89.743  70.778  85.880  0.00  0.00    +0.000 C 
BRANCH  11  12
ATOM     12  S   UNL     1      89.247  69.496  87.094  0.00  0.00    +0.000 S 
BRANCH  12  13
ATOM     13  C   UNL     1      88.107  70.420  88.109  0.00  0.00    +0.000 A 
ATOM     14  C   UNL     1      86.880  70.884  87.624  0.00  0.00    +0.000 A 
ATOM     15  C   UNL     1      86.023  71.614  88.453  0.00  0.00    +0.000 A 
ATOM     16  C   UNL     1      86.392  71.892  89.768  0.00  0.00    +0.000 A 
ATOM     17  C   UNL     1      87.621  71.450  90.253  0.00  0.00    +0.000 A 
ATOM     18  C   UNL     1      88.477  70.720  89.425  0.00  0.00    +0.000 A 
ENDBRANCH  12  13
ENDBRANCH  11  12
ENDBRANCH   8  11
TORSDOF 3
ENDMDL
