MODEL 1
REMARK VINA RESULT:      -4.0      0.000      0.000
REMARK  Name = *****
REMARK  4 active torsions:
REMARK  status: ('A' for Active; 'I' for Inactive)
REMARK    1  A    between atoms: C_4  and  C_7
REMARK    2  A    between atoms: C_7  and  N_8
REMARK    3  A    between atoms: N_8  and  C_9
REMARK    4  A    between atoms: C_9  and  C_10
REMARK                            x       y       z     vdW  Elec       q    Type
REMARK                         _______ _______ _______ _____ _____    ______ ____
ROOT
ATOM      1  N   UNL     1      89.948  68.267  86.532  0.00  0.00    +0.000 NA
ENDROOT
BRANCH   1   2
ATOM      2  C   UNL     1      89.673  69.513  86.348  0.00  0.00    +0.000 C 
BRANCH   2   6
ATOM      3  C   UNL     1      86.537  71.449  88.493  0.00  0.00    +0.000 A 
ATOM      4  C   UNL     1      86.439  71.306  87.109  0.00  0.00    +0.000 A 
ATOM      5  C   UNL     1      87.461  70.674  86.398  0.00  0.00    +0.000 A 
ATOM      6  C   UNL     1      88.581  70.187  87.077  0.00  0.00    +0.000 A 
ATOM      7  C   UNL     1      88.681  70.328  88.464  0.00  0.00    +0.000 A 
ATOM      8  C   UNL     1      87.656  70.960  89.172  0.00  0.00    +0.000 A 
ENDBRANCH   2   6
ENDBRANCH   1   2
BRANCH   1   9
ATOM      9  C   UNL     1      88.918  67.356  86.018  0.00  0.00    +0.000 C 
BRANCH   9  10
ATOM     10  C   UNL     1      88.334  66.503  87.122  0.00  0.00    +0.000 A 
ATOM     11  C   UNL     1      87.213  66.946  87.841  0.00  0.00    +0.000 A 
ATOM     12  C   UNL     1      86.658  66.158  88.851  0.00  0.00    +0.000 A 
ATOM     13  C   UNL     1      87.220  64.918  89.145  0.00  0.00    +0.000 A 
ATOM     14  C   UNL     1      88.330  64.460  88.438  0.00  0.00    +0.000 A 
ATOM     15  C   UNL     1      88.885  65.250  87.428  0.00  0.00    +0.000 A 
ATOM     16 CL   UNL     1      86.539  63.944  90.390  0.00  0.00    +0.000 Cl
ENDBRANCH   9  10
ENDBRANCH   1   9
TORSDOF 4
ENDMDL
