MODEL 1
REMARK VINA RESULT:      -4.7      0.000      0.000
REMARK  Name = *****
REMARK  4 active torsions:
REMARK  status: ('A' for Active; 'I' for Inactive)
REMARK    1  A    between atoms: C_4  and  C_7
REMARK    2  A    between atoms: C_7  and  S_8
REMARK    3  A    between atoms: S_8  and  C_9
REMARK    4  A    between atoms: C_12  and  C_15
REMARK                            x       y       z     vdW  Elec       q    Type
REMARK                         _______ _______ _______ _____ _____    ______ ____
ROOT
ATOM      1  C   UNL     1      89.111  68.579  86.876  0.00  0.00    +0.000 A 
ATOM      2  N   UNL     1      90.183  67.918  86.385  0.00  0.00    +0.000 NA
ATOM      3  C   UNL     1      90.124  66.566  86.349  0.00  0.00    +0.000 A 
ATOM      4  C   UNL     1      89.038  65.822  86.788  0.00  0.00    +0.000 A 
ATOM      5  C   UNL     1      87.938  66.527  87.281  0.00  0.00    +0.000 A 
ATOM      6  C   UNL     1      87.975  67.921  87.330  0.00  0.00    +0.000 A 
ENDROOT
BRANCH   4   7
ATOM      7  C   UNL     1      89.052  64.329  86.686  0.00  0.00    +0.000 C 
ATOM      8  F   UNL     1      88.848  63.709  87.881  0.00  0.00    +0.000 F 
ATOM      9  F   UNL     1      88.094  63.844  85.849  0.00  0.00    +0.000 F 
ATOM     10  F   UNL     1      90.237  63.854  86.214  0.00  0.00    +0.000 F 
ENDBRANCH   4   7
BRANCH   1  11
ATOM     11  S   UNL     1      89.156  70.358  86.944  0.00  0.00    +0.000 S 
BRANCH  11  12
ATOM     12  C   UNL     1      87.832  70.767  85.762  0.00  0.00    +0.000 C 
BRANCH  12  16
ATOM     13  C   UNL     1      84.371  72.359  87.790  0.00  0.00    +0.000 A 
ATOM     14  C   UNL     1      84.443  72.398  86.399  0.00  0.00    +0.000 A 
ATOM     15  C   UNL     1      85.561  71.882  85.741  0.00  0.00    +0.000 A 
ATOM     16  C   UNL     1      86.617  71.315  86.470  0.00  0.00    +0.000 A 
ATOM     17  C   UNL     1      86.536  71.289  87.871  0.00  0.00    +0.000 A 
ATOM     18  C   UNL     1      85.417  71.807  88.526  0.00  0.00    +0.000 A 
ENDBRANCH  12  16
ENDBRANCH  11  12
ENDBRANCH   1  11
TORSDOF 4
ENDMDL
