MODEL 1
REMARK VINA RESULT:      -4.9      0.000      0.000
REMARK  Name = *****
REMARK  3 active torsions:
REMARK  status: ('A' for Active; 'I' for Inactive)
REMARK    1  A    between atoms: C_2  and  C_12
REMARK    2  A    between atoms: C_3  and  C_4
REMARK    3  A    between atoms: C_7  and  C_10
REMARK                            x       y       z     vdW  Elec       q    Type
REMARK                         _______ _______ _______ _____ _____    ______ ____
ROOT
ATOM      1  C   UNL     1      87.477  70.428  89.121  0.00  0.00    +0.000 C 
ATOM      2  C   UNL     1      86.998  70.887  87.768  0.00  0.00    +0.000 C 
ATOM      3  C   UNL     1      87.009  69.405  88.118  0.00  0.00    +0.000 C 
ENDROOT
BRANCH   3   4
ATOM      4  C   UNL     1      88.004  68.485  87.450  0.00  0.00    +0.000 A 
ATOM      5  C   UNL     1      89.138  68.989  86.794  0.00  0.00    +0.000 A 
ATOM      6  C   UNL     1      90.069  68.140  86.188  0.00  0.00    +0.000 A 
ATOM      7  C   UNL     1      89.887  66.756  86.232  0.00  0.00    +0.000 A 
ATOM      8  C   UNL     1      88.772  66.231  86.887  0.00  0.00    +0.000 A 
ATOM      9  C   UNL     1      87.846  67.089  87.491  0.00  0.00    +0.000 A 
BRANCH   7  10
ATOM     10  C   UNL     1      90.838  65.881  85.613  0.00  0.00    +0.000 C 
ATOM     11  N   UNL     1      91.609  65.173  85.110  0.00  0.00    +0.000 NA
ENDBRANCH   7  10
ENDBRANCH   3   4
BRANCH   2  12
ATOM     12  C   UNL     1      85.682  71.617  87.633  0.00  0.00    +0.000 A 
ATOM     13  C   UNL     1      84.947  72.009  88.764  0.00  0.00    +0.000 A 
ATOM     14  C   UNL     1      83.738  72.698  88.645  0.00  0.00    +0.000 A 
ATOM     15  C   UNL     1      83.239  73.018  87.385  0.00  0.00    +0.000 A 
ATOM     16  C   UNL     1      83.953  72.649  86.248  0.00  0.00    +0.000 A 
ATOM     17  C   UNL     1      85.161  71.960  86.374  0.00  0.00    +0.000 A 
ENDBRANCH   2  12
TORSDOF 3
ENDMDL
