MODEL 1
REMARK VINA RESULT:      -4.9      0.000      0.000
REMARK  Name = *****
REMARK  3 active torsions:
REMARK  status: ('A' for Active; 'I' for Inactive)
REMARK    1  A    between atoms: C_4  and  C_7
REMARK    2  A    between atoms: C_8  and  C_9
REMARK    3  A    between atoms: C_11  and  C_15
REMARK                            x       y       z     vdW  Elec       q    Type
REMARK                         _______ _______ _______ _____ _____    ______ ____
ROOT
ATOM      1  C   UNL     1     101.991 125.962  82.235  0.00  0.00    +0.000 C 
ATOM      2  C   UNL     1     102.875 126.153  81.242  0.00  0.00    +0.000 C 
ENDROOT
BRANCH   1   6
ATOM      3  C   UNL     1      99.100 128.896  83.395  0.00  0.00    +0.000 A 
ATOM      4  C   UNL     1     100.448 129.109  83.682  0.00  0.00    +0.000 A 
ATOM      5  C   UNL     1     101.401 128.156  83.314  0.00  0.00    +0.000 A 
ATOM      6  C   UNL     1     101.017 126.975  82.667  0.00  0.00    +0.000 A 
ATOM      7  C   UNL     1      99.662 126.779  82.370  0.00  0.00    +0.000 A 
ATOM      8  C   UNL     1      98.708 127.732  82.738  0.00  0.00    +0.000 A 
ENDBRANCH   1   6
BRANCH   2   9
ATOM      9  C   UNL     1     103.862 125.150  80.819  0.00  0.00    +0.000 A 
ATOM     10  C   UNL     1     104.673 125.329  79.690  0.00  0.00    +0.000 A 
ATOM     11  C   UNL     1     105.624 124.364  79.336  0.00  0.00    +0.000 A 
ATOM     12  C   UNL     1     105.777 123.216  80.119  0.00  0.00    +0.000 A 
ATOM     13  C   UNL     1     104.986 123.038  81.254  0.00  0.00    +0.000 A 
ATOM     14  C   UNL     1     104.039 124.003  81.603  0.00  0.00    +0.000 A 
BRANCH  11  15
ATOM     15  C   UNL     1     106.442 124.555  78.175  0.00  0.00    +0.000 C 
ATOM     16  N   UNL     1     107.105 124.707  77.234  0.00  0.00    +0.000 NA
ENDBRANCH  11  15
ENDBRANCH   2   9
TORSDOF 3
ENDMDL
