REMARK  Name = *****
REMARK  6 active torsions:
REMARK  status: ('A' for Active; 'I' for Inactive)
REMARK    1  A    between atoms: C_1  and  C_2
REMARK    2  A    between atoms: C_3  and  C_10
REMARK    3  A    between atoms: C_5  and  O_8
REMARK    4  A    between atoms: O_8  and  C_9
REMARK    5  A    between atoms: C_10  and  C_11
REMARK    6  A    between atoms: C_11  and  C_12
REMARK                            x       y       z     vdW  Elec       q    Type
REMARK                         _______ _______ _______ _____ _____    ______ ____
ROOT
ATOM      1  C   UNL     1       1.993  -0.239  -1.581  0.00  0.00    +0.000 C 
ATOM      2  C   UNL     1       0.588  -0.074  -1.066  0.00  0.00    +0.000 A 
ATOM      3  C   UNL     1       0.171   1.096  -0.390  0.00  0.00    +0.000 A 
ATOM      4  C   UNL     1      -1.168   1.182   0.045  0.00  0.00    +0.000 A 
ATOM      5  C   UNL     1      -2.064   0.126  -0.141  0.00  0.00    +0.000 A 
ATOM      6  C   UNL     1      -1.630  -1.028  -0.787  0.00  0.00    +0.000 A 
ATOM      7  C   UNL     1      -0.318  -1.130  -1.245  0.00  0.00    +0.000 A 
ENDROOT
BRANCH   5   8
ATOM      8  O   UNL     1      -3.375   0.102   0.252  0.00  0.00    +0.000 OA
ATOM      9  C   UNL     1      -3.837   1.210   1.014  0.00  0.00    +0.000 C 
ENDBRANCH   5   8
BRANCH   3  10
ATOM     10  C   UNL     1       1.138   2.254  -0.197  0.00  0.00    +0.000 C 
BRANCH  10  11
ATOM     11  C   UNL     1       0.836   3.296   0.897  0.00  0.00    +0.000 C 
BRANCH  11  12
ATOM     12  C   UNL     1       0.762   2.815   2.331  0.00  0.00    +0.000 A 
ATOM     13  C   UNL     1       1.427   1.670   2.787  0.00  0.00    +0.000 A 
ATOM     14  C   UNL     1       1.346   1.284   4.127  0.00  0.00    +0.000 A 
ATOM     15  C   UNL     1       0.611   2.045   5.033  0.00  0.00    +0.000 A 
ATOM     16  C   UNL     1      -0.041   3.195   4.600  0.00  0.00    +0.000 A 
ATOM     17  C   UNL     1       0.038   3.580   3.260  0.00  0.00    +0.000 A 
ENDBRANCH  11  12
ENDBRANCH  10  11
ENDBRANCH   3  10
TORSDOF 4
