MODEL 1
REMARK VINA RESULT:      -4.8      0.000      0.000
REMARK  Name = *****
REMARK  1 active torsions:
REMARK  status: ('A' for Active; 'I' for Inactive)
REMARK    1  A    between atoms: C_4  and  C_7
REMARK                            x       y       z     vdW  Elec       q    Type
REMARK                         _______ _______ _______ _____ _____    ______ ____
ROOT
ATOM      1  C   UNL     1     102.159 126.328  82.265  0.00  0.00    +0.000 A 
ATOM      2  N   UNL     1     102.627 125.241  82.851  0.00  0.00    +0.000 NA
ATOM      3  C   UNL     1     103.600 124.786  81.991  0.00  0.00    +0.000 A 
ATOM      4  C   UNL     1     103.682 125.638  80.899  0.00  0.00    +0.000 A 
ATOM      5  O   UNL     1     102.762 126.628  81.067  0.00  0.00    +0.000 OA
ATOM      6  C   UNL     1     104.559 125.482  79.830  0.00  0.00    +0.000 A 
ATOM      7  C   UNL     1     105.407 124.370  79.899  0.00  0.00    +0.000 A 
ATOM      8  C   UNL     1     105.373 123.476  80.971  0.00  0.00    +0.000 A 
ATOM      9  C   UNL     1     104.469 123.687  82.014  0.00  0.00    +0.000 A 
ATOM     10 CL   UNL     1     104.358 122.647  83.361  0.00  0.00    +0.000 Cl
ATOM     11 CL   UNL     1     106.526 124.099  78.617  0.00  0.00    +0.000 Cl
ENDROOT
BRANCH   1  15
ATOM     12  C   UNL     1      99.023 128.935  83.545  0.00  0.00    +0.000 A 
ATOM     13  C   UNL     1      98.729 127.763  82.853  0.00  0.00    +0.000 A 
ATOM     14  C   UNL     1      99.761 126.918  82.439  0.00  0.00    +0.000 A 
ATOM     15  C   UNL     1     101.102 127.232  82.714  0.00  0.00    +0.000 A 
ATOM     16  C   UNL     1     101.381 128.415  83.413  0.00  0.00    +0.000 A 
ATOM     17  C   UNL     1     100.348 129.262  83.826  0.00  0.00    +0.000 A 
ENDBRANCH   1  15
TORSDOF 1
ENDMDL
