MODEL 1
REMARK VINA RESULT:      -4.6      0.000      0.000
REMARK  Name = *****
REMARK  4 active torsions:
REMARK  status: ('A' for Active; 'I' for Inactive)
REMARK    1  A    between atoms: C_1  and  C_2
REMARK    2  A    between atoms: C_5  and  C_8
REMARK    3  A    between atoms: N_9  and  C_10
REMARK    4  A    between atoms: C_13  and  C_16
REMARK                            x       y       z     vdW  Elec       q    Type
REMARK                         _______ _______ _______ _____ _____    ______ ____
ROOT
ATOM      1  C   UNL     1     102.921 125.709  82.740  0.00  0.00    +0.000 C 
ATOM      2  N   UNL     1     101.751 125.948  82.235  0.00  0.00    +0.000 NA
ENDROOT
BRANCH   1   7
ATOM      3  C   UNL     1     106.100 121.137  81.205  0.00  0.00    +0.000 C 
ATOM      4  C   UNL     1     105.250 122.310  81.595  0.00  0.00    +0.000 A 
ATOM      5  C   UNL     1     104.811 123.220  80.623  0.00  0.00    +0.000 A 
ATOM      6  C   UNL     1     104.048 124.331  80.988  0.00  0.00    +0.000 A 
ATOM      7  C   UNL     1     103.726 124.543  82.330  0.00  0.00    +0.000 A 
ATOM      8  C   UNL     1     104.170 123.651  83.309  0.00  0.00    +0.000 A 
ATOM      9  C   UNL     1     104.936 122.542  82.940  0.00  0.00    +0.000 A 
ENDBRANCH   1   7
BRANCH   2  10
ATOM     10  C   UNL     1     101.097 127.090  82.716  0.00  0.00    +0.000 A 
ATOM     11  C   UNL     1      99.706 127.202  82.651  0.00  0.00    +0.000 A 
ATOM     12  C   UNL     1      99.063 128.339  83.149  0.00  0.00    +0.000 A 
ATOM     13  C   UNL     1      99.804 129.380  83.720  0.00  0.00    +0.000 A 
ATOM     14  C   UNL     1     101.195 129.251  83.813  0.00  0.00    +0.000 A 
ATOM     15  C   UNL     1     101.835 128.113  83.313  0.00  0.00    +0.000 A 
ATOM     16  C   UNL     1      99.111 130.581  84.290  0.00  0.00    +0.000 C 
ENDBRANCH   2  10
TORSDOF 2
ENDMDL
