MODEL 1
REMARK VINA RESULT:      -4.0      0.000      0.000
REMARK  Name = *****
REMARK  4 active torsions:
REMARK  status: ('A' for Active; 'I' for Inactive)
REMARK    1  A    between atoms: C_4  and  C_7
REMARK    2  A    between atoms: C_7  and  S_8
REMARK    3  A    between atoms: S_8  and  C_9
REMARK    4  A    between atoms: C_9  and  C_11
REMARK                            x       y       z     vdW  Elec       q    Type
REMARK                         _______ _______ _______ _____ _____    ______ ____
ROOT
ATOM      1  S   UNL     1     103.726 126.753  82.522  0.00  0.00    +0.000 S 
ENDROOT
BRANCH   1   2
ATOM      2  C   UNL     1     103.885 126.498  80.781  0.00  0.00    +0.000 C 
ATOM      3  O   UNL     1     103.396 127.301  79.993  0.00  0.00    +0.000 OA
BRANCH   2   4
ATOM      4  C   UNL     1     104.623 125.295  80.415  0.00  0.00    +0.000 A 
ATOM      5  C   UNL     1     104.379 123.953  80.667  0.00  0.00    +0.000 A 
ATOM      6  C   UNL     1     105.375 123.093  80.118  0.00  0.00    +0.000 A 
ATOM      7  C   UNL     1     106.356 123.797  79.459  0.00  0.00    +0.000 A 
ATOM      8  S   UNL     1     106.074 125.479  79.504  0.00  0.00    +0.000 S 
ENDBRANCH   2   4
ENDBRANCH   1   2
BRANCH   1   9
ATOM      9  C   UNL     1     102.107 125.971  82.773  0.00  0.00    +0.000 C 
BRANCH   9  13
ATOM     10  C   UNL     1      98.977 128.916  83.153  0.00  0.00    +0.000 A 
ATOM     11  C   UNL     1     100.263 129.203  83.607  0.00  0.00    +0.000 A 
ATOM     12  C   UNL     1     101.277 128.252  83.482  0.00  0.00    +0.000 A 
ATOM     13  C   UNL     1     101.014 127.005  82.896  0.00  0.00    +0.000 A 
ATOM     14  C   UNL     1      99.714 126.725  82.451  0.00  0.00    +0.000 A 
ATOM     15  C   UNL     1      98.702 127.677  82.577  0.00  0.00    +0.000 A 
ENDBRANCH   9  13
ENDBRANCH   1   9
TORSDOF 4
ENDMDL
