MODEL 1
REMARK VINA RESULT:      -4.7      0.000      0.000
REMARK  Name = *****
REMARK  4 active torsions:
REMARK  status: ('A' for Active; 'I' for Inactive)
REMARK    1  A    between atoms: C_1  and  C_2
REMARK    2  A    between atoms: C_5  and  C_8
REMARK    3  A    between atoms: C_8  and  O_10
REMARK    4  A    between atoms: O_10  and  C_11
REMARK                            x       y       z     vdW  Elec       q    Type
REMARK                         _______ _______ _______ _____ _____    ______ ____
ROOT
ATOM      1  C   UNL     1     103.186 126.813  81.811  0.00  0.00    +0.000 C 
ATOM      2  O   UNL     1     103.213 127.593  80.870  0.00  0.00    +0.000 OA
ENDROOT
BRANCH   1   7
ATOM      3  C   UNL     1     105.282 121.422  81.335  0.00  0.00    +0.000 C 
ATOM      4  C   UNL     1     104.764 122.824  81.478  0.00  0.00    +0.000 A 
ATOM      5  C   UNL     1     104.307 123.286  82.719  0.00  0.00    +0.000 A 
ATOM      6  C   UNL     1     103.793 124.581  82.850  0.00  0.00    +0.000 A 
ATOM      7  C   UNL     1     103.721 125.426  81.734  0.00  0.00    +0.000 A 
ATOM      8  C   UNL     1     104.169 124.960  80.491  0.00  0.00    +0.000 A 
ATOM      9  C   UNL     1     104.680 123.666  80.364  0.00  0.00    +0.000 A 
ENDBRANCH   1   7
BRANCH   1  10
ATOM     10  O   UNL     1     102.651 127.038  83.065  0.00  0.00    +0.000 OA
BRANCH  10  11
ATOM     11  C   UNL     1     101.326 127.474  83.008  0.00  0.00    +0.000 A 
ATOM     12  C   UNL     1     100.367 126.618  82.464  0.00  0.00    +0.000 A 
ATOM     13  C   UNL     1      99.031 127.018  82.434  0.00  0.00    +0.000 A 
ATOM     14  C   UNL     1      98.659 128.258  82.959  0.00  0.00    +0.000 A 
ATOM     15  C   UNL     1      99.622 129.102  83.520  0.00  0.00    +0.000 A 
ATOM     16  C   UNL     1     100.960 128.707  83.553  0.00  0.00    +0.000 A 
ATOM     17 CL   UNL     1     102.124 129.752  84.279  0.00  0.00    +0.000 Cl
ENDBRANCH  10  11
ENDBRANCH   1  10
TORSDOF 3
ENDMDL
