MODEL 1
REMARK VINA RESULT:      -4.7      0.000      0.000
REMARK  Name = *****
REMARK  4 active torsions:
REMARK  status: ('A' for Active; 'I' for Inactive)
REMARK    1  A    between atoms: C_1  and  C_2
REMARK    2  A    between atoms: C_2  and  C_11
REMARK    3  A    between atoms: N_3  and  C_4
REMARK    4  A    between atoms: C_4  and  C_5
REMARK                            x       y       z     vdW  Elec       q    Type
REMARK                         _______ _______ _______ _____ _____    ______ ____
ROOT
ATOM      1  C   UNL     1     101.558 126.035  84.338  0.00  0.00    +0.000 C 
ATOM      2  C   UNL     1     101.313 126.463  82.904  0.00  0.00    +0.000 C 
ATOM      3  N   UNL     1     100.186 126.911  82.459  0.00  0.00    +0.000 NA
ENDROOT
BRANCH   2   4
ATOM      4  C   UNL     1     102.462 126.356  81.938  0.00  0.00    +0.000 A 
ATOM      5  C   UNL     1     103.035 125.125  81.596  0.00  0.00    +0.000 A 
ATOM      6  C   UNL     1     104.101 125.079  80.697  0.00  0.00    +0.000 A 
ATOM      7  C   UNL     1     104.609 126.246  80.129  0.00  0.00    +0.000 A 
ATOM      8  C   UNL     1     104.045 127.475  80.463  0.00  0.00    +0.000 A 
ATOM      9  C   UNL     1     102.977 127.529  81.361  0.00  0.00    +0.000 A 
ATOM     10 CL   UNL     1     104.799 123.560  80.283  0.00  0.00    +0.000 Cl
ENDBRANCH   2   4
BRANCH   3  11
ATOM     11  C   UNL     1      99.031 127.038  83.344  0.00  0.00    +0.000 C 
BRANCH  11  12
ATOM     12  C   UNL     1      98.932 128.411  83.972  0.00  0.00    +0.000 A 
ATOM     13  C   UNL     1      98.406 128.557  85.265  0.00  0.00    +0.000 A 
ATOM     14  C   UNL     1      98.351 129.813  85.872  0.00  0.00    +0.000 A 
ATOM     15  C   UNL     1      98.829 130.937  85.199  0.00  0.00    +0.000 A 
ATOM     16  C   UNL     1      99.366 130.804  83.921  0.00  0.00    +0.000 A 
ATOM     17  C   UNL     1      99.423 129.548  83.313  0.00  0.00    +0.000 A 
ENDBRANCH  11  12
ENDBRANCH   3  11
TORSDOF 3
ENDMDL
