REMARK  Name = *****
REMARK  5 active torsions:
REMARK  status: ('A' for Active; 'I' for Inactive)
REMARK    1  A    between atoms: C_1  and  C_2
REMARK    2  A    between atoms: C_3  and  C_9
REMARK    3  A    between atoms: C_4  and  C_8
REMARK    4  A    between atoms: C_9  and  S_11
REMARK    5  A    between atoms: S_11  and  C_12
REMARK                            x       y       z     vdW  Elec       q    Type
REMARK                         _______ _______ _______ _____ _____    ______ ____
ROOT
ATOM      1  C   UNL     1       0.629   2.360  -0.002  0.00  0.00    +0.000 C 
ATOM      2  O   UNL     1      -0.252   3.205   0.068  0.00  0.00    +0.000 OA
ENDROOT
BRANCH   1   5
ATOM      3  C   UNL     1       1.246   0.734  -2.448  0.00  0.00    +0.000 C 
ATOM      4  C   UNL     1       0.607   0.148  -1.219  0.00  0.00    +0.000 A 
ATOM      5  C   UNL     1       0.303   0.913  -0.070  0.00  0.00    +0.000 A 
ATOM      6  C   UNL     1      -0.355   0.321   1.033  0.00  0.00    +0.000 A 
ATOM      7  C   UNL     1      -0.656  -1.048   0.991  0.00  0.00    +0.000 A 
ATOM      8  C   UNL     1      -0.311  -1.817  -0.118  0.00  0.00    +0.000 A 
ATOM      9  C   UNL     1       0.314  -1.224  -1.213  0.00  0.00    +0.000 A 
ATOM     10  C   UNL     1      -0.773   1.119   2.239  0.00  0.00    +0.000 C 
ENDBRANCH   1   5
BRANCH   1  11
ATOM     11  S   UNL     1       2.341   2.764   0.028  0.00  0.00    +0.000 S 
BRANCH  11  12
ATOM     12  C   UNL     1       2.318   4.237   1.107  0.00  0.00    +0.000 C 
ATOM     13  C   UNL     1       3.352   5.250   0.597  0.00  0.00    +0.000 C 
ATOM     14  C   UNL     1       3.438   6.463   1.524  0.00  0.00    +0.000 C 
ATOM     15  C   UNL     1       3.737   6.051   2.962  0.00  0.00    +0.000 C 
ATOM     16  C   UNL     1       2.727   5.028   3.474  0.00  0.00    +0.000 C 
ATOM     17  C   UNL     1       2.633   3.816   2.548  0.00  0.00    +0.000 C 
ENDBRANCH  11  12
ENDBRANCH   1  11
TORSDOF 3
