REMARK  Name = *****
REMARK  2 active torsions:
REMARK  status: ('A' for Active; 'I' for Inactive)
REMARK    1  A    between atoms: C_4  and  C_7
REMARK    2  A    between atoms: C_8  and  C_9
REMARK                            x       y       z     vdW  Elec       q    Type
REMARK                         _______ _______ _______ _____ _____    ______ ____
ROOT
ATOM      1  C   UNL     1      -5.221  -0.181  -0.474  0.00  0.00    +0.000 A 
ATOM      2  C   UNL     1      -6.003  -1.132  -1.161  0.00  0.00    +0.000 A 
ATOM      3  C   UNL     1      -7.368  -0.919  -1.273  0.00  0.00    +0.000 A 
ATOM      4  C   UNL     1      -8.051   0.171  -0.748  0.00  0.00    +0.000 A 
ATOM      5  C   UNL     1      -7.270   1.099  -0.052  0.00  0.00    +0.000 A 
ATOM      6  C   UNL     1      -5.886   0.927   0.088  0.00  0.00    +0.000 A 
ATOM      7  O   UNL     1      -7.901  -1.956  -1.977  0.00  0.00    +0.000 OA
ATOM      8  C   UNL     1      -6.824  -2.755  -2.256  0.00  0.00    +0.000 A 
ATOM      9  N   UNL     1      -5.672  -2.311  -1.791  0.00  0.00    +0.000 NA
ATOM     10  F   UNL     1      -6.929  -3.871  -2.930  0.00  0.00    +0.000 F 
ENDROOT
BRANCH   1  12
ATOM     11  C   UNL     1      -2.845   0.508  -0.227  0.00  0.00    +0.000 C 
ATOM     12  C   UNL     1      -3.784  -0.444  -0.350  0.00  0.00    +0.000 C 
BRANCH  11  16
ATOM     13  C   UNL     1       1.365  -0.189   0.097  0.00  0.00    +0.000 A 
ATOM     14  C   UNL     1       0.594  -1.017  -0.715  0.00  0.00    +0.000 A 
ATOM     15  C   UNL     1      -0.783  -0.806  -0.825  0.00  0.00    +0.000 A 
ATOM     16  C   UNL     1      -1.405   0.230  -0.115  0.00  0.00    +0.000 A 
ATOM     17  C   UNL     1      -0.615   1.066   0.685  0.00  0.00    +0.000 A 
ATOM     18  C   UNL     1       0.762   0.855   0.795  0.00  0.00    +0.000 A 
ENDBRANCH  11  16
ENDBRANCH   1  12
TORSDOF 2
