REMARK  Name = *****
REMARK  3 active torsions:
REMARK  status: ('A' for Active; 'I' for Inactive)
REMARK    1  A    between atoms: C_4  and  P_7
REMARK    2  A    between atoms: P_7  and  S_8
REMARK    3  A    between atoms: S_8  and  C_9
REMARK                            x       y       z     vdW  Elec       q    Type
REMARK                         _______ _______ _______ _____ _____    ______ ____
ROOT
ATOM      1  P   UNL     1      -3.247   0.629  -0.233  0.00  0.00    +0.000 P 
ATOM      2 CL   UNL     1      -4.157  -1.267  -0.325  0.00  0.00    +0.000 Cl
ENDROOT
BRANCH   1   6
ATOM      3  C   UNL     1       1.208  -0.380   0.695  0.00  0.00    +0.000 A 
ATOM      4  C   UNL     1       0.890   0.700  -0.123  0.00  0.00    +0.000 A 
ATOM      5  C   UNL     1      -0.447   0.996  -0.407  0.00  0.00    +0.000 A 
ATOM      6  C   UNL     1      -1.492   0.208   0.106  0.00  0.00    +0.000 A 
ATOM      7  C   UNL     1      -1.148  -0.862   0.949  0.00  0.00    +0.000 A 
ATOM      8  C   UNL     1       0.189  -1.158   1.234  0.00  0.00    +0.000 A 
ENDBRANCH   1   6
BRANCH   1   9
ATOM      9  S   UNL     1      -3.251   1.114  -2.293  0.00  0.00    +0.000 S 
BRANCH   9  10
ATOM     10  C   UNL     1      -4.898   1.785  -2.398  0.00  0.00    +0.000 A 
ATOM     11  C   UNL     1      -5.125   3.144  -2.150  0.00  0.00    +0.000 A 
ATOM     12  C   UNL     1      -6.414   3.672  -2.246  0.00  0.00    +0.000 A 
ATOM     13  C   UNL     1      -7.481   2.847  -2.598  0.00  0.00    +0.000 A 
ATOM     14  C   UNL     1      -7.261   1.496  -2.859  0.00  0.00    +0.000 A 
ATOM     15  C   UNL     1      -5.972   0.967  -2.764  0.00  0.00    +0.000 A 
ENDBRANCH   9  10
ENDBRANCH   1   9
TORSDOF 3
