MODEL 1
REMARK VINA RESULT:      -4.4      0.000      0.000
REMARK  Name = *****
REMARK  4 active torsions:
REMARK  status: ('A' for Active; 'I' for Inactive)
REMARK    1  A    between atoms: C_1  and  C_2
REMARK    2  A    between atoms: C_5  and  C_8
REMARK    3  A    between atoms: C_8  and  O_10
REMARK    4  A    between atoms: O_10  and  C_11
REMARK                            x       y       z     vdW  Elec       q    Type
REMARK                         _______ _______ _______ _____ _____    ______ ____
ROOT
ATOM      1  C   UNL     1      88.998  70.380  86.699  0.00  0.00    +0.000 C 
ATOM      2  O   UNL     1      89.910  70.962  86.132  0.00  0.00    +0.000 OA
ENDROOT
BRANCH   1   7
ATOM      3  C   UNL     1      83.711  72.679  87.276  0.00  0.00    +0.000 C 
ATOM      4  C   UNL     1      85.066  72.058  87.094  0.00  0.00    +0.000 A 
ATOM      5  C   UNL     1      85.629  71.909  85.820  0.00  0.00    +0.000 A 
ATOM      6  C   UNL     1      86.901  71.345  85.668  0.00  0.00    +0.000 A 
ATOM      7  C   UNL     1      87.623  70.929  86.794  0.00  0.00    +0.000 A 
ATOM      8  C   UNL     1      87.059  71.075  88.068  0.00  0.00    +0.000 A 
ATOM      9  C   UNL     1      85.787  71.629  88.215  0.00  0.00    +0.000 A 
ENDBRANCH   1   7
BRANCH   1  10
ATOM     10  O   UNL     1      89.083  69.183  87.330  0.00  0.00    +0.000 OA
BRANCH  10  11
ATOM     11  C   UNL     1      88.710  68.049  86.531  0.00  0.00    +0.000 C 
ATOM     12  C   UNL     1      87.889  67.083  87.400  0.00  0.00    +0.000 C 
ATOM     13  C   UNL     1      87.837  65.685  86.794  0.00  0.00    +0.000 C 
ATOM     14  C   UNL     1      89.243  65.105  86.617  0.00  0.00    +0.000 C 
ATOM     15  C   UNL     1      90.219  66.099  86.059  0.00  0.00    +0.000 C 
ATOM     16  C   UNL     1      89.977  67.418  86.015  0.00  0.00    +0.000 C 
ENDBRANCH  10  11
ENDBRANCH   1  10
TORSDOF 3
ENDMDL
