MODEL 1
REMARK VINA RESULT:      -4.6      0.000      0.000
REMARK  Name = *****
REMARK  4 active torsions:
REMARK  status: ('A' for Active; 'I' for Inactive)
REMARK    1  A    between atoms: C_1  and  O_2
REMARK    2  A    between atoms: O_2  and  C_3
REMARK    3  A    between atoms: C_6  and  C_9
REMARK    4  A    between atoms: C_10  and  C_11
REMARK                            x       y       z     vdW  Elec       q    Type
REMARK                         _______ _______ _______ _____ _____    ______ ____
ROOT
ATOM      1  C   UNL     1     101.959 127.555  82.726  0.00  0.00    +0.000 C 
ATOM      2  C   UNL     1     101.308 128.300  83.408  0.00  0.00    +0.000 C 
ENDROOT
BRANCH   2   3
ATOM      3  C   UNL     1     100.558 129.195  84.238  0.00  0.00    +0.000 C 
ATOM      4  C   UNL     1      99.619 130.179  83.585  0.00  0.00    +0.000 C 
ATOM      5  C   UNL     1      99.056 128.997  84.337  0.00  0.00    +0.000 C 
ATOM      6  C   UNL     1      98.387 129.179  85.668  0.00  0.00    +0.000 C 
ATOM      7  C   UNL     1      97.935 130.619  85.903  0.00  0.00    +0.000 C 
ATOM      8  C   UNL     1      99.057 131.609  85.600  0.00  0.00    +0.000 C 
ATOM      9  C   UNL     1      99.441 131.568  84.122  0.00  0.00    +0.000 C 
ENDBRANCH   2   3
BRANCH   1  13
ATOM     10  C   UNL     1     104.373 124.967  80.400  0.00  0.00    +0.000 A 
ATOM     11  C   UNL     1     104.148 126.280  79.985  0.00  0.00    +0.000 A 
ATOM     12  C   UNL     1     103.342 127.131  80.751  0.00  0.00    +0.000 A 
ATOM     13  C   UNL     1     102.758 126.672  81.934  0.00  0.00    +0.000 A 
ATOM     14  C   UNL     1     102.971 125.357  82.345  0.00  0.00    +0.000 A 
ATOM     15  C   UNL     1     103.775 124.510  81.578  0.00  0.00    +0.000 A 
BRANCH  10  17
ATOM     16  C   UNL     1     105.230 122.751  80.347  0.00  0.00    +0.000 C 
ATOM     17  O   UNL     1     105.145 124.041  79.753  0.00  0.00    +0.000 OA
ENDBRANCH  10  17
ENDBRANCH   1  13
TORSDOF 3
ENDMDL
