MODEL 1
REMARK VINA RESULT:      -4.2      0.000      0.000
REMARK  Name = *****
REMARK  3 active torsions:
REMARK  status: ('A' for Active; 'I' for Inactive)
REMARK    1  A    between atoms: C_6  and  C_7
REMARK    2  A    between atoms: C_8  and  C_9
REMARK    3  A    between atoms: C_12  and  S_15
REMARK                            x       y       z     vdW  Elec       q    Type
REMARK                         _______ _______ _______ _____ _____    ______ ____
ROOT
ATOM      1  C   UNL     1      86.200  61.562  89.540  0.00  0.00    +0.000 C 
ATOM      2  C   UNL     1      85.549  60.700  90.069  0.00  0.00    +0.000 C 
ENDROOT
BRANCH   1   8
ATOM      3  C   UNL     1      86.986  62.699  87.518  0.00  0.00    +0.000 A 
ATOM      4  C   UNL     1      87.743  63.699  86.906  0.00  0.00    +0.000 A 
ATOM      5  C   UNL     1      88.483  64.577  87.692  0.00  0.00    +0.000 A 
ATOM      6  C   UNL     1      88.481  64.474  89.078  0.00  0.00    +0.000 A 
ATOM      7  C   UNL     1      87.724  63.474  89.692  0.00  0.00    +0.000 A 
ATOM      8  C   UNL     1      86.975  62.585  88.912  0.00  0.00    +0.000 A 
ATOM      9  F   UNL     1      89.210  65.536  87.103  0.00  0.00    +0.000 F 
ENDBRANCH   1   8
BRANCH   2  10
ATOM     10  C   UNL     1      84.777  59.676  90.699  0.00  0.00    +0.000 A 
ATOM     11  C   UNL     1      83.391  59.808  90.804  0.00  0.00    +0.000 A 
ATOM     12  C   UNL     1      82.636  58.805  91.420  0.00  0.00    +0.000 A 
ATOM     13  C   UNL     1      83.263  57.670  91.940  0.00  0.00    +0.000 A 
ATOM     14  C   UNL     1      84.650  57.538  91.828  0.00  0.00    +0.000 A 
ATOM     15  C   UNL     1      85.406  58.539  91.211  0.00  0.00    +0.000 A 
BRANCH  13  16
ATOM     16  S   UNL     1      82.314  56.382  92.719  0.00  0.00    +0.000 S 
ATOM     17  H   UNL     1      82.667  55.179  92.192  0.00  0.00    +0.000 HD
ENDBRANCH  13  16
ENDBRANCH   2  10
TORSDOF 3
ENDMDL
