MODEL 1
REMARK VINA RESULT:      -4.7      0.000      0.000
REMARK  Name = *****
REMARK  3 active torsions:
REMARK  status: ('A' for Active; 'I' for Inactive)
REMARK    1  A    between atoms: C_8  and  C_9
REMARK    2  A    between atoms: C_9  and  C_11
REMARK    3  A    between atoms: C_11  and  C_12
REMARK                            x       y       z     vdW  Elec       q    Type
REMARK                         _______ _______ _______ _____ _____    ______ ____
ROOT
ATOM      1  C   UNL     1      87.996  66.304  86.395  0.00  0.00    +0.000 C 
ATOM      2  O   UNL     1      87.113  66.828  85.721  0.00  0.00    +0.000 OA
ENDROOT
BRANCH   1  10
ATOM      3  C   UNL     1      87.326  64.474  91.016  0.00  0.00    +0.000 C 
ATOM      4  C   UNL     1      88.733  63.891  90.729  0.00  0.00    +0.000 C 
ATOM      5  C   UNL     1      88.650  63.525  89.228  0.00  0.00    +0.000 C 
ATOM      6  C   UNL     1      87.199  63.026  89.150  0.00  0.00    +0.000 C 
ATOM      7  C   UNL     1      86.624  64.364  89.642  0.00  0.00    +0.000 C 
ATOM      8  C   UNL     1      87.269  65.400  88.725  0.00  0.00    +0.000 C 
ATOM      9  C   UNL     1      88.631  64.835  88.447  0.00  0.00    +0.000 C 
ATOM     10  C   UNL     1      87.696  65.142  87.292  0.00  0.00    +0.000 C 
ENDBRANCH   1  10
BRANCH   1  11
ATOM     11  C   UNL     1      89.438  66.759  86.345  0.00  0.00    +0.000 C 
BRANCH  11  12
ATOM     12  C   UNL     1      89.587  68.228  86.038  0.00  0.00    +0.000 A 
ATOM     13  C   UNL     1      89.894  68.659  84.741  0.00  0.00    +0.000 A 
ATOM     14  C   UNL     1      90.031  70.019  84.463  0.00  0.00    +0.000 A 
ATOM     15  C   UNL     1      89.859  70.961  85.475  0.00  0.00    +0.000 A 
ATOM     16  C   UNL     1      89.548  70.544  86.767  0.00  0.00    +0.000 A 
ATOM     17  C   UNL     1      89.409  69.184  87.049  0.00  0.00    +0.000 A 
ENDBRANCH  11  12
ENDBRANCH   1  11
TORSDOF 3
ENDMDL
