MODEL 1
REMARK VINA RESULT:      -4.5      0.000      0.000
REMARK  Name = *****
REMARK  4 active torsions:
REMARK  status: ('A' for Active; 'I' for Inactive)
REMARK    1  A    between atoms: C_1  and  C_2
REMARK    2  A    between atoms: N_8  and  C_9
REMARK    3  A    between atoms: C_9  and  C_10
REMARK    4  A    between atoms: C_9  and  C_11
REMARK                            x       y       z     vdW  Elec       q    Type
REMARK                         _______ _______ _______ _____ _____    ______ ____
ROOT
ATOM      1  C   UNL     1      89.921  67.459  86.363  0.00  0.00    +0.000 C 
ATOM      2  C   UNL     1      88.823  68.313  85.732  0.00  0.00    +0.000 C 
ATOM      3  C   UNL     1      89.074  68.609  84.251  0.00  0.00    +0.000 C 
ATOM      4  C   UNL     1      90.192  69.623  84.023  0.00  0.00    +0.000 C 
ATOM      5  C   UNL     1      89.923  70.916  84.787  0.00  0.00    +0.000 C 
ATOM      6  C   UNL     1      89.741  70.670  86.279  0.00  0.00    +0.000 C 
ATOM      7  C   UNL     1      88.667  69.622  86.509  0.00  0.00    +0.000 C 
ATOM      8  N   UNL     1      87.673  69.691  87.322  0.00  0.00    +0.000 NA
ENDROOT
BRANCH   8   9
ATOM      9  C   UNL     1      87.373  70.830  88.199  0.00  0.00    +0.000 C 
ATOM     10  C   UNL     1      87.715  70.464  89.647  0.00  0.00    +0.000 C 
BRANCH   9  11
ATOM     11  C   UNL     1      86.033  71.500  87.932  0.00  0.00    +0.000 A 
ATOM     12  C   UNL     1      85.160  71.899  88.955  0.00  0.00    +0.000 A 
ATOM     13  C   UNL     1      83.947  72.528  88.655  0.00  0.00    +0.000 A 
ATOM     14  C   UNL     1      83.594  72.775  87.331  0.00  0.00    +0.000 A 
ATOM     15  C   UNL     1      84.453  72.401  86.303  0.00  0.00    +0.000 A 
ATOM     16  C   UNL     1      85.664  71.773  86.603  0.00  0.00    +0.000 A 
ENDBRANCH   9  11
ENDBRANCH   8   9
TORSDOF 2
ENDMDL
