MODEL 1
REMARK VINA RESULT:      -4.4      0.000      0.000
REMARK  Name = *****
REMARK  4 active torsions:
REMARK  status: ('A' for Active; 'I' for Inactive)
REMARK    1  A    between atoms: C_1  and  O_2
REMARK    2  A    between atoms: O_2  and  C_3
REMARK    3  A    between atoms: C_6  and  C_9
REMARK    4  A    between atoms: C_10  and  C_11
REMARK                            x       y       z     vdW  Elec       q    Type
REMARK                         _______ _______ _______ _____ _____    ______ ____
ROOT
ATOM      1  C   UNL     1      87.030  62.597  88.270  0.00  0.00    +0.000 A 
ATOM      2  N   UNL     1      86.802  63.044  87.018  0.00  0.00    +0.000 NA
ATOM      3  C   UNL     1      87.237  64.297  86.738  0.00  0.00    +0.000 A 
ATOM      4  C   UNL     1      87.884  65.138  87.644  0.00  0.00    +0.000 A 
ATOM      5  C   UNL     1      88.113  64.625  88.922  0.00  0.00    +0.000 A 
ATOM      6  C   UNL     1      87.676  63.340  89.244  0.00  0.00    +0.000 A 
ENDROOT
BRANCH   1   8
ATOM      7  C   UNL     1      85.699  61.338  89.723  0.00  0.00    +0.000 C 
ATOM      8  O   UNL     1      86.621  61.331  88.638  0.00  0.00    +0.000 OA
ENDBRANCH   1   8
BRANCH   4   9
ATOM      9  C   UNL     1      88.342  66.464  87.214  0.00  0.00    +0.000 C 
ATOM     10  C   UNL     1      89.512  66.702  86.596  0.00  0.00    +0.000 C 
BRANCH  10  11
ATOM     11  C   UNL     1      89.966  68.078  86.170  0.00  0.00    +0.000 C 
ATOM     12  C   UNL     1      89.266  69.156  87.012  0.00  0.00    +0.000 C 
ATOM     13  C   UNL     1      89.658  70.561  86.561  0.00  0.00    +0.000 C 
ATOM     14  C   UNL     1      89.398  70.768  85.072  0.00  0.00    +0.000 C 
ATOM     15  C   UNL     1      90.083  69.699  84.227  0.00  0.00    +0.000 C 
ATOM     16  C   UNL     1      89.692  68.291  84.674  0.00  0.00    +0.000 C 
ENDBRANCH  10  11
ENDBRANCH   4   9
TORSDOF 3
ENDMDL
