MODEL 1
REMARK VINA RESULT:      -4.4      0.000      0.000
REMARK  Name = *****
REMARK  4 active torsions:
REMARK  status: ('A' for Active; 'I' for Inactive)
REMARK    1  A    between atoms: C_1  and  N_2
REMARK    2  A    between atoms: N_2  and  C_3
REMARK    3  A    between atoms: N_2  and  C_11
REMARK    4  A    between atoms: C_3  and  C_4
REMARK                            x       y       z     vdW  Elec       q    Type
REMARK                         _______ _______ _______ _____ _____    ______ ____
ROOT
ATOM      1  C   UNL     1     103.099 128.408  84.603  0.00  0.00    +0.000 C 
ATOM      2  N   UNL     1     102.548 127.821  83.387  0.00  0.00    +0.000 N 
ENDROOT
BRANCH   2   3
ATOM      3  C   UNL     1     101.169 127.840  83.163  0.00  0.00    +0.000 A 
ATOM      4  C   UNL     1     100.359 128.930  83.527  0.00  0.00    +0.000 A 
ATOM      5  C   UNL     1      98.974 128.939  83.311  0.00  0.00    +0.000 A 
ATOM      6  C   UNL     1      98.352 127.842  82.730  0.00  0.00    +0.000 A 
ATOM      7  C   UNL     1      99.116 126.739  82.373  0.00  0.00    +0.000 A 
ATOM      8  C   UNL     1     100.500 126.742  82.591  0.00  0.00    +0.000 A 
ENDBRANCH   2   3
BRANCH   2   9
ATOM      9  C   UNL     1     103.466 127.748  82.240  0.00  0.00    +0.000 C 
BRANCH   9  10
ATOM     10  C   UNL     1     103.794 126.327  81.815  0.00  0.00    +0.000 A 
ATOM     11  C   UNL     1     104.080 126.071  80.463  0.00  0.00    +0.000 A 
ATOM     12  C   UNL     1     104.415 124.784  80.034  0.00  0.00    +0.000 A 
ATOM     13  C   UNL     1     104.475 123.742  80.955  0.00  0.00    +0.000 A 
ATOM     14  C   UNL     1     104.206 123.976  82.301  0.00  0.00    +0.000 A 
ATOM     15  C   UNL     1     103.873 125.264  82.729  0.00  0.00    +0.000 A 
ATOM     16 CL   UNL     1     104.886 122.157  80.427  0.00  0.00    +0.000 Cl
ENDBRANCH   9  10
ENDBRANCH   2   9
TORSDOF 3
ENDMDL
