MODEL 1
REMARK VINA RESULT:      -3.9      0.000      0.000
REMARK  Name = *****
REMARK  3 active torsions:
REMARK  status: ('A' for Active; 'I' for Inactive)
REMARK    1  A    between atoms: C_3  and  C_5
REMARK    2  A    between atoms: C_5  and  C_6
REMARK    3  A    between atoms: C_6  and  C_7
REMARK                            x       y       z     vdW  Elec       q    Type
REMARK                         _______ _______ _______ _____ _____    ______ ____
ROOT
ATOM      1  C   UNL     1     102.030 126.035  83.169  0.00  0.00    +0.000 C 
ENDROOT
BRANCH   1   2
ATOM      2  C   UNL     1     100.930 127.066  83.138  0.00  0.00    +0.000 A 
ATOM      3  C   UNL     1     101.104 128.310  83.760  0.00  0.00    +0.000 A 
ATOM      4  C   UNL     1     100.080 129.257  83.747  0.00  0.00    +0.000 A 
ATOM      5  C   UNL     1      98.871 128.970  83.114  0.00  0.00    +0.000 A 
ATOM      6  C   UNL     1      98.686 127.734  82.497  0.00  0.00    +0.000 A 
ATOM      7  C   UNL     1      99.709 126.784  82.510  0.00  0.00    +0.000 A 
ENDBRANCH   1   2
BRANCH   1   8
ATOM      8  C   UNL     1     102.613 125.787  81.787  0.00  0.00    +0.000 C 
BRANCH   8  11
ATOM      9  C   UNL     1     104.510 128.565  80.456  0.00  0.00    +0.000 C 
ATOM     10  C   UNL     1     104.325 127.994  81.874  0.00  0.00    +0.000 C 
ATOM     11  C   UNL     1     103.414 126.959  81.236  0.00  0.00    +0.000 C 
ATOM     12  C   UNL     1     103.579 127.468  79.999  0.00  0.00    +0.000 C 
ENDBRANCH   8  11
ENDBRANCH   1   8
TORSDOF 3
ENDMDL
