REMARK  Name = *****
REMARK  3 active torsions:
REMARK  status: ('A' for Active; 'I' for Inactive)
REMARK    1  A    between atoms: C_1  and  C_2
REMARK    2  A    between atoms: C_5  and  S_8
REMARK    3  A    between atoms: S_8  and  N_10
REMARK                            x       y       z     vdW  Elec       q    Type
REMARK                         _______ _______ _______ _____ _____    ______ ____
ROOT
ATOM      1  S   UNL     1      -3.715  -0.023  -0.409  0.00  0.00    +0.000 S 
ATOM      2  O   UNL     1      -4.265  -0.860   0.713  0.00  0.00    +0.000 OA
ENDROOT
BRANCH   1   3
ATOM      3  N   UNL     1      -4.017   1.578  -0.187  0.00  0.00    +0.000 N 
ATOM      4  C   UNL     1      -4.650   2.081   0.921  0.00  0.00    +0.000 A 
ATOM      5  C   UNL     1      -4.820   3.432   0.728  0.00  0.00    +0.000 A 
ATOM      6  C   UNL     1      -4.318   3.750  -0.565  0.00  0.00    +0.000 A 
ATOM      7  C   UNL     1      -4.255   4.946  -1.308  0.00  0.00    +0.000 A 
ATOM      8  C   UNL     1      -3.718   4.930  -2.599  0.00  0.00    +0.000 A 
ATOM      9  C   UNL     1      -3.251   3.744  -3.155  0.00  0.00    +0.000 A 
ATOM     10  C   UNL     1      -3.303   2.543  -2.441  0.00  0.00    +0.000 A 
ATOM     11  C   UNL     1      -3.831   2.565  -1.136  0.00  0.00    +0.000 A 
ENDBRANCH   1   3
BRANCH   1  16
ATOM     12  C   UNL     1       2.292   0.200   0.779  0.00  0.00    +0.000 C 
ATOM     13  C   UNL     1       0.821   0.192   0.481  0.00  0.00    +0.000 A 
ATOM     14  C   UNL     1       0.355   0.084  -0.834  0.00  0.00    +0.000 A 
ATOM     15  C   UNL     1      -1.016   0.038  -1.099  0.00  0.00    +0.000 A 
ATOM     16  C   UNL     1      -1.941   0.108  -0.051  0.00  0.00    +0.000 A 
ATOM     17  C   UNL     1      -1.477   0.198   1.266  0.00  0.00    +0.000 A 
ATOM     18  C   UNL     1      -0.106   0.243   1.529  0.00  0.00    +0.000 A 
ENDBRANCH   1  16
TORSDOF 2
