MODEL 1
REMARK VINA RESULT:      -4.9      0.000      0.000
REMARK  Name = *****
REMARK  2 active torsions:
REMARK  status: ('A' for Active; 'I' for Inactive)
REMARK    1  A    between atoms: C_1  and  C_2
REMARK    2  A    between atoms: C_9  and  C_11
REMARK                            x       y       z     vdW  Elec       q    Type
REMARK                         _______ _______ _______ _____ _____    ______ ____
ROOT
ATOM      1  C   UNL     1     102.663 130.164  84.566  0.00  0.00    +0.000 C 
ATOM      2  C   UNL     1     101.456 129.434  84.076  0.00  0.00    +0.000 A 
ATOM      3  C   UNL     1     101.496 128.222  83.386  0.00  0.00    +0.000 A 
ATOM      4  C   UNL     1     100.387 127.531  82.922  0.00  0.00    +0.000 A 
ATOM      5  C   UNL     1      99.112 128.061  83.144  0.00  0.00    +0.000 A 
ATOM      6  C   UNL     1      99.015 129.278  83.832  0.00  0.00    +0.000 A 
ATOM      7  C   UNL     1     100.160 129.946  84.286  0.00  0.00    +0.000 A 
ATOM      8  N   UNL     1     100.784 126.380  82.288  0.00  0.00    +0.000 NA
ATOM      9  C   UNL     1     102.101 126.404  82.386  0.00  0.00    +0.000 A 
ATOM     10  O   UNL     1     102.603 127.500  83.043  0.00  0.00    +0.000 OA
ENDROOT
BRANCH   9  11
ATOM     11  C   UNL     1     103.075 125.434  81.890  0.00  0.00    +0.000 A 
ATOM     12  C   UNL     1     103.603 124.473  82.766  0.00  0.00    +0.000 A 
ATOM     13  C   UNL     1     104.536 123.531  82.322  0.00  0.00    +0.000 A 
ATOM     14  C   UNL     1     104.950 123.542  80.993  0.00  0.00    +0.000 A 
ATOM     15  C   UNL     1     104.439 124.487  80.106  0.00  0.00    +0.000 A 
ATOM     16  C   UNL     1     103.505 125.428  80.553  0.00  0.00    +0.000 A 
ATOM     17 CL   UNL     1     106.098 122.386  80.443  0.00  0.00    +0.000 Cl
ENDBRANCH   9  11
TORSDOF 1
ENDMDL
