MODEL 1
REMARK VINA RESULT:      -4.3      0.000      0.000
REMARK  Name = *****
REMARK  3 active torsions:
REMARK  status: ('A' for Active; 'I' for Inactive)
REMARK    1  A    between atoms: C_2  and  C_7
REMARK    2  A    between atoms: C_7  and  O_9
REMARK    3  A    between atoms: O_9  and  C_10
REMARK                            x       y       z     vdW  Elec       q    Type
REMARK                         _______ _______ _______ _____ _____    ______ ____
ROOT
ATOM      1  C   UNL     1      89.734  66.628  86.439  0.00  0.00    +0.000 A 
ATOM      2  C   UNL     1      90.442  65.614  85.800  0.00  0.00    +0.000 A 
ATOM      3  C   UNL     1      89.899  64.338  85.718  0.00  0.00    +0.000 A 
ATOM      4  C   UNL     1      88.655  64.074  86.282  0.00  0.00    +0.000 A 
ATOM      5  C   UNL     1      87.954  65.084  86.933  0.00  0.00    +0.000 A 
ATOM      6  C   UNL     1      88.496  66.361  87.017  0.00  0.00    +0.000 A 
ATOM      7  F   UNL     1      87.831  67.335  87.655  0.00  0.00    +0.000 F 
ATOM      8  F   UNL     1      86.763  64.822  87.489  0.00  0.00    +0.000 F 
ATOM      9  F   UNL     1      88.137  62.841  86.209  0.00  0.00    +0.000 F 
ATOM     10  F   UNL     1      90.581  63.359  85.107  0.00  0.00    +0.000 F 
ATOM     11  F   UNL     1      91.646  65.873  85.270  0.00  0.00    +0.000 F 
ENDROOT
BRANCH   1  12
ATOM     12  O   UNL     1      90.289  67.903  86.534  0.00  0.00    +0.000 OA
BRANCH  12  13
ATOM     13  C   UNL     1      89.818  68.726  85.517  0.00  0.00    +0.000 C 
ATOM     14  O   UNL     1      89.405  68.355  84.427  0.00  0.00    +0.000 OA
BRANCH  13  16
ATOM     15  C   UNL     1      89.318  70.347  87.384  0.00  0.00    +0.000 C 
ATOM     16  C   UNL     1      89.884  70.170  85.977  0.00  0.00    +0.000 C 
ATOM     17  C   UNL     1      89.116  71.085  85.041  0.00  0.00    +0.000 C 
ATOM     18  S   UNL     1      87.395  70.996  85.598  0.00  0.00    +0.000 S 
ATOM     19  C   UNL     1      87.833  70.545  87.239  0.00  0.00    +0.000 C 
ATOM     20  O   UNL     1      87.027  70.496  88.153  0.00  0.00    +0.000 OA
ENDBRANCH  13  16
ENDBRANCH  12  13
ENDBRANCH   1  12
TORSDOF 3
ENDMDL
