REMARK  Name = *****
REMARK  3 active torsions:
REMARK  status: ('A' for Active; 'I' for Inactive)
REMARK    1  A    between atoms: C_1  and  C_2
REMARK    2  A    between atoms: C_3  and  N_9
REMARK    3  A    between atoms: C_10  and  C_11
REMARK                            x       y       z     vdW  Elec       q    Type
REMARK                         _______ _______ _______ _____ _____    ______ ____
ROOT
ATOM      1  C   UNL     1      -2.848   1.337   0.220  0.00  0.00    +0.000 C 
ATOM      2  C   UNL     1      -1.687   0.411  -0.009  0.00  0.00    +0.000 A 
ATOM      3  C   UNL     1      -1.891  -0.883  -0.521  0.00  0.00    +0.000 A 
ATOM      4  C   UNL     1      -0.790  -1.718  -0.753  0.00  0.00    +0.000 A 
ATOM      5  C   UNL     1       0.504  -1.291  -0.451  0.00  0.00    +0.000 A 
ATOM      6  C   UNL     1       0.701  -0.019   0.077  0.00  0.00    +0.000 A 
ATOM      7  C   UNL     1      -0.383   0.831   0.298  0.00  0.00    +0.000 A 
ATOM      8 CL   UNL     1       2.294   0.511   0.456  0.00  0.00    +0.000 Cl
ENDROOT
BRANCH   3   9
ATOM      9  N   UNL     1      -3.178  -1.340  -0.845  0.00  0.00    +0.000 NA
ATOM     10  C   UNL     1      -3.776  -2.042   0.066  0.00  0.00    +0.000 C 
BRANCH  10  11
ATOM     11  C   UNL     1      -5.133  -2.585  -0.131  0.00  0.00    +0.000 A 
ATOM     12  C   UNL     1      -5.833  -2.352  -1.318  0.00  0.00    +0.000 A 
ATOM     13  C   UNL     1      -7.116  -2.876  -1.481  0.00  0.00    +0.000 A 
ATOM     14  C   UNL     1      -7.696  -3.630  -0.460  0.00  0.00    +0.000 A 
ATOM     15  C   UNL     1      -6.996  -3.862   0.725  0.00  0.00    +0.000 A 
ATOM     16  C   UNL     1      -5.713  -3.340   0.893  0.00  0.00    +0.000 A 
ENDBRANCH  10  11
ENDBRANCH   3   9
TORSDOF 2
