MODEL 1
REMARK VINA RESULT:      -4.6      0.000      0.000
REMARK  Name = *****
REMARK  5 active torsions:
REMARK  status: ('A' for Active; 'I' for Inactive)
REMARK    1  A    between atoms: C_1  and  C_2
REMARK    2  A    between atoms: C_4  and  O_8
REMARK    3  A    between atoms: O_8  and  P_9
REMARK    4  A    between atoms: P_9  and  O_10
REMARK    5  A    between atoms: O_10  and  C_11
REMARK                            x       y       z     vdW  Elec       q    Type
REMARK                         _______ _______ _______ _____ _____    ______ ____
ROOT
ATOM      1  P   UNL     1      89.193  69.603  85.853  0.00  0.00    +0.000 P 
ATOM      2  F   UNL     1      90.318  70.686  85.650  0.00  0.00    +0.000 F 
ENDROOT
BRANCH   1   3
ATOM      3  O   UNL     1      90.031  68.457  86.628  0.00  0.00    +0.000 OA
BRANCH   3   7
ATOM      4  C   UNL     1      91.879  64.290  84.641  0.00  0.00    +0.000 C 
ATOM      5  C   UNL     1      90.824  65.040  85.400  0.00  0.00    +0.000 A 
ATOM      6  C   UNL     1      90.956  66.420  85.620  0.00  0.00    +0.000 A 
ATOM      7  C   UNL     1      89.990  67.115  86.354  0.00  0.00    +0.000 A 
ATOM      8  C   UNL     1      88.909  66.422  86.904  0.00  0.00    +0.000 A 
ATOM      9  C   UNL     1      88.778  65.049  86.703  0.00  0.00    +0.000 A 
ATOM     10  C   UNL     1      89.734  64.360  85.957  0.00  0.00    +0.000 A 
ENDBRANCH   3   7
ENDBRANCH   1   3
BRANCH   1  11
ATOM     11  O   UNL     1      88.424  70.227  87.128  0.00  0.00    +0.000 OA
BRANCH  11  12
ATOM     12  C   UNL     1      87.228  70.900  87.120  0.00  0.00    +0.000 A 
ATOM     13  C   UNL     1      86.723  71.196  85.850  0.00  0.00    +0.000 A 
ATOM     14  C   UNL     1      85.512  71.876  85.708  0.00  0.00    +0.000 A 
ATOM     15  C   UNL     1      84.797  72.262  86.839  0.00  0.00    +0.000 A 
ATOM     16  C   UNL     1      85.293  71.969  88.108  0.00  0.00    +0.000 A 
ATOM     17  C   UNL     1      86.506  71.289  88.251  0.00  0.00    +0.000 A 
ENDBRANCH  11  12
ENDBRANCH   1  11
TORSDOF 4
ENDMDL
