REMARK  Name = *****
REMARK  2 active torsions:
REMARK  status: ('A' for Active; 'I' for Inactive)
REMARK    1  A    between atoms: C_6  and  C_7
REMARK    2  A    between atoms: N_8  and  C_9
REMARK                            x       y       z     vdW  Elec       q    Type
REMARK                         _______ _______ _______ _____ _____    ______ ____
ROOT
ATOM      1  C   UNL     1      -3.300  -1.449  -0.118  0.00  0.00    +0.000 C 
ATOM      2  N   UNL     1      -3.412  -2.747  -0.087  0.00  0.00    +0.000 NA
ENDROOT
BRANCH   1   8
ATOM      3  C   UNL     1      -2.037   0.687   0.019  0.00  0.00    +0.000 A 
ATOM      4  C   UNL     1      -0.837   1.402   0.069  0.00  0.00    +0.000 A 
ATOM      5  C   UNL     1       0.371   0.711   0.059  0.00  0.00    +0.000 A 
ATOM      6  C   UNL     1       0.387  -0.680   0.007  0.00  0.00    +0.000 A 
ATOM      7  C   UNL     1      -0.801  -1.404  -0.038  0.00  0.00    +0.000 A 
ATOM      8  C   UNL     1      -2.015  -0.719  -0.037  0.00  0.00    +0.000 A 
ATOM      9  F   UNL     1       1.555  -1.337  -0.008  0.00  0.00    +0.000 F 
ATOM     10  F   UNL     1       1.520   1.398   0.099  0.00  0.00    +0.000 F 
ENDBRANCH   1   8
BRANCH   2  11
ATOM     11  C   UNL     1      -4.737  -3.270  -0.160  0.00  0.00    +0.000 A 
ATOM     12  C   UNL     1      -5.777  -2.778   0.574  0.00  0.00    +0.000 A 
ATOM     13  C   UNL     1      -6.922  -3.516   0.533  0.00  0.00    +0.000 A 
ATOM     14  C   UNL     1      -6.925  -4.719  -0.237  0.00  0.00    +0.000 A 
ATOM     15  C   UNL     1      -6.260  -4.958  -1.442  0.00  0.00    +0.000 A 
ATOM     16  C   UNL     1      -5.064  -4.399  -1.027  0.00  0.00    +0.000 A 
ATOM     17  F   UNL     1      -7.436  -5.470  -1.820  0.00  0.00    +0.000 F 
ATOM     18  F   UNL     1      -5.693  -1.657   1.306  0.00  0.00    +0.000 F 
ENDBRANCH   2  11
TORSDOF 2
