MODEL 1
REMARK VINA RESULT:      -4.7      0.000      0.000
REMARK  Name = *****
REMARK  2 active torsions:
REMARK  status: ('A' for Active; 'I' for Inactive)
REMARK    1  A    between atoms: C_4  and  N_7
REMARK    2  A    between atoms: C_8  and  C_9
REMARK                            x       y       z     vdW  Elec       q    Type
REMARK                         _______ _______ _______ _____ _____    ______ ____
ROOT
ATOM      1  N   UNL     1     102.681 126.100  81.710  0.00  0.00    +0.000 NA
ATOM      2  C   UNL     1     101.834 126.093  82.691  0.00  0.00    +0.000 C 
ENDROOT
BRANCH   2   3
ATOM      3  C   UNL     1     100.879 127.184  82.929  0.00  0.00    +0.000 A 
ATOM      4  C   UNL     1      99.544 127.132  82.529  0.00  0.00    +0.000 A 
ATOM      5  C   UNL     1      98.684 128.201  82.782  0.00  0.00    +0.000 A 
ATOM      6  C   UNL     1      99.152 129.338  83.442  0.00  0.00    +0.000 A 
ATOM      7  C   UNL     1     100.484 129.400  83.845  0.00  0.00    +0.000 A 
ATOM      8  C   UNL     1     101.337 128.326  83.587  0.00  0.00    +0.000 A 
ATOM      9  F   UNL     1     102.613 128.417  83.989  0.00  0.00    +0.000 F 
ATOM     10  F   UNL     1      99.042 126.068  81.890  0.00  0.00    +0.000 F 
ENDBRANCH   2   3
BRANCH   1  14
ATOM     11  C   UNL     1     105.233 122.772  81.457  0.00  0.00    +0.000 A 
ATOM     12  C   UNL     1     104.960 123.528  80.318  0.00  0.00    +0.000 A 
ATOM     13  C   UNL     1     104.111 124.634  80.402  0.00  0.00    +0.000 A 
ATOM     14  C   UNL     1     103.524 124.984  81.620  0.00  0.00    +0.000 A 
ATOM     15  C   UNL     1     103.816 124.233  82.760  0.00  0.00    +0.000 A 
ATOM     16  C   UNL     1     104.664 123.126  82.681  0.00  0.00    +0.000 A 
ENDBRANCH   1  14
TORSDOF 2
ENDMDL
