MODEL 1
REMARK VINA RESULT:      -4.4      0.000      0.000
REMARK  Name = *****
REMARK  3 active torsions:
REMARK  status: ('A' for Active; 'I' for Inactive)
REMARK    1  A    between atoms: C_2  and  C_10
REMARK    2  A    between atoms: C_10  and  S_12
REMARK    3  A    between atoms: S_12  and  C_13
REMARK                            x       y       z     vdW  Elec       q    Type
REMARK                         _______ _______ _______ _____ _____    ______ ____
ROOT
ATOM      1  C   UNL     1      87.991  66.393  85.657  0.00  0.00    +0.000 C 
ATOM      2  C   UNL     1      88.590  67.794  85.432  0.00  0.00    +0.000 C 
ATOM      3  C   UNL     1      89.717  67.972  86.453  0.00  0.00    +0.000 C 
ATOM      4  O   UNL     1      90.715  66.969  86.304  0.00  0.00    +0.000 OA
ATOM      5  P   UNL     1      90.473  65.849  85.162  0.00  0.00    +0.000 P 
ATOM      6  S   UNL     1      91.811  64.486  84.970  0.00  0.00    +0.000 S 
ATOM      7  O   UNL     1      88.973  65.372  85.526  0.00  0.00    +0.000 OA
ATOM      8  O   UNL     1      90.180  66.784  83.875  0.00  0.00    +0.000 OA
ATOM      9  C   UNL     1      89.200  67.803  84.026  0.00  0.00    +0.000 C 
ENDROOT
BRANCH   2  10
ATOM     10  C   UNL     1      87.501  68.843  85.605  0.00  0.00    +0.000 C 
ATOM     11  O   UNL     1      86.306  68.568  85.576  0.00  0.00    +0.000 OA
BRANCH  10  12
ATOM     12  S   UNL     1      88.032  70.514  85.824  0.00  0.00    +0.000 S 
BRANCH  12  13
ATOM     13  C   UNL     1      86.584  71.237  86.566  0.00  0.00    +0.000 A 
ATOM     14  C   UNL     1      86.451  71.232  87.959  0.00  0.00    +0.000 A 
ATOM     15  C   UNL     1      85.336  71.815  88.563  0.00  0.00    +0.000 A 
ATOM     16  C   UNL     1      84.351  72.414  87.781  0.00  0.00    +0.000 A 
ATOM     17  C   UNL     1      84.482  72.434  86.393  0.00  0.00    +0.000 A 
ATOM     18  C   UNL     1      85.597  71.849  85.787  0.00  0.00    +0.000 A 
ENDBRANCH  12  13
ENDBRANCH  10  12
ENDBRANCH   2  10
TORSDOF 3
ENDMDL
