MODEL 1
REMARK VINA RESULT:      -5.0      0.000      0.000
REMARK  Name = *****
REMARK  4 active torsions:
REMARK  status: ('A' for Active; 'I' for Inactive)
REMARK    1  A    between atoms: C_3  and  C_8
REMARK    2  A    between atoms: C_8  and  C_9
REMARK    3  A    between atoms: C_9  and  C_10
REMARK    4  A    between atoms: C_10  and  C_12
REMARK                            x       y       z     vdW  Elec       q    Type
REMARK                         _______ _______ _______ _____ _____    ______ ____
ROOT
ATOM      1  C   UNL     1      99.356 127.372  82.745  0.00  0.00    +0.000 C 
ATOM      2  O   UNL     1      98.330 127.139  82.107  0.00  0.00    +0.000 OA
ENDROOT
BRANCH   1   3
ATOM      3  C   UNL     1      99.324 128.455  83.774  0.00  0.00    +0.000 A 
ATOM      4  C   UNL     1      99.312 128.205  85.150  0.00  0.00    +0.000 A 
ATOM      5  C   UNL     1      99.280 129.250  86.071  0.00  0.00    +0.000 A 
ATOM      6  C   UNL     1      99.260 130.560  85.612  0.00  0.00    +0.000 A 
ATOM      7  C   UNL     1      99.273 130.841  84.252  0.00  0.00    +0.000 A 
ATOM      8  C   UNL     1      99.305 129.789  83.332  0.00  0.00    +0.000 A 
ATOM      9  F   UNL     1      99.230 131.567  86.493  0.00  0.00    +0.000 F 
ATOM     10  F   UNL     1      99.330 126.956  85.636  0.00  0.00    +0.000 F 
ENDBRANCH   1   3
BRANCH   1  11
ATOM     11  C   UNL     1     100.637 126.592  82.515  0.00  0.00    +0.000 C 
BRANCH  11  12
ATOM     12  C   UNL     1     101.866 127.500  82.564  0.00  0.00    +0.000 C 
BRANCH  12  15
ATOM     13  C   UNL     1     104.968 127.362  80.346  0.00  0.00    +0.000 A 
ATOM     14  C   UNL     1     103.950 127.844  81.174  0.00  0.00    +0.000 A 
ATOM     15  C   UNL     1     102.976 126.975  81.687  0.00  0.00    +0.000 A 
ATOM     16  C   UNL     1     103.032 125.617  81.349  0.00  0.00    +0.000 A 
ATOM     17  C   UNL     1     104.049 125.148  80.524  0.00  0.00    +0.000 A 
ATOM     18  C   UNL     1     105.017 126.008  80.019  0.00  0.00    +0.000 A 
ATOM     19  F   UNL     1     104.095 123.848  80.208  0.00  0.00    +0.000 F 
ENDBRANCH  12  15
ENDBRANCH  11  12
ENDBRANCH   1  11
TORSDOF 4
ENDMDL
