REMARK  Name = *****
REMARK  1 active torsions:
REMARK  status: ('A' for Active; 'I' for Inactive)
REMARK    1  A    between atoms: C_3  and  C_13
REMARK                            x       y       z     vdW  Elec       q    Type
REMARK                         _______ _______ _______ _____ _____    ______ ____
ROOT
ATOM      1  C   UNL     1       0.823   0.365   0.049  0.00  0.00    +0.000 C 
ATOM      2  C   UNL     1       2.160   0.222   0.043  0.00  0.00    +0.000 C 
ATOM      3  C   UNL     1       2.926  -1.083  -0.072  0.00  0.00    +0.000 C 
ATOM      4  O   UNL     1       3.926  -1.165   0.968  0.00  0.00    +0.000 OA
ATOM      5  C   UNL     1       4.745  -0.124   1.233  0.00  0.00    +0.000 C 
ATOM      6  O   UNL     1       5.764  -0.257   1.899  0.00  0.00    +0.000 OA
ATOM      7  C   UNL     1       4.336   1.198   0.705  0.00  0.00    +0.000 A 
ATOM      8  C   UNL     1       5.237   2.270   0.810  0.00  0.00    +0.000 A 
ATOM      9  C   UNL     1       4.877   3.535   0.349  0.00  0.00    +0.000 A 
ATOM     10  C   UNL     1       3.621   3.731  -0.216  0.00  0.00    +0.000 A 
ATOM     11  C   UNL     1       2.721   2.665  -0.316  0.00  0.00    +0.000 A 
ATOM     12  C   UNL     1       3.062   1.387   0.156  0.00  0.00    +0.000 A 
ENDROOT
BRANCH   3  13
ATOM     13  C   UNL     1       2.111  -2.407  -0.038  0.00  0.00    +0.000 C 
ATOM     14  C   UNL     1       1.524  -2.722   1.355  0.00  0.00    +0.000 C 
ATOM     15  C   UNL     1       0.739  -4.033   1.350  0.00  0.00    +0.000 C 
ATOM     16  C   UNL     1       1.597  -5.197   0.867  0.00  0.00    +0.000 C 
ATOM     17  C   UNL     1       2.220  -4.907  -0.494  0.00  0.00    +0.000 C 
ATOM     18  C   UNL     1       2.994  -3.590  -0.490  0.00  0.00    +0.000 C 
ENDBRANCH   3  13
TORSDOF 1
