MODEL 1
REMARK VINA RESULT:      -4.4      0.000      0.000
REMARK  Name = *****
REMARK  5 active torsions:
REMARK  status: ('A' for Active; 'I' for Inactive)
REMARK    1  A    between atoms: C_1  and  C_2
REMARK    2  A    between atoms: C_5  and  C_8
REMARK    3  A    between atoms: C_8  and  O_9
REMARK    4  A    between atoms: O_9  and  C_10
REMARK    5  A    between atoms: C_10  and  C_12
REMARK                            x       y       z     vdW  Elec       q    Type
REMARK                         _______ _______ _______ _____ _____    ______ ____
ROOT
ATOM      1  C   UNL     1     101.606 127.284  82.690  0.00  0.00    +0.000 C 
ENDROOT
BRANCH   1   6
ATOM      2  C   UNL     1     105.150 123.145  80.637  0.00  0.00    +0.000 C 
ATOM      3  C   UNL     1     104.210 124.192  81.157  0.00  0.00    +0.000 A 
ATOM      4  C   UNL     1     103.840 124.205  82.506  0.00  0.00    +0.000 A 
ATOM      5  C   UNL     1     102.992 125.198  83.000  0.00  0.00    +0.000 A 
ATOM      6  C   UNL     1     102.501 126.199  82.153  0.00  0.00    +0.000 A 
ATOM      7  C   UNL     1     102.894 126.201  80.807  0.00  0.00    +0.000 A 
ATOM      8  C   UNL     1     103.742 125.207  80.315  0.00  0.00    +0.000 A 
ENDBRANCH   1   6
BRANCH   1   9
ATOM      9  O   UNL     1     100.380 126.706  83.148  0.00  0.00    +0.000 OA
BRANCH   9  10
ATOM     10  C   UNL     1      99.249 127.414  82.861  0.00  0.00    +0.000 C 
ATOM     11  O   UNL     1      98.433 127.092  82.005  0.00  0.00    +0.000 OA
BRANCH  10  12
ATOM     12  C   UNL     1      99.186 128.588  83.713  0.00  0.00    +0.000 A 
ATOM     13  C   UNL     1      99.354 129.924  83.390  0.00  0.00    +0.000 A 
ATOM     14  C   UNL     1      99.214 130.784  84.519  0.00  0.00    +0.000 A 
ATOM     15  C   UNL     1      98.944 130.080  85.670  0.00  0.00    +0.000 A 
ATOM     16  S   UNL     1      98.861 128.396  85.387  0.00  0.00    +0.000 S 
ENDBRANCH  10  12
ENDBRANCH   9  10
ENDBRANCH   1   9
TORSDOF 4
ENDMDL
