MODEL 1
REMARK VINA RESULT:      -4.8      0.000      0.000
REMARK  Name = *****
REMARK  4 active torsions:
REMARK  status: ('A' for Active; 'I' for Inactive)
REMARK    1  A    between atoms: C_1  and  C_2
REMARK    2  A    between atoms: C_2  and  C_3
REMARK    3  A    between atoms: C_8  and  C_9
REMARK    4  A    between atoms: C_10  and  C_11
REMARK                            x       y       z     vdW  Elec       q    Type
REMARK                         _______ _______ _______ _____ _____    ______ ____
ROOT
ATOM      1  C   UNL     1     101.423 128.105  83.396  0.00  0.00    +0.000 A 
ATOM      2  C   UNL     1     100.425 129.058  83.674  0.00  0.00    +0.000 A 
ATOM      3  C   UNL     1      99.100 128.841  83.296  0.00  0.00    +0.000 A 
ATOM      4  C   UNL     1      98.750 127.672  82.630  0.00  0.00    +0.000 A 
ATOM      5  C   UNL     1      99.727 126.719  82.339  0.00  0.00    +0.000 A 
ATOM      6  C   UNL     1     101.066 126.925  82.712  0.00  0.00    +0.000 A 
ENDROOT
BRANCH   1   8
ATOM      7  C   UNL     1     103.030 129.878  84.168  0.00  0.00    +0.000 C 
ATOM      8  C   UNL     1     102.846 128.412  83.805  0.00  0.00    +0.000 C 
ENDBRANCH   1   8
BRANCH   6   9
ATOM      9  C   UNL     1     102.053 125.887  82.390  0.00  0.00    +0.000 C 
ATOM     10  C   UNL     1     102.836 125.965  81.302  0.00  0.00    +0.000 C 
BRANCH  10  11
ATOM     11  C   UNL     1     103.852 124.962  80.958  0.00  0.00    +0.000 A 
ATOM     12  C   UNL     1     104.651 125.071  79.812  0.00  0.00    +0.000 A 
ATOM     13  C   UNL     1     105.628 124.113  79.534  0.00  0.00    +0.000 A 
ATOM     14  C   UNL     1     105.823 123.041  80.403  0.00  0.00    +0.000 A 
ATOM     15  C   UNL     1     105.046 122.930  81.554  0.00  0.00    +0.000 A 
ATOM     16  C   UNL     1     104.070 123.889  81.833  0.00  0.00    +0.000 A 
ENDBRANCH  10  11
ENDBRANCH   6   9
TORSDOF 3
ENDMDL
