MODEL 1
REMARK VINA RESULT:      -5.0      0.000      0.000
REMARK  Name = *****
REMARK  2 active torsions:
REMARK  status: ('A' for Active; 'I' for Inactive)
REMARK    1  A    between atoms: C_9  and  C_10
REMARK    2  A    between atoms: C_10  and  C_11
REMARK                            x       y       z     vdW  Elec       q    Type
REMARK                         _______ _______ _______ _____ _____    ______ ____
ROOT
ATOM      1  C   UNL     1      86.799  71.509  89.456  0.00  0.00    +0.000 C 
ATOM      2  C   UNL     1      85.314  71.890  89.357  0.00  0.00    +0.000 C 
ATOM      3  C   UNL     1      85.150  72.018  87.876  0.00  0.00    +0.000 A 
ATOM      4  C   UNL     1      84.121  72.636  87.186  0.00  0.00    +0.000 A 
ATOM      5  C   UNL     1      84.149  72.609  85.790  0.00  0.00    +0.000 A 
ATOM      6  C   UNL     1      85.191  71.959  85.107  0.00  0.00    +0.000 A 
ATOM      7  C   UNL     1      86.218  71.327  85.812  0.00  0.00    +0.000 A 
ATOM      8  C   UNL     1      86.185  71.364  87.197  0.00  0.00    +0.000 A 
ATOM      9  C   UNL     1      87.155  70.735  88.165  0.00  0.00    +0.000 C 
ENDROOT
BRANCH   9  10
ATOM     10  C   UNL     1      86.930  69.218  88.268  0.00  0.00    +0.000 C 
BRANCH  10  11
ATOM     11  C   UNL     1      87.972  68.402  87.539  0.00  0.00    +0.000 A 
ATOM     12  C   UNL     1      87.880  67.004  87.507  0.00  0.00    +0.000 A 
ATOM     13  C   UNL     1      88.845  66.258  86.836  0.00  0.00    +0.000 A 
ATOM     14  C   UNL     1      89.907  66.876  86.188  0.00  0.00    +0.000 A 
ATOM     15  C   UNL     1      90.006  68.266  86.209  0.00  0.00    +0.000 A 
ATOM     16  C   UNL     1      89.041  69.025  86.878  0.00  0.00    +0.000 A 
ATOM     17  F   UNL     1      88.748  64.922  86.815  0.00  0.00    +0.000 F 
ENDBRANCH  10  11
ENDBRANCH   9  10
TORSDOF 2
ENDMDL
