MODEL 1
REMARK VINA RESULT:      -5.0      0.000      0.000
REMARK  Name = *****
REMARK  3 active torsions:
REMARK  status: ('A' for Active; 'I' for Inactive)
REMARK    1  A    between atoms: C_4  and  C_7
REMARK    2  A    between atoms: C_8  and  C_9
REMARK    3  A    between atoms: C_8  and  C_11
REMARK                            x       y       z     vdW  Elec       q    Type
REMARK                         _______ _______ _______ _____ _____    ______ ____
ROOT
ATOM      1  C   UNL     1     101.767 125.936  82.678  0.00  0.00    +0.000 C 
ATOM      2  C   UNL     1     102.929 125.978  81.995  0.00  0.00    +0.000 C 
ENDROOT
BRANCH   2   3
ATOM      3  C   UNL     1     103.734 124.744  81.899  0.00  0.00    +0.000 A 
ATOM      4  C   UNL     1     104.224 124.304  80.660  0.00  0.00    +0.000 A 
ATOM      5  C   UNL     1     104.978 123.142  80.547  0.00  0.00    +0.000 A 
ATOM      6  C   UNL     1     105.245 122.403  81.690  0.00  0.00    +0.000 A 
ATOM      7  C   UNL     1     104.773 122.808  82.936  0.00  0.00    +0.000 A 
ATOM      8  C   UNL     1     104.016 123.978  83.042  0.00  0.00    +0.000 A 
ATOM      9  F   UNL     1     105.972 121.282  81.596  0.00  0.00    +0.000 F 
ATOM     10  F   UNL     1     103.984 125.019  79.549  0.00  0.00    +0.000 F 
ENDBRANCH   2   3
BRANCH   1  14
ATOM     11  C   UNL     1      99.121 129.215  83.374  0.00  0.00    +0.000 A 
ATOM     12  C   UNL     1      98.650 128.077  82.723  0.00  0.00    +0.000 A 
ATOM     13  C   UNL     1      99.507 127.000  82.485  0.00  0.00    +0.000 A 
ATOM     14  C   UNL     1     100.846 127.060  82.889  0.00  0.00    +0.000 A 
ATOM     15  C   UNL     1     101.308 128.201  83.553  0.00  0.00    +0.000 A 
ATOM     16  C   UNL     1     100.449 129.278  83.791  0.00  0.00    +0.000 A 
ENDBRANCH   1  14
BRANCH   2  17
ATOM     17  C   UNL     1     103.432 127.170  81.383  0.00  0.00    +0.000 C 
ATOM     18  N   UNL     1     103.868 128.119  80.875  0.00  0.00    +0.000 NA
ENDBRANCH   2  17
TORSDOF 3
ENDMDL
