MODEL 1
REMARK VINA RESULT:      -4.5      0.000      0.000
REMARK  Name = *****
REMARK  4 active torsions:
REMARK  status: ('A' for Active; 'I' for Inactive)
REMARK    1  A    between atoms: C_1  and  N_2
REMARK    2  A    between atoms: N_2  and  C_3
REMARK    3  A    between atoms: N_2  and  C_10
REMARK    4  A    between atoms: C_3  and  C_4
REMARK                            x       y       z     vdW  Elec       q    Type
REMARK                         _______ _______ _______ _____ _____    ______ ____
ROOT
ATOM      1  C   UNL     1      85.861  64.658  87.101  0.00  0.00    +0.000 C 
ATOM      2  N   UNL     1      87.005  64.559  88.001  0.00  0.00    +0.000 N 
ATOM      3  H   UNL     1      87.476  63.711  87.686  0.00  0.00    +0.000 HD
ENDROOT
BRANCH   2   4
ATOM      4  C   UNL     1      86.714  64.268  89.463  0.00  0.00    +0.000 C 
ATOM      5  C   UNL     1      85.639  65.101  90.128  0.00  0.00    +0.000 C 
ATOM      6  C   UNL     1      84.364  64.294  90.494  0.00  0.00    +0.000 C 
ATOM      7  C   UNL     1      83.895  63.193  89.514  0.00  0.00    +0.000 C 
ATOM      8  C   UNL     1      84.632  61.828  89.555  0.00  0.00    +0.000 C 
ATOM      9  C   UNL     1      86.159  61.822  89.318  0.00  0.00    +0.000 C 
ATOM     10  C   UNL     1      86.739  62.895  90.143  0.00  0.00    +0.000 C 
ATOM     11  C   UNL     1      87.962  63.696  90.137  0.00  0.00    +0.000 C 
ATOM     12  F   UNL     1      89.059  63.277  89.419  0.00  0.00    +0.000 F 
ATOM     13  F   UNL     1      88.429  64.275  91.295  0.00  0.00    +0.000 F 
ENDBRANCH   2   4
BRANCH   2  14
ATOM     14  C   UNL     1      87.903  65.727  87.855  0.00  0.00    +0.000 C 
BRANCH  14  15
ATOM     15  C   UNL     1      89.055  65.488  86.903  0.00  0.00    +0.000 A 
ATOM     16  C   UNL     1      89.875  66.549  86.491  0.00  0.00    +0.000 A 
ATOM     17  C   UNL     1      90.946  66.320  85.623  0.00  0.00    +0.000 A 
ATOM     18  C   UNL     1      91.210  65.031  85.164  0.00  0.00    +0.000 A 
ATOM     19  C   UNL     1      90.406  63.968  85.571  0.00  0.00    +0.000 A 
ATOM     20  C   UNL     1      89.337  64.194  86.438  0.00  0.00    +0.000 A 
ENDBRANCH  14  15
ENDBRANCH   2  14
TORSDOF 3
ENDMDL
