MODEL 1
REMARK VINA RESULT:      -3.7      0.000      0.000
REMARK  Name = *****
REMARK  3 active torsions:
REMARK  status: ('A' for Active; 'I' for Inactive)
REMARK    1  A    between atoms: C_4  and  C_5
REMARK    2  A    between atoms: C_5  and  C_6
REMARK    3  A    between atoms: C_6  and  C_7
REMARK                            x       y       z     vdW  Elec       q    Type
REMARK                         _______ _______ _______ _____ _____    ______ ____
ROOT
ATOM      1  C   UNL     1     102.021 128.000  83.752  0.00  0.00    +0.000 C 
ENDROOT
BRANCH   1   5
ATOM      2  C   UNL     1      99.793 126.795  82.577  0.00  0.00    +0.000 C 
ATOM      3  C   UNL     1      98.614 127.780  82.565  0.00  0.00    +0.000 C 
ATOM      4  C   UNL     1      99.554 128.763  83.230  0.00  0.00    +0.000 C 
ATOM      5  C   UNL     1     100.589 127.898  83.248  0.00  0.00    +0.000 C 
ATOM      6 CL   UNL     1      99.364 130.395  83.771  0.00  0.00    +0.000 Cl
ENDBRANCH   1   5
BRANCH   1   7
ATOM      7  C   UNL     1     103.031 128.331  82.680  0.00  0.00    +0.000 C 
BRANCH   7   8
ATOM      8  C   UNL     1     103.268 127.206  81.682  0.00  0.00    +0.000 C 
ATOM      9  C   UNL     1     103.371 125.867  81.809  0.00  0.00    +0.000 C 
ATOM     10  C   UNL     1     103.595 125.643  80.329  0.00  0.00    +0.000 C 
ATOM     11  C   UNL     1     103.479 127.169  80.180  0.00  0.00    +0.000 C 
ATOM     12 CL   UNL     1     103.282 124.796  83.165  0.00  0.00    +0.000 Cl
ENDBRANCH   7   8
ENDBRANCH   1   7
TORSDOF 3
ENDMDL
