REMARK  Name = *****
REMARK  2 active torsions:
REMARK  status: ('A' for Active; 'I' for Inactive)
REMARK    1  A    between atoms: C_5  and  C_7
REMARK    2  A    between atoms: C_8  and  C_9
REMARK                            x       y       z     vdW  Elec       q    Type
REMARK                         _______ _______ _______ _____ _____    ______ ____
ROOT
ATOM      1  C   UNL     1      -1.896  -1.828  -0.890  0.00  0.00    +0.000 C 
ATOM      2  C   UNL     1      -2.920  -2.607  -0.501  0.00  0.00    +0.000 C 
ENDROOT
BRANCH   2   3
ATOM      3  C   UNL     1      -3.718  -3.463  -1.395  0.00  0.00    +0.000 A 
ATOM      4  C   UNL     1      -3.178  -4.067  -2.539  0.00  0.00    +0.000 A 
ATOM      5  C   UNL     1      -3.964  -4.900  -3.345  0.00  0.00    +0.000 A 
ATOM      6  C   UNL     1      -5.295  -5.148  -3.012  0.00  0.00    +0.000 A 
ATOM      7  C   UNL     1      -5.840  -4.569  -1.869  0.00  0.00    +0.000 A 
ATOM      8  C   UNL     1      -5.052  -3.741  -1.070  0.00  0.00    +0.000 A 
ATOM      9  F   UNL     1      -5.607  -3.205   0.029  0.00  0.00    +0.000 F 
ENDBRANCH   2   3
BRANCH   1  14
ATOM     10  C   UNL     1      -0.274   1.422   0.365  0.00  0.00    +0.000 C 
ATOM     11  C   UNL     1       1.155   1.012  -0.001  0.00  0.00    +0.000 C 
ATOM     12  C   UNL     1       1.360  -0.474   0.020  0.00  0.00    +0.000 C 
ATOM     13  C   UNL     1       0.347  -1.354   0.060  0.00  0.00    +0.000 C 
ATOM     14  C   UNL     1      -1.108  -0.951   0.052  0.00  0.00    +0.000 C 
ATOM     15  C   UNL     1      -1.299   0.530  -0.332  0.00  0.00    +0.000 C 
ENDBRANCH   1  14
TORSDOF 2
