MODEL 1
REMARK VINA RESULT:      -4.6      0.000      0.000
REMARK  Name = *****
REMARK  5 active torsions:
REMARK  status: ('A' for Active; 'I' for Inactive)
REMARK    1  A    between atoms: C_1  and  C_2
REMARK    2  A    between atoms: C_5  and  C_8
REMARK    3  A    between atoms: C_8  and  C_10
REMARK    4  A    between atoms: C_10  and  C_11
REMARK    5  A    between atoms: C_14  and  C_17
REMARK                            x       y       z     vdW  Elec       q    Type
REMARK                         _______ _______ _______ _____ _____    ______ ____
ROOT
ATOM      1  C   UNL     1      88.623  64.438  86.883  0.00  0.00    +0.000 C 
ATOM      2  O   UNL     1      89.379  63.763  86.184  0.00  0.00    +0.000 OA
ENDROOT
BRANCH   1   7
ATOM      3  C   UNL     1      89.311  70.209  86.768  0.00  0.00    +0.000 C 
ATOM      4  C   UNL     1      89.131  68.720  86.831  0.00  0.00    +0.000 A 
ATOM      5  C   UNL     1      90.114  67.867  86.322  0.00  0.00    +0.000 A 
ATOM      6  C   UNL     1      89.931  66.482  86.349  0.00  0.00    +0.000 A 
ATOM      7  C   UNL     1      88.758  65.928  86.879  0.00  0.00    +0.000 A 
ATOM      8  C   UNL     1      87.765  66.782  87.370  0.00  0.00    +0.000 A 
ATOM      9  C   UNL     1      87.950  68.169  87.341  0.00  0.00    +0.000 A 
ENDBRANCH   1   7
BRANCH   1  10
ATOM     10  C   UNL     1      87.562  63.775  87.743  0.00  0.00    +0.000 C 
BRANCH  10  11
ATOM     11  C   UNL     1      87.747  63.988  89.227  0.00  0.00    +0.000 A 
ATOM     12  C   UNL     1      88.989  63.765  89.837  0.00  0.00    +0.000 A 
ATOM     13  C   UNL     1      89.162  63.988  91.206  0.00  0.00    +0.000 A 
ATOM     14  C   UNL     1      88.094  64.452  91.980  0.00  0.00    +0.000 A 
ATOM     15  C   UNL     1      86.856  64.694  91.377  0.00  0.00    +0.000 A 
ATOM     16  C   UNL     1      86.687  64.470  90.008  0.00  0.00    +0.000 A 
BRANCH  14  17
ATOM     17  C   UNL     1      88.268  64.684  93.384  0.00  0.00    +0.000 C 
ATOM     18  N   UNL     1      88.404  64.872  94.522  0.00  0.00    +0.000 NA
ENDBRANCH  14  17
ENDBRANCH  10  11
ENDBRANCH   1  10
TORSDOF 4
ENDMDL
