MODEL 1
REMARK VINA RESULT:      -4.0      0.000      0.000
REMARK  Name = *****
REMARK  4 active torsions:
REMARK  status: ('A' for Active; 'I' for Inactive)
REMARK    1  A    between atoms: C_1  and  C_2
REMARK    2  A    between atoms: C_5  and  S_7
REMARK    3  A    between atoms: S_7  and  C_8
REMARK    4  A    between atoms: C_8  and  C_9
REMARK                            x       y       z     vdW  Elec       q    Type
REMARK                         _______ _______ _______ _____ _____    ______ ____
ROOT
ATOM      1  S   UNL     1     103.441 127.456  81.452  0.00  0.00    +0.000 S 
ENDROOT
BRANCH   1   6
ATOM      2  C   UNL     1     105.059 122.216  80.504  0.00  0.00    +0.000 C 
ATOM      3  C   UNL     1     104.572 123.486  81.096  0.00  0.00    +0.000 A 
ATOM      4  C   UNL     1     104.159 123.756  82.385  0.00  0.00    +0.000 A 
ATOM      5  N   UNL     1     103.757 125.056  82.626  0.00  0.00    +0.000 NA
ATOM      6  C   UNL     1     103.865 125.761  81.523  0.00  0.00    +0.000 A 
ATOM      7  S   UNL     1     104.451 124.912  80.152  0.00  0.00    +0.000 S 
ENDBRANCH   1   6
BRANCH   1   8
ATOM      8  C   UNL     1     102.734 127.687  83.107  0.00  0.00    +0.000 C 
BRANCH   8   9
ATOM      9  C   UNL     1     101.228 127.773  83.056  0.00  0.00    +0.000 A 
ATOM     10  C   UNL     1     100.475 126.745  82.470  0.00  0.00    +0.000 A 
ATOM     11  C   UNL     1      99.083 126.832  82.411  0.00  0.00    +0.000 A 
ATOM     12  C   UNL     1      98.430 127.948  82.932  0.00  0.00    +0.000 A 
ATOM     13  C   UNL     1      99.168 128.978  83.510  0.00  0.00    +0.000 A 
ATOM     14  C   UNL     1     100.560 128.895  83.570  0.00  0.00    +0.000 A 
ENDBRANCH   8   9
ENDBRANCH   1   8
TORSDOF 3
ENDMDL
