REMARK  Name = *****
REMARK  3 active torsions:
REMARK  status: ('A' for Active; 'I' for Inactive)
REMARK    1  A    between atoms: C_5  and  C_7
REMARK    2  A    between atoms: C_8  and  C_9
REMARK    3  A    between atoms: C_12  and  C_15
REMARK                            x       y       z     vdW  Elec       q    Type
REMARK                         _______ _______ _______ _____ _____    ______ ____
ROOT
ATOM      1  C   UNL     1       2.979   0.184  -0.341  0.00  0.00    +0.000 C 
ATOM      2  C   UNL     1       4.170   0.244  -0.489  0.00  0.00    +0.000 C 
ENDROOT
BRANCH   1   7
ATOM      3  C   UNL     1      -0.440  -1.226   0.090  0.00  0.00    +0.000 A 
ATOM      4  C   UNL     1      -1.218  -0.072   0.170  0.00  0.00    +0.000 A 
ATOM      5  C   UNL     1      -0.614   1.183   0.083  0.00  0.00    +0.000 A 
ATOM      6  C   UNL     1       0.771   1.286  -0.085  0.00  0.00    +0.000 A 
ATOM      7  C   UNL     1       1.557   0.129  -0.166  0.00  0.00    +0.000 A 
ATOM      8  C   UNL     1       0.943  -1.127  -0.078  0.00  0.00    +0.000 A 
ATOM      9 CL   UNL     1       1.457   2.871  -0.185  0.00  0.00    +0.000 Cl
ENDBRANCH   1   7
BRANCH   2  10
ATOM     10  C   UNL     1       5.585   0.337  -0.670  0.00  0.00    +0.000 A 
ATOM     11  C   UNL     1       6.196   1.591  -0.745  0.00  0.00    +0.000 A 
ATOM     12  C   UNL     1       7.579   1.687  -0.925  0.00  0.00    +0.000 A 
ATOM     13  C   UNL     1       8.355   0.528  -1.030  0.00  0.00    +0.000 A 
ATOM     14  C   UNL     1       7.741  -0.728  -0.953  0.00  0.00    +0.000 A 
ATOM     15  C   UNL     1       6.357  -0.822  -0.774  0.00  0.00    +0.000 A 
BRANCH  13  16
ATOM     16  C   UNL     1       9.773   0.624  -1.215  0.00  0.00    +0.000 C 
ATOM     17  N   UNL     1      10.922   0.701  -1.366  0.00  0.00    +0.000 NA
ENDBRANCH  13  16
ENDBRANCH   2  10
TORSDOF 3
