MODEL 1
REMARK VINA RESULT:      -4.3      0.000      0.000
REMARK  Name = *****
REMARK  3 active torsions:
REMARK  status: ('A' for Active; 'I' for Inactive)
REMARK    1  A    between atoms: C_6  and  C_7
REMARK    2  A    between atoms: C_7  and  O_8
REMARK    3  A    between atoms: O_8  and  C_9
REMARK                            x       y       z     vdW  Elec       q    Type
REMARK                         _______ _______ _______ _____ _____    ______ ____
ROOT
ATOM      1  C   UNL     1     102.289 125.893  81.934  0.00  0.00    +0.000 C 
ENDROOT
BRANCH   1   7
ATOM      2  C   UNL     1     100.066 126.956  82.509  0.00  0.00    +0.000 A 
ATOM      3  C   UNL     1      99.308 127.968  83.103  0.00  0.00    +0.000 A 
ATOM      4  C   UNL     1      99.947 129.018  83.760  0.00  0.00    +0.000 A 
ATOM      5  C   UNL     1     101.337 129.062  83.832  0.00  0.00    +0.000 A 
ATOM      6  C   UNL     1     102.095 128.051  83.238  0.00  0.00    +0.000 A 
ATOM      7  C   UNL     1     101.467 126.995  82.561  0.00  0.00    +0.000 A 
ATOM      8 CL   UNL     1      99.013 130.265  84.490  0.00  0.00    +0.000 Cl
ENDBRANCH   1   7
BRANCH   1   9
ATOM      9  O   UNL     1     103.204 126.500  81.023  0.00  0.00    +0.000 OA
BRANCH   9  10
ATOM     10  C   UNL     1     104.132 125.613  80.520  0.00  0.00    +0.000 A 
ATOM     11  N   UNL     1     105.125 126.059  79.719  0.00  0.00    +0.000 NA
ATOM     12  C   UNL     1     106.006 125.141  79.266  0.00  0.00    +0.000 A 
ATOM     13  C   UNL     1     105.939 123.796  79.578  0.00  0.00    +0.000 A 
ATOM     14  C   UNL     1     104.903 123.378  80.402  0.00  0.00    +0.000 A 
ATOM     15  C   UNL     1     103.977 124.291  80.888  0.00  0.00    +0.000 A 
ATOM     16 CL   UNL     1     104.769 121.717  80.826  0.00  0.00    +0.000 Cl
ENDBRANCH   9  10
ENDBRANCH   1   9
TORSDOF 3
ENDMDL
