REMARK  Name = *****
REMARK  5 active torsions:
REMARK  status: ('A' for Active; 'I' for Inactive)
REMARK    1  A    between atoms: C_1  and  C_2
REMARK    2  A    between atoms: C_7  and  C_8
REMARK    3  A    between atoms: C_8  and  O_9
REMARK    4  A    between atoms: O_9  and  C_10
REMARK    5  A    between atoms: C_15  and  C_16
REMARK                            x       y       z     vdW  Elec       q    Type
REMARK                         _______ _______ _______ _____ _____    ______ ____
ROOT
ATOM      1  O   UNL     1       2.327  -2.417   0.169  0.00  0.00    +0.000 OA
ENDROOT
BRANCH   1   2
ATOM      2  C   UNL     1       3.065  -3.568   0.158  0.00  0.00    +0.000 A 
ATOM      3  C   UNL     1       2.697  -4.734   0.841  0.00  0.00    +0.000 A 
ATOM      4  C   UNL     1       3.539  -5.851   0.849  0.00  0.00    +0.000 A 
ATOM      5  C   UNL     1       4.763  -5.813   0.189  0.00  0.00    +0.000 A 
ATOM      6  C   UNL     1       5.145  -4.658  -0.489  0.00  0.00    +0.000 A 
ATOM      7  C   UNL     1       4.296  -3.539  -0.518  0.00  0.00    +0.000 A 
BRANCH   7   8
ATOM      8  C   UNL     1       4.758  -2.352  -1.290  0.00  0.00    +0.000 C 
ATOM      9  O   UNL     1       5.951  -2.061  -1.188  0.00  0.00    +0.000 OA
ATOM     10 CL   UNL     1       3.649  -1.537  -2.369  0.00  0.00    +0.000 Cl
ENDBRANCH   7   8
ENDBRANCH   1   2
BRANCH   1  11
ATOM     11  C   UNL     1       0.943  -2.522   0.495  0.00  0.00    +0.000 C 
BRANCH  11  18
ATOM     12  C   UNL     1       0.875  -0.284   2.509  0.00  0.00    +0.000 C 
ATOM     13  C   UNL     1       0.270  -0.137   1.139  0.00  0.00    +0.000 A 
ATOM     14  C   UNL     1      -0.345   1.078   0.795  0.00  0.00    +0.000 A 
ATOM     15  C   UNL     1      -0.906   1.263  -0.469  0.00  0.00    +0.000 A 
ATOM     16  C   UNL     1      -0.859   0.237  -1.406  0.00  0.00    +0.000 A 
ATOM     17  C   UNL     1      -0.260  -0.978  -1.077  0.00  0.00    +0.000 A 
ATOM     18  C   UNL     1       0.294  -1.189   0.199  0.00  0.00    +0.000 A 
ENDBRANCH  11  18
ENDBRANCH   1  11
TORSDOF 4
