MODEL 1
REMARK VINA RESULT:      -5.0      0.000      0.000
REMARK  Name = *****
REMARK  3 active torsions:
REMARK  status: ('A' for Active; 'I' for Inactive)
REMARK    1  A    between atoms: C_4  and  C_7
REMARK    2  A    between atoms: C_8  and  C_9
REMARK    3  A    between atoms: C_9  and  C_10
REMARK                            x       y       z     vdW  Elec       q    Type
REMARK                         _______ _______ _______ _____ _____    ______ ____
ROOT
ATOM      1  C   UNL     1      89.793  66.853  86.214  0.00  0.00    +0.000 C 
ATOM      2  C   UNL     1      88.808  66.349  86.977  0.00  0.00    +0.000 C 
ATOM      3 CL   UNL     1      91.097  65.888  85.616  0.00  0.00    +0.000 Cl
ENDROOT
BRANCH   1   7
ATOM      4  C   UNL     1      89.833  70.986  85.102  0.00  0.00    +0.000 A 
ATOM      5  C   UNL     1      90.014  70.001  84.133  0.00  0.00    +0.000 A 
ATOM      6  C   UNL     1      90.000  68.652  84.495  0.00  0.00    +0.000 A 
ATOM      7  C   UNL     1      89.806  68.274  85.831  0.00  0.00    +0.000 A 
ATOM      8  C   UNL     1      89.623  69.276  86.797  0.00  0.00    +0.000 A 
ATOM      9  C   UNL     1      89.637  70.625  86.434  0.00  0.00    +0.000 A 
ENDBRANCH   1   7
BRANCH   2  10
ATOM     10  C   UNL     1      88.653  64.931  87.449  0.00  0.00    +0.000 C 
BRANCH  10  11
ATOM     11  C   UNL     1      87.948  64.854  88.778  0.00  0.00    +0.000 A 
ATOM     12  C   UNL     1      86.816  65.642  89.034  0.00  0.00    +0.000 A 
ATOM     13  C   UNL     1      86.179  65.582  90.276  0.00  0.00    +0.000 A 
ATOM     14  C   UNL     1      86.667  64.739  91.276  0.00  0.00    +0.000 A 
ATOM     15  C   UNL     1      87.796  63.960  91.034  0.00  0.00    +0.000 A 
ATOM     16  C   UNL     1      88.427  64.024  89.796  0.00  0.00    +0.000 A 
ATOM     17  F   UNL     1      89.519  63.274  89.588  0.00  0.00    +0.000 F 
ENDBRANCH  10  11
ENDBRANCH   2  10
TORSDOF 3
ENDMDL
