MODEL 1
REMARK VINA RESULT:      -4.4      0.000      0.000
REMARK  Name = *****
REMARK  5 active torsions:
REMARK  status: ('A' for Active; 'I' for Inactive)
REMARK    1  A    between atoms: C_1  and  C_2
REMARK    2  A    between atoms: C_3  and  C_9
REMARK    3  A    between atoms: C_4  and  C_8
REMARK    4  A    between atoms: C_9  and  C_10
REMARK    5  A    between atoms: C_10  and  C_12
REMARK                            x       y       z     vdW  Elec       q    Type
REMARK                         _______ _______ _______ _____ _____    ______ ____
ROOT
ATOM      1  C   UNL     1      89.807  70.628  85.287  0.00  0.00    +0.000 C 
ENDROOT
BRANCH   1   4
ATOM      2  C   UNL     1      88.847  70.187  88.117  0.00  0.00    +0.000 C 
ATOM      3  C   UNL     1      87.952  70.752  87.046  0.00  0.00    +0.000 A 
ATOM      4  C   UNL     1      88.393  70.992  85.719  0.00  0.00    +0.000 A 
ATOM      5  C   UNL     1      87.496  71.598  84.800  0.00  0.00    +0.000 A 
ATOM      6  C   UNL     1      86.173  71.868  85.189  0.00  0.00    +0.000 A 
ATOM      7  C   UNL     1      85.738  71.587  86.478  0.00  0.00    +0.000 A 
ATOM      8  C   UNL     1      86.622  71.042  87.400  0.00  0.00    +0.000 A 
ATOM      9  C   UNL     1      87.885  71.946  83.385  0.00  0.00    +0.000 C 
ENDBRANCH   1   4
BRANCH   1  10
ATOM     10  C   UNL     1      89.900  69.318  84.524  0.00  0.00    +0.000 C 
ATOM     11  O   UNL     1      90.403  69.242  83.403  0.00  0.00    +0.000 OA
BRANCH  10  12
ATOM     12  C   UNL     1      89.331  68.093  85.122  0.00  0.00    +0.000 A 
ATOM     13  C   UNL     1      90.094  67.381  86.054  0.00  0.00    +0.000 A 
ATOM     14  C   UNL     1      89.576  66.219  86.632  0.00  0.00    +0.000 A 
ATOM     15  C   UNL     1      88.296  65.780  86.293  0.00  0.00    +0.000 A 
ATOM     16  C   UNL     1      87.527  66.505  85.383  0.00  0.00    +0.000 A 
ATOM     17  C   UNL     1      88.047  67.662  84.807  0.00  0.00    +0.000 A 
ATOM     18  F   UNL     1      87.267  68.368  83.975  0.00  0.00    +0.000 F 
ENDBRANCH  10  12
ENDBRANCH   1  10
TORSDOF 3
ENDMDL
