MODEL 1
REMARK VINA RESULT:      -4.3      0.000      0.000
REMARK  Name = *****
REMARK  3 active torsions:
REMARK  status: ('A' for Active; 'I' for Inactive)
REMARK    1  A    between atoms: C_7  and  O_8
REMARK    2  A    between atoms: O_8  and  C_9
REMARK    3  A    between atoms: C_9  and  C_11
REMARK                            x       y       z     vdW  Elec       q    Type
REMARK                         _______ _______ _______ _____ _____    ______ ____
ROOT
ATOM      1  C   UNL     1      87.832  63.543  87.340  0.00  0.00    +0.000 C 
ATOM      2  O   UNL     1      86.812  63.257  86.735  0.00  0.00    +0.000 OA
ENDROOT
BRANCH   1   3
ATOM      3  C   UNL     1      87.897  63.684  88.816  0.00  0.00    +0.000 A 
ATOM      4  C   UNL     1      89.101  63.616  89.528  0.00  0.00    +0.000 A 
ATOM      5  C   UNL     1      89.120  63.917  90.894  0.00  0.00    +0.000 A 
ATOM      6  C   UNL     1      87.940  64.282  91.542  0.00  0.00    +0.000 A 
ATOM      7  C   UNL     1      86.734  64.328  90.845  0.00  0.00    +0.000 A 
ATOM      8  C   UNL     1      86.710  64.023  89.484  0.00  0.00    +0.000 A 
ATOM      9 CL   UNL     1      87.977  64.704  93.209  0.00  0.00    +0.000 Cl
ENDBRANCH   1   3
BRANCH   1  10
ATOM     10  O   UNL     1      88.980  64.026  86.798  0.00  0.00    +0.000 OA
BRANCH  10  17
ATOM     11  C   UNL     1      89.853  67.560  84.627  0.00  0.00    +0.000 C 
ATOM     12  C   UNL     1      89.460  66.306  83.829  0.00  0.00    +0.000 C 
ATOM     13  C   UNL     1      89.802  65.156  84.795  0.00  0.00    +0.000 C 
ATOM     14  C   UNL     1      91.059  65.694  85.481  0.00  0.00    +0.000 C 
ATOM     15  C   UNL     1      90.369  66.973  85.950  0.00  0.00    +0.000 C 
ATOM     16  C   UNL     1      89.167  66.426  86.740  0.00  0.00    +0.000 C 
ATOM     17  C   UNL     1      88.775  65.159  85.944  0.00  0.00    +0.000 C 
ENDBRANCH  10  17
ENDBRANCH   1  10
TORSDOF 3
ENDMDL
