MODEL 1
REMARK VINA RESULT:      -4.8      0.000      0.000
REMARK  Name = *****
REMARK  2 active torsions:
REMARK  status: ('A' for Active; 'I' for Inactive)
REMARK    1  A    between atoms: C_5  and  N_7
REMARK    2  A    between atoms: C_8  and  C_9
REMARK                            x       y       z     vdW  Elec       q    Type
REMARK                         _______ _______ _______ _____ _____    ______ ____
ROOT
ATOM      1  N   UNL     1     101.678 126.007  82.830  0.00  0.00    +0.000 NA
ATOM      2  C   UNL     1     102.603 126.089  81.927  0.00  0.00    +0.000 C 
ENDROOT
BRANCH   1   7
ATOM      3  C   UNL     1     100.479 129.355  83.852  0.00  0.00    +0.000 A 
ATOM      4  C   UNL     1      99.161 129.350  83.396  0.00  0.00    +0.000 A 
ATOM      5  C   UNL     1      98.659 128.228  82.738  0.00  0.00    +0.000 A 
ATOM      6  C   UNL     1      99.482 127.120  82.540  0.00  0.00    +0.000 A 
ATOM      7  C   UNL     1     100.814 127.110  82.978  0.00  0.00    +0.000 A 
ATOM      8  C   UNL     1     101.297 128.238  83.648  0.00  0.00    +0.000 A 
ATOM      9  F   UNL     1      98.969 126.052  81.906  0.00  0.00    +0.000 F 
ENDBRANCH   1   7
BRANCH   2  10
ATOM     10  C   UNL     1     103.549 124.983  81.682  0.00  0.00    +0.000 A 
ATOM     11  C   UNL     1     103.931 124.123  82.717  0.00  0.00    +0.000 A 
ATOM     12  C   UNL     1     104.829 123.084  82.462  0.00  0.00    +0.000 A 
ATOM     13  C   UNL     1     105.339 122.910  81.176  0.00  0.00    +0.000 A 
ATOM     14  C   UNL     1     104.959 123.765  80.141  0.00  0.00    +0.000 A 
ATOM     15  C   UNL     1     104.062 124.807  80.392  0.00  0.00    +0.000 A 
ATOM     16 CL   UNL     1     106.445 121.631  80.862  0.00  0.00    +0.000 Cl
ENDBRANCH   2  10
TORSDOF 2
ENDMDL
