REMARK  Name = *****
REMARK  1 active torsions:
REMARK  status: ('A' for Active; 'I' for Inactive)
REMARK    1  A    between atoms: C_8  and  C_11
REMARK                            x       y       z     vdW  Elec       q    Type
REMARK                         _______ _______ _______ _____ _____    ______ ____
ROOT
ATOM      1  C   UNL     1      -0.351  -0.641   0.469  0.00  0.00    +0.000 C 
ATOM      2  C   UNL     1       0.944  -1.150  -0.164  0.00  0.00    +0.000 C 
ATOM      3  C   UNL     1       1.743   0.093  -0.554  0.00  0.00    +0.000 C 
ATOM      4  C   UNL     1       0.689   1.197  -0.742  0.00  0.00    +0.000 C 
ATOM      5  C   UNL     1      -0.290   0.884   0.398  0.00  0.00    +0.000 C 
ATOM      6  C   UNL     1       1.312   2.632  -0.586  0.00  0.00    +0.000 C 
ATOM      7  C   UNL     1       2.095   3.155  -1.836  0.00  0.00    +0.000 C 
ATOM      8  C   UNL     1       1.332   2.875  -3.126  0.00  0.00    +0.000 C 
ATOM      9  C   UNL     1       0.468   1.913  -3.003  0.00  0.00    +0.000 C 
ATOM     10  C   UNL     1       0.019   1.083  -2.115  0.00  0.00    +0.000 C 
ENDROOT
BRANCH   8  11
ATOM     11  C   UNL     1       1.651   3.550  -4.398  0.00  0.00    +0.000 A 
ATOM     12  C   UNL     1       0.817   3.402  -5.520  0.00  0.00    +0.000 A 
ATOM     13  C   UNL     1       1.107   4.042  -6.729  0.00  0.00    +0.000 A 
ATOM     14  C   UNL     1       2.239   4.843  -6.839  0.00  0.00    +0.000 A 
ATOM     15  C   UNL     1       3.080   5.003  -5.742  0.00  0.00    +0.000 A 
ATOM     16  C   UNL     1       2.788   4.362  -4.533  0.00  0.00    +0.000 A 
ENDBRANCH   8  11
TORSDOF 1
