MODEL 1
REMARK VINA RESULT:      -4.8      0.000      0.000
REMARK  Name = *****
REMARK  4 active torsions:
REMARK  status: ('A' for Active; 'I' for Inactive)
REMARK    1  A    between atoms: C_1  and  C_2
REMARK    2  A    between atoms: C_5  and  C_8
REMARK    3  A    between atoms: C_9  and  O_10
REMARK    4  A    between atoms: O_10  and  C_11
REMARK                            x       y       z     vdW  Elec       q    Type
REMARK                         _______ _______ _______ _____ _____    ______ ____
ROOT
ATOM      1  C   UNL     1      89.124  69.662  86.794  0.00  0.00    +0.000 C 
ATOM      2  C   UNL     1      89.170  68.336  86.620  0.00  0.00    +0.000 C 
ENDROOT
BRANCH   1   7
ATOM      3  C   UNL     1      84.172  72.630  87.226  0.00  0.00    +0.000 C 
ATOM      4  C   UNL     1      85.472  71.891  87.103  0.00  0.00    +0.000 A 
ATOM      5  C   UNL     1      86.006  71.599  85.843  0.00  0.00    +0.000 A 
ATOM      6  C   UNL     1      87.201  70.881  85.729  0.00  0.00    +0.000 A 
ATOM      7  C   UNL     1      87.883  70.443  86.870  0.00  0.00    +0.000 A 
ATOM      8  C   UNL     1      87.328  70.709  88.127  0.00  0.00    +0.000 A 
ATOM      9  C   UNL     1      86.134  71.428  88.243  0.00  0.00    +0.000 A 
ENDBRANCH   1   7
BRANCH   2  10
ATOM     10  O   UNL     1      90.366  67.658  86.552  0.00  0.00    +0.000 OA
BRANCH  10  11
ATOM     11  C   UNL     1      90.316  66.354  86.128  0.00  0.00    +0.000 A 
ATOM     12  C   UNL     1      89.186  65.558  86.337  0.00  0.00    +0.000 A 
ATOM     13  C   UNL     1      89.163  64.249  85.853  0.00  0.00    +0.000 A 
ATOM     14  C   UNL     1      90.263  63.751  85.153  0.00  0.00    +0.000 A 
ATOM     15  C   UNL     1      91.382  64.552  84.925  0.00  0.00    +0.000 A 
ATOM     16  C   UNL     1      91.405  65.862  85.409  0.00  0.00    +0.000 A 
ATOM     17 CL   UNL     1      90.234  62.137  84.556  0.00  0.00    +0.000 Cl
ENDBRANCH  10  11
ENDBRANCH   2  10
TORSDOF 3
ENDMDL
