MODEL 1
REMARK VINA RESULT:      -5.1      0.000      0.000
REMARK  Name = *****
REMARK  2 active torsions:
REMARK  status: ('A' for Active; 'I' for Inactive)
REMARK    1  A    between atoms: C_7  and  C_9
REMARK    2  A    between atoms: C_10  and  C_11
REMARK                            x       y       z     vdW  Elec       q    Type
REMARK                         _______ _______ _______ _____ _____    ______ ____
ROOT
ATOM      1  C   UNL     1     100.883 129.154  84.016  0.00  0.00    +0.000 C 
ATOM      2  C   UNL     1      99.442 129.310  83.535  0.00  0.00    +0.000 C 
ATOM      3  C   UNL     1      98.567 128.118  83.894  0.00  0.00    +0.000 C 
ATOM      4  C   UNL     1      98.634 126.978  82.902  0.00  0.00    +0.000 C 
ATOM      5  O   UNL     1      97.618 126.324  82.649  0.00  0.00    +0.000 OA
ATOM      6  C   UNL     1      99.943 126.643  82.222  0.00  0.00    +0.000 C 
ATOM      7  C   UNL     1     101.163 126.736  83.145  0.00  0.00    +0.000 C 
ATOM      8  C   UNL     1     101.727 128.167  83.212  0.00  0.00    +0.000 C 
ENDROOT
BRANCH   7   9
ATOM      9  C   UNL     1     102.250 125.820  82.620  0.00  0.00    +0.000 C 
ATOM     10  C   UNL     1     102.860 125.997  81.437  0.00  0.00    +0.000 C 
BRANCH  10  11
ATOM     11  C   UNL     1     103.908 125.109  80.915  0.00  0.00    +0.000 A 
ATOM     12  C   UNL     1     104.110 123.866  81.527  0.00  0.00    +0.000 A 
ATOM     13  C   UNL     1     105.077 122.981  81.041  0.00  0.00    +0.000 A 
ATOM     14  C   UNL     1     105.843 123.328  79.930  0.00  0.00    +0.000 A 
ATOM     15  C   UNL     1     105.639 124.554  79.301  0.00  0.00    +0.000 A 
ATOM     16  C   UNL     1     104.673 125.439  79.789  0.00  0.00    +0.000 A 
ENDBRANCH  10  11
ENDBRANCH   7   9
TORSDOF 2
ENDMDL
