REMARK  Name = *****
REMARK  3 active torsions:
REMARK  status: ('A' for Active; 'I' for Inactive)
REMARK    1  A    between atoms: C_4  and  C_7
REMARK    2  A    between atoms: C_8  and  S_9
REMARK    3  A    between atoms: S_9  and  C_10
REMARK                            x       y       z     vdW  Elec       q    Type
REMARK                         _______ _______ _______ _____ _____    ______ ____
ROOT
ATOM      1  C   UNL     1       0.988  -2.703   0.356  0.00  0.00    +0.000 C 
ATOM      2  C   UNL     1       0.347  -3.705   0.979  0.00  0.00    +0.000 C 
ENDROOT
BRANCH   1   6
ATOM      3  C   UNL     1      -0.466   1.369  -0.019  0.00  0.00    +0.000 C 
ATOM      4  C   UNL     1      -1.497   0.256  -0.145  0.00  0.00    +0.000 C 
ATOM      5  C   UNL     1      -0.980  -1.053   0.460  0.00  0.00    +0.000 C 
ATOM      6  C   UNL     1       0.459  -1.367   0.103  0.00  0.00    +0.000 C 
ATOM      7  C   UNL     1       1.256  -0.433  -0.451  0.00  0.00    +0.000 C 
ATOM      8  C   UNL     1       0.836   0.984  -0.719  0.00  0.00    +0.000 C 
ENDBRANCH   1   6
BRANCH   2   9
ATOM      9  S   UNL     1       1.112  -5.246   1.214  0.00  0.00    +0.000 S 
BRANCH   9  10
ATOM     10  C   UNL     1      -0.152  -6.041   2.188  0.00  0.00    +0.000 A 
ATOM     11  C   UNL     1      -1.093  -6.873   1.573  0.00  0.00    +0.000 A 
ATOM     12  C   UNL     1      -2.082  -7.500   2.334  0.00  0.00    +0.000 A 
ATOM     13  C   UNL     1      -2.130  -7.301   3.714  0.00  0.00    +0.000 A 
ATOM     14  C   UNL     1      -1.190  -6.479   4.334  0.00  0.00    +0.000 A 
ATOM     15  C   UNL     1      -0.201  -5.852   3.573  0.00  0.00    +0.000 A 
ENDBRANCH   9  10
ENDBRANCH   2   9
TORSDOF 3
