REMARK  Name = *****
REMARK  4 active torsions:
REMARK  status: ('A' for Active; 'I' for Inactive)
REMARK    1  A    between atoms: C_4  and  C_7
REMARK    2  A    between atoms: C_7  and  O_9
REMARK    3  A    between atoms: O_9  and  C_10
REMARK    4  A    between atoms: C_10  and  C_11
REMARK                            x       y       z     vdW  Elec       q    Type
REMARK                         _______ _______ _______ _____ _____    ______ ____
ROOT
ATOM      1  O   UNL     1      -3.727  -0.493  -0.172  0.00  0.00    +0.000 OA
ENDROOT
BRANCH   1   2
ATOM      2  C   UNL     1      -2.925   0.555  -0.477  0.00  0.00    +0.000 C 
ATOM      3  O   UNL     1      -3.291   1.650  -0.876  0.00  0.00    +0.000 OA
BRANCH   2   7
ATOM      4  C   UNL     1       1.220  -0.365   0.126  0.00  0.00    +0.000 A 
ATOM      5  C   UNL     1       0.262  -1.349   0.369  0.00  0.00    +0.000 A 
ATOM      6  C   UNL     1      -1.093  -1.070   0.178  0.00  0.00    +0.000 A 
ATOM      7  C   UNL     1      -1.496   0.201  -0.256  0.00  0.00    +0.000 A 
ATOM      8  C   UNL     1      -0.526   1.183  -0.499  0.00  0.00    +0.000 A 
ATOM      9  C   UNL     1       0.828   0.900  -0.307  0.00  0.00    +0.000 A 
ENDBRANCH   2   7
ENDBRANCH   1   2
BRANCH   1  10
ATOM     10  C   UNL     1      -5.129  -0.282  -0.378  0.00  0.00    +0.000 C 
BRANCH  10  11
ATOM     11  C   UNL     1      -5.529  -0.853  -1.715  0.00  0.00    +0.000 A 
ATOM     12  C   UNL     1      -5.817  -2.219  -1.849  0.00  0.00    +0.000 A 
ATOM     13  C   UNL     1      -6.165  -2.749  -3.094  0.00  0.00    +0.000 A 
ATOM     14  C   UNL     1      -6.217  -1.918  -4.211  0.00  0.00    +0.000 A 
ATOM     15  C   UNL     1      -5.920  -0.562  -4.096  0.00  0.00    +0.000 A 
ATOM     16  C   UNL     1      -5.573  -0.032  -2.851  0.00  0.00    +0.000 A 
ATOM     17 CL   UNL     1      -6.643  -2.573  -5.744  0.00  0.00    +0.000 Cl
ENDBRANCH  10  11
ENDBRANCH   1  10
TORSDOF 4
