MODEL 1
REMARK VINA RESULT:      -4.4      0.000      0.000
REMARK  Name = *****
REMARK  4 active torsions:
REMARK  status: ('A' for Active; 'I' for Inactive)
REMARK    1  A    between atoms: C_1  and  C_2
REMARK    2  A    between atoms: C_5  and  C_8
REMARK    3  A    between atoms: C_8  and  C_17
REMARK    4  A    between atoms: N_9  and  C_10
REMARK                            x       y       z     vdW  Elec       q    Type
REMARK                         _______ _______ _______ _____ _____    ______ ____
ROOT
ATOM      1  C   UNL     1      96.344 116.032  81.410  0.00  0.00    +0.000 C 
ATOM      2  N   UNL     1      96.541 116.921  82.341  0.00  0.00    +0.000 NA
ATOM      3  C   UNL     1      96.012 114.626  81.853  0.00  0.00    +0.000 C 
ENDROOT
BRANCH   1   8
ATOM      4  C   UNL     1      96.517 116.868  75.694  0.00  0.00    +0.000 C 
ATOM      5  C   UNL     1      96.484 116.677  77.182  0.00  0.00    +0.000 A 
ATOM      6  C   UNL     1      97.574 116.096  77.842  0.00  0.00    +0.000 A 
ATOM      7  C   UNL     1      97.536 115.888  79.222  0.00  0.00    +0.000 A 
ATOM      8  C   UNL     1      96.403 116.260  79.946  0.00  0.00    +0.000 A 
ATOM      9  C   UNL     1      95.299 116.820  79.297  0.00  0.00    +0.000 A 
ATOM     10  C   UNL     1      95.341 117.024  77.916  0.00  0.00    +0.000 A 
ENDBRANCH   1   8
BRANCH   2  11
ATOM     11  C   UNL     1      96.798 118.260  82.024  0.00  0.00    +0.000 A 
ATOM     12  C   UNL     1      98.065 118.678  81.600  0.00  0.00    +0.000 A 
ATOM     13  C   UNL     1      98.292 120.015  81.264  0.00  0.00    +0.000 A 
ATOM     14  C   UNL     1      97.244 120.924  81.335  0.00  0.00    +0.000 A 
ATOM     15  C   UNL     1      95.973 120.522  81.727  0.00  0.00    +0.000 A 
ATOM     16  C   UNL     1      95.749 119.185  82.063  0.00  0.00    +0.000 A 
ATOM     17  F   UNL     1      97.460 122.205  81.012  0.00  0.00    +0.000 F 
ENDBRANCH   2  11
TORSDOF 2
ENDMDL
