MODEL 1
REMARK VINA RESULT:      -4.2      0.000      0.000
REMARK  Name = *****
REMARK  3 active torsions:
REMARK  status: ('A' for Active; 'I' for Inactive)
REMARK    1  A    between atoms: C_1  and  C_2
REMARK    2  A    between atoms: C_2  and  C_11
REMARK    3  A    between atoms: N_4  and  C_5
REMARK                            x       y       z     vdW  Elec       q    Type
REMARK                         _______ _______ _______ _____ _____    ______ ____
ROOT
ATOM      1  C   UNL     1      85.026  62.986  86.741  0.00  0.00    +0.000 C 
ATOM      2  C   UNL     1      85.135  63.350  88.205  0.00  0.00    +0.000 C 
ATOM      3  C   UNL     1      84.778  64.770  88.588  0.00  0.00    +0.000 C 
ATOM      4  N   UNL     1      86.175  64.359  88.527  0.00  0.00    +0.000 N 
ENDROOT
BRANCH   4   5
ATOM      5  C   UNL     1      86.969  64.311  89.700  0.00  0.00    +0.000 A 
ATOM      6  C   UNL     1      88.305  63.912  89.529  0.00  0.00    +0.000 A 
ATOM      7  C   UNL     1      89.189  63.834  90.609  0.00  0.00    +0.000 A 
ATOM      8  C   UNL     1      88.749  64.160  91.888  0.00  0.00    +0.000 A 
ATOM      9  C   UNL     1      87.431  64.564  92.082  0.00  0.00    +0.000 A 
ATOM     10  C   UNL     1      86.550  64.643  90.996  0.00  0.00    +0.000 A 
ENDBRANCH   4   5
BRANCH   2  11
ATOM     11  C   UNL     1      84.800  62.208  89.155  0.00  0.00    +0.000 A 
ATOM     12  C   UNL     1      85.770  61.263  89.535  0.00  0.00    +0.000 A 
ATOM     13  C   UNL     1      85.462  60.200  90.390  0.00  0.00    +0.000 A 
ATOM     14  C   UNL     1      84.166  60.050  90.873  0.00  0.00    +0.000 A 
ATOM     15  C   UNL     1      83.181  60.960  90.499  0.00  0.00    +0.000 A 
ATOM     16  C   UNL     1      83.495  62.021  89.647  0.00  0.00    +0.000 A 
ENDBRANCH   2  11
TORSDOF 2
ENDMDL
