MODEL 1
REMARK VINA RESULT:      -4.5      0.000      0.000
REMARK  Name = *****
REMARK  5 active torsions:
REMARK  status: ('A' for Active; 'I' for Inactive)
REMARK    1  A    between atoms: C_1  and  C_2
REMARK    2  A    between atoms: C_2  and  C_3
REMARK    3  A    between atoms: C_2  and  O_10
REMARK    4  A    between atoms: O_10  and  C_11
REMARK    5  A    between atoms: C_11  and  C_13
REMARK                            x       y       z     vdW  Elec       q    Type
REMARK                         _______ _______ _______ _____ _____    ______ ____
ROOT
ATOM      1  C   UNL     1      89.674  68.943  84.224  0.00  0.00    +0.000 C 
ATOM      2  C   UNL     1      89.616  70.209  85.076  0.00  0.00    +0.000 C 
ENDROOT
BRANCH   2   3
ATOM      3  C   UNL     1      90.054  71.420  84.266  0.00  0.00    +0.000 A 
ATOM      4  C   UNL     1      89.178  72.492  84.024  0.00  0.00    +0.000 A 
ATOM      5  C   UNL     1      89.590  73.590  83.267  0.00  0.00    +0.000 A 
ATOM      6  C   UNL     1      90.876  73.616  82.744  0.00  0.00    +0.000 A 
ATOM      7  C   UNL     1      91.759  72.565  82.964  0.00  0.00    +0.000 A 
ATOM      8  C   UNL     1      91.349  71.467  83.722  0.00  0.00    +0.000 A 
ATOM      9  F   UNL     1      91.271  74.668  82.016  0.00  0.00    +0.000 F 
ENDBRANCH   2   3
BRANCH   2  10
ATOM     10  O   UNL     1      88.248  70.437  85.506  0.00  0.00    +0.000 OA
BRANCH  10  11
ATOM     11  C   UNL     1      87.853  70.642  86.790  0.00  0.00    +0.000 C 
ATOM     12  S   UNL     1      88.725  70.174  88.129  0.00  0.00    +0.000 S 
BRANCH  11  13
ATOM     13  C   UNL     1      86.526  71.309  86.776  0.00  0.00    +0.000 A 
ATOM     14  C   UNL     1      85.853  71.600  87.971  0.00  0.00    +0.000 A 
ATOM     15  C   UNL     1      84.605  72.229  87.942  0.00  0.00    +0.000 A 
ATOM     16  C   UNL     1      84.021  72.569  86.724  0.00  0.00    +0.000 A 
ATOM     17  C   UNL     1      84.682  72.284  85.530  0.00  0.00    +0.000 A 
ATOM     18  C   UNL     1      85.929  71.658  85.554  0.00  0.00    +0.000 A 
ENDBRANCH  11  13
ENDBRANCH  10  11
ENDBRANCH   2  10
TORSDOF 4
ENDMDL
