MODEL 1
REMARK VINA RESULT:      -4.5      0.000      0.000
REMARK  Name = *****
REMARK  4 active torsions:
REMARK  status: ('A' for Active; 'I' for Inactive)
REMARK    1  A    between atoms: C_4  and  C_7
REMARK    2  A    between atoms: C_7  and  O_8
REMARK    3  A    between atoms: O_8  and  C_9
REMARK    4  A    between atoms: C_9  and  C_11
REMARK                            x       y       z     vdW  Elec       q    Type
REMARK                         _______ _______ _______ _____ _____    ______ ____
ROOT
ATOM      1  C   UNL     1     104.652 124.395  80.114  0.00  0.00    +0.000 C 
ATOM      2  O   UNL     1     105.628 124.610  79.413  0.00  0.00    +0.000 OA
ENDROOT
BRANCH   1   3
ATOM      3  C   UNL     1     104.597 123.294  81.112  0.00  0.00    +0.000 A 
ATOM      4  C   UNL     1     104.451 123.528  82.484  0.00  0.00    +0.000 A 
ATOM      5  C   UNL     1     104.422 122.451  83.362  0.00  0.00    +0.000 A 
ATOM      6  C   UNL     1     104.534 121.141  82.906  0.00  0.00    +0.000 A 
ATOM      7  C   UNL     1     104.679 120.900  81.542  0.00  0.00    +0.000 A 
ATOM      8  C   UNL     1     104.710 121.972  80.647  0.00  0.00    +0.000 A 
ATOM      9  F   UNL     1     104.287 122.678  84.675  0.00  0.00    +0.000 F 
ENDBRANCH   1   3
BRANCH   1  10
ATOM     10  O   UNL     1     103.499 125.103  80.122  0.00  0.00    +0.000 OA
BRANCH  10  11
ATOM     11  C   UNL     1     103.627 126.517  80.314  0.00  0.00    +0.000 C 
BRANCH  11  15
ATOM     12  C   UNL     1     101.388 127.683  83.809  0.00  0.00    +0.000 A 
ATOM     13  C   UNL     1     102.442 128.477  83.362  0.00  0.00    +0.000 A 
ATOM     14  C   UNL     1     103.174 128.097  82.235  0.00  0.00    +0.000 A 
ATOM     15  C   UNL     1     102.850 126.925  81.539  0.00  0.00    +0.000 A 
ATOM     16  C   UNL     1     101.799 126.125  82.009  0.00  0.00    +0.000 A 
ATOM     17  C   UNL     1     101.068 126.505  83.135  0.00  0.00    +0.000 A 
ENDBRANCH  11  15
ENDBRANCH  10  11
ENDBRANCH   1  10
TORSDOF 4
ENDMDL
