REMARK  Name = *****
REMARK  4 active torsions:
REMARK  status: ('A' for Active; 'I' for Inactive)
REMARK    1  A    between atoms: C_1  and  C_2
REMARK    2  A    between atoms: C_2  and  C_16
REMARK    3  A    between atoms: C_6  and  C_8
REMARK    4  A    between atoms: C_9  and  C_10
REMARK                            x       y       z     vdW  Elec       q    Type
REMARK                         _______ _______ _______ _____ _____    ______ ____
ROOT
ATOM      1  C   UNL     1       0.858  -0.252   0.367  0.00  0.00    +0.000 C 
ATOM      2  C   UNL     1       2.350  -0.028   0.076  0.00  0.00    +0.000 C 
ATOM      3  C   UNL     1       2.513   1.278  -0.729  0.00  0.00    +0.000 C 
ATOM      4  C   UNL     1       3.848   1.343  -1.466  0.00  0.00    +0.000 C 
ATOM      5  C   UNL     1       4.034   0.145  -2.399  0.00  0.00    +0.000 C 
ATOM      6  C   UNL     1       3.667  -1.177  -1.764  0.00  0.00    +0.000 C 
ATOM      7  C   UNL     1       2.928  -1.232  -0.639  0.00  0.00    +0.000 C 
ENDROOT
BRANCH   6   8
ATOM      8  C   UNL     1       4.128  -2.420  -2.376  0.00  0.00    +0.000 C 
ATOM      9  C   UNL     1       4.771  -2.536  -3.549  0.00  0.00    +0.000 C 
BRANCH   9  10
ATOM     10  C   UNL     1       5.212  -3.819  -4.117  0.00  0.00    +0.000 A 
ATOM     11  C   UNL     1       4.421  -4.974  -4.058  0.00  0.00    +0.000 A 
ATOM     12  C   UNL     1       4.861  -6.168  -4.637  0.00  0.00    +0.000 A 
ATOM     13  C   UNL     1       6.090  -6.215  -5.291  0.00  0.00    +0.000 A 
ATOM     14  C   UNL     1       6.878  -5.069  -5.371  0.00  0.00    +0.000 A 
ATOM     15  C   UNL     1       6.438  -3.876  -4.792  0.00  0.00    +0.000 A 
ENDBRANCH   9  10
ENDBRANCH   6   8
BRANCH   2  16
ATOM     16  C   UNL     1       3.100   0.083   1.406  0.00  0.00    +0.000 C 
ATOM     17  O   UNL     1       2.823  -0.563   2.415  0.00  0.00    +0.000 OA
ENDBRANCH   2  16
TORSDOF 3
