REMARK  Name = *****
REMARK  2 active torsions:
REMARK  status: ('A' for Active; 'I' for Inactive)
REMARK    1  A    between atoms: C_4  and  N_7
REMARK    2  A    between atoms: C_8  and  C_9
REMARK                            x       y       z     vdW  Elec       q    Type
REMARK                         _______ _______ _______ _____ _____    ______ ____
ROOT
ATOM      1  N   UNL     1      -2.720   0.363  -0.743  0.00  0.00    +0.000 NA
ATOM      2  C   UNL     1      -3.618  -0.529  -0.450  0.00  0.00    +0.000 C 
ATOM      3 CL   UNL     1      -5.244  -0.045  -0.829  0.00  0.00    +0.000 Cl
ENDROOT
BRANCH   2   4
ATOM      4  C   UNL     1      -3.391  -1.867   0.153  0.00  0.00    +0.000 A 
ATOM      5  C   UNL     1      -3.894  -2.997  -0.496  0.00  0.00    +0.000 A 
ATOM      6  C   UNL     1      -3.696  -4.248   0.076  0.00  0.00    +0.000 A 
ATOM      7  C   UNL     1      -3.015  -4.390   1.282  0.00  0.00    +0.000 A 
ATOM      8  C   UNL     1      -2.525  -3.259   1.935  0.00  0.00    +0.000 A 
ATOM      9  C   UNL     1      -2.717  -1.995   1.374  0.00  0.00    +0.000 A 
ATOM     10  F   UNL     1      -4.168  -5.336  -0.544  0.00  0.00    +0.000 F 
ENDBRANCH   2   4
BRANCH   1  14
ATOM     11  C   UNL     1       1.395  -0.301  -0.211  0.00  0.00    +0.000 A 
ATOM     12  C   UNL     1       0.704  -1.006  -1.196  0.00  0.00    +0.000 A 
ATOM     13  C   UNL     1      -0.663  -0.791  -1.379  0.00  0.00    +0.000 A 
ATOM     14  C   UNL     1      -1.354   0.114  -0.566  0.00  0.00    +0.000 A 
ATOM     15  C   UNL     1      -0.646   0.837   0.398  0.00  0.00    +0.000 A 
ATOM     16  C   UNL     1       0.721   0.626   0.583  0.00  0.00    +0.000 A 
ENDBRANCH   1  14
TORSDOF 2
