MODEL 1
REMARK VINA RESULT:      -4.8      0.000      0.000
REMARK  Name = *****
REMARK  2 active torsions:
REMARK  status: ('A' for Active; 'I' for Inactive)
REMARK    1  A    between atoms: C_3  and  C_8
REMARK    2  A    between atoms: N_9  and  C_10
REMARK                            x       y       z     vdW  Elec       q    Type
REMARK                         _______ _______ _______ _____ _____    ______ ____
ROOT
ATOM      1  C   UNL     1     102.727 126.211  81.597  0.00  0.00    +0.000 C 
ATOM      2  N   UNL     1     101.708 125.878  82.324  0.00  0.00    +0.000 NA
ENDROOT
BRANCH   1   5
ATOM      3  C   UNL     1     104.869 123.124  81.512  0.00  0.00    +0.000 A 
ATOM      4  C   UNL     1     103.939 124.079  81.925  0.00  0.00    +0.000 A 
ATOM      5  C   UNL     1     103.714 125.215  81.139  0.00  0.00    +0.000 A 
ATOM      6  C   UNL     1     104.415 125.400  79.944  0.00  0.00    +0.000 A 
ATOM      7  C   UNL     1     105.340 124.441  79.540  0.00  0.00    +0.000 A 
ATOM      8  C   UNL     1     105.570 123.305  80.317  0.00  0.00    +0.000 A 
ATOM      9 CL   UNL     1     106.207 124.655  78.070  0.00  0.00    +0.000 Cl
ENDBRANCH   1   5
BRANCH   2  10
ATOM     10  C   UNL     1     100.846 126.920  82.691  0.00  0.00    +0.000 A 
ATOM     11  C   UNL     1     101.340 128.061  83.327  0.00  0.00    +0.000 A 
ATOM     12  C   UNL     1     100.471 129.094  83.671  0.00  0.00    +0.000 A 
ATOM     13  C   UNL     1      99.111 129.007  83.376  0.00  0.00    +0.000 A 
ATOM     14  C   UNL     1      98.617 127.878  82.725  0.00  0.00    +0.000 A 
ATOM     15  C   UNL     1      99.485 126.840  82.381  0.00  0.00    +0.000 A 
ATOM     16 CL   UNL     1     101.081 130.493  84.468  0.00  0.00    +0.000 Cl
ENDBRANCH   2  10
TORSDOF 2
ENDMDL
