REMARK  Name = *****
REMARK  4 active torsions:
REMARK  status: ('A' for Active; 'I' for Inactive)
REMARK    1  A    between atoms: C_1  and  C_2
REMARK    2  A    between atoms: C_2  and  C_11
REMARK    3  A    between atoms: N_3  and  O_4
REMARK    4  A    between atoms: O_4  and  C_5
REMARK                            x       y       z     vdW  Elec       q    Type
REMARK                         _______ _______ _______ _____ _____    ______ ____
ROOT
ATOM      1  C   UNL     1       0.997   0.235   0.039  0.00  0.00    +0.000 C 
ATOM      2  C   UNL     1       2.496   0.032  -0.078  0.00  0.00    +0.000 C 
ATOM      3  N   UNL     1       3.177   0.324  -1.149  0.00  0.00    +0.000 NA
ENDROOT
BRANCH   2   4
ATOM      4  C   UNL     1       3.230  -0.554   1.092  0.00  0.00    +0.000 A 
ATOM      5  C   UNL     1       2.559  -1.210   2.134  0.00  0.00    +0.000 A 
ATOM      6  C   UNL     1       3.279  -1.743   3.208  0.00  0.00    +0.000 A 
ATOM      7  C   UNL     1       4.664  -1.629   3.234  0.00  0.00    +0.000 A 
ATOM      8  C   UNL     1       5.347  -0.993   2.206  0.00  0.00    +0.000 A 
ATOM      9  C   UNL     1       4.631  -0.456   1.134  0.00  0.00    +0.000 A 
ATOM     10  F   UNL     1       5.349  -2.143   4.264  0.00  0.00    +0.000 F 
ENDBRANCH   2   4
BRANCH   3  11
ATOM     11  O   UNL     1       2.362   0.840  -2.164  0.00  0.00    +0.000 OA
BRANCH  11  12
ATOM     12  C   UNL     1       3.118   1.273  -3.230  0.00  0.00    +0.000 A 
ATOM     13  C   UNL     1       4.415   0.835  -3.506  0.00  0.00    +0.000 A 
ATOM     14  C   UNL     1       5.096   1.326  -4.623  0.00  0.00    +0.000 A 
ATOM     15  C   UNL     1       4.479   2.248  -5.469  0.00  0.00    +0.000 A 
ATOM     16  C   UNL     1       3.180   2.677  -5.203  0.00  0.00    +0.000 A 
ATOM     17  C   UNL     1       2.499   2.187  -4.087  0.00  0.00    +0.000 A 
ENDBRANCH  11  12
ENDBRANCH   3  11
TORSDOF 3
