REMARK  Name = *****
REMARK  4 active torsions:
REMARK  status: ('A' for Active; 'I' for Inactive)
REMARK    1  A    between atoms: C_4  and  C_7
REMARK    2  A    between atoms: C_7  and  S_8
REMARK    3  A    between atoms: S_8  and  C_9
REMARK    4  A    between atoms: C_10  and  C_11
REMARK                            x       y       z     vdW  Elec       q    Type
REMARK                         _______ _______ _______ _____ _____    ______ ____
ROOT
ATOM      1  S   UNL     1      -3.805  -1.236  -0.277  0.00  0.00    +0.000 S 
ENDROOT
BRANCH   1   2
ATOM      2  C   UNL     1      -5.432  -0.665  -0.403  0.00  0.00    +0.000 C 
ATOM      3  C   UNL     1      -6.484  -1.488  -0.460  0.00  0.00    +0.000 C 
ATOM      4  F   UNL     1      -6.293  -2.830  -0.424  0.00  0.00    +0.000 F 
ATOM      5  F   UNL     1      -5.649   0.670  -0.436  0.00  0.00    +0.000 F 
BRANCH   3   6
ATOM      6  C   UNL     1      -7.870  -0.968  -0.569  0.00  0.00    +0.000 C 
ATOM      7  F   UNL     1      -8.775  -1.965  -0.748  0.00  0.00    +0.000 F 
ATOM      8  F   UNL     1      -8.252  -0.294   0.546  0.00  0.00    +0.000 F 
ATOM      9  F   UNL     1      -8.024  -0.117  -1.617  0.00  0.00    +0.000 F 
ENDBRANCH   3   6
ENDBRANCH   1   2
BRANCH   1  10
ATOM     10  C   UNL     1      -2.914   0.345  -0.183  0.00  0.00    +0.000 C 
BRANCH  10  14
ATOM     11  C   UNL     1       1.334  -0.272   0.239  0.00  0.00    +0.000 A 
ATOM     12  C   UNL     1       0.769  -0.160  -1.030  0.00  0.00    +0.000 A 
ATOM     13  C   UNL     1      -0.606   0.041  -1.168  0.00  0.00    +0.000 A 
ATOM     14  C   UNL     1      -1.428   0.138  -0.035  0.00  0.00    +0.000 A 
ATOM     15  C   UNL     1      -0.849   0.013   1.236  0.00  0.00    +0.000 A 
ATOM     16  C   UNL     1       0.526  -0.188   1.371  0.00  0.00    +0.000 A 
ENDBRANCH  10  14
ENDBRANCH   1  10
TORSDOF 4
