MODEL 1
REMARK VINA RESULT:      -4.4      0.000      0.000
REMARK  Name = *****
REMARK  4 active torsions:
REMARK  status: ('A' for Active; 'I' for Inactive)
REMARK    1  A    between atoms: C_2  and  C_3
REMARK    2  A    between atoms: C_3  and  C_4
REMARK    3  A    between atoms: C_3  and  S_10
REMARK    4  A    between atoms: S_10  and  C_11
REMARK                            x       y       z     vdW  Elec       q    Type
REMARK                         _______ _______ _______ _____ _____    ______ ____
ROOT
ATOM      1  C   UNL     1     103.274 126.085  81.492  0.00  0.00    +0.000 C 
ENDROOT
BRANCH   1   2
ATOM      2  C   UNL     1     103.872 124.696  81.660  0.00  0.00    +0.000 A 
ATOM      3  C   UNL     1     104.369 124.027  80.525  0.00  0.00    +0.000 A 
ATOM      4  C   UNL     1     104.918 122.746  80.626  0.00  0.00    +0.000 A 
ATOM      5  C   UNL     1     104.981 122.112  81.862  0.00  0.00    +0.000 A 
ATOM      6  C   UNL     1     104.499 122.758  82.998  0.00  0.00    +0.000 A 
ATOM      7  C   UNL     1     103.950 124.039  82.898  0.00  0.00    +0.000 A 
ENDBRANCH   1   2
BRANCH   1   9
ATOM      8  C   UNL     1     104.016 128.228  80.378  0.00  0.00    +0.000 C 
ATOM      9  C   UNL     1     103.794 126.905  80.335  0.00  0.00    +0.000 C 
ENDBRANCH   1   9
BRANCH   1  10
ATOM     10  S   UNL     1     103.292 127.122  83.013  0.00  0.00    +0.000 S 
BRANCH  10  11
ATOM     11  C   UNL     1     101.514 127.304  83.444  0.00  0.00    +0.000 C 
ATOM     12  C   UNL     1     100.702 126.607  82.338  0.00  0.00    +0.000 C 
ATOM     13  C   UNL     1      99.198 126.738  82.577  0.00  0.00    +0.000 C 
ATOM     14  C   UNL     1      98.781 128.197  82.717  0.00  0.00    +0.000 C 
ATOM     15  C   UNL     1      99.585 128.905  83.801  0.00  0.00    +0.000 C 
ATOM     16  C   UNL     1     101.091 128.771  83.574  0.00  0.00    +0.000 C 
ENDBRANCH  10  11
ENDBRANCH   1  10
TORSDOF 4
ENDMDL
