MODEL 1
REMARK VINA RESULT:      -4.0      0.000      0.000
REMARK  Name = *****
REMARK  3 active torsions:
REMARK  status: ('A' for Active; 'I' for Inactive)
REMARK    1  A    between atoms: C_3  and  O_9
REMARK    2  A    between atoms: O_9  and  C_10
REMARK    3  A    between atoms: C_10  and  C_12
REMARK                            x       y       z     vdW  Elec       q    Type
REMARK                         _______ _______ _______ _____ _____    ______ ____
ROOT
ATOM      1  C   UNL     1      99.751 126.813  82.542  0.00  0.00    +0.000 A 
ATOM      2  C   UNL     1     101.035 126.364  82.247  0.00  0.00    +0.000 A 
ATOM      3  C   UNL     1     102.133 127.165  82.575  0.00  0.00    +0.000 A 
ATOM      4  C   UNL     1     101.974 128.394  83.228  0.00  0.00    +0.000 A 
ATOM      5  C   UNL     1     100.678 128.835  83.520  0.00  0.00    +0.000 A 
ATOM      6  C   UNL     1      99.573 128.046  83.175  0.00  0.00    +0.000 A 
ATOM      7 CL   UNL     1     100.366 130.336  84.319  0.00  0.00    +0.000 Cl
ATOM      8 CL   UNL     1     103.373 129.316  83.664  0.00  0.00    +0.000 Cl
ENDROOT
BRANCH   3   9
ATOM      9  O   UNL     1     103.410 126.669  82.288  0.00  0.00    +0.000 OA
BRANCH   9  10
ATOM     10  C   UNL     1     103.689 126.643  80.921  0.00  0.00    +0.000 C 
ATOM     11  O   UNL     1     103.395 127.538  80.134  0.00  0.00    +0.000 OA
BRANCH  10  12
ATOM     12  C   UNL     1     104.355 125.394  80.595  0.00  0.00    +0.000 A 
ATOM     13  C   UNL     1     104.084 124.107  81.029  0.00  0.00    +0.000 A 
ATOM     14  C   UNL     1     104.975 123.142  80.475  0.00  0.00    +0.000 A 
ATOM     15  C   UNL     1     105.901 123.720  79.637  0.00  0.00    +0.000 A 
ATOM     16  S   UNL     1     105.693 125.412  79.522  0.00  0.00    +0.000 S 
ENDBRANCH  10  12
ENDBRANCH   9  10
ENDBRANCH   3   9
TORSDOF 3
ENDMDL
