MODEL 1
REMARK VINA RESULT:      -4.5      0.000      0.000
REMARK  Name = *****
REMARK  2 active torsions:
REMARK  status: ('A' for Active; 'I' for Inactive)
REMARK    1  A    between atoms: C_3  and  C_7
REMARK    2  A    between atoms: C_8  and  C_9
REMARK                            x       y       z     vdW  Elec       q    Type
REMARK                         _______ _______ _______ _____ _____    ______ ____
ROOT
ATOM      1  C   UNL     1      97.656 118.318  80.776  0.00  0.00    +0.000 C 
ATOM      2  C   UNL     1      97.997 117.597  79.695  0.00  0.00    +0.000 C 
ENDROOT
BRANCH   2   3
ATOM      3  C   UNL     1      97.236 116.442  79.197  0.00  0.00    +0.000 A 
ATOM      4  C   UNL     1      96.418 115.666  80.030  0.00  0.00    +0.000 A 
ATOM      5  C   UNL     1      95.685 114.594  79.511  0.00  0.00    +0.000 A 
ATOM      6  C   UNL     1      95.757 114.300  78.152  0.00  0.00    +0.000 A 
ATOM      7  C   UNL     1      96.552 115.071  77.307  0.00  0.00    +0.000 A 
ATOM      8  C   UNL     1      97.284 116.142  77.828  0.00  0.00    +0.000 A 
ATOM      9 CL   UNL     1      94.854 112.983  77.512  0.00  0.00    +0.000 Cl
ENDBRANCH   2   3
BRANCH   1  12
ATOM     10  C   UNL     1      97.962 119.189  83.771  0.00  0.00    +0.000 C 
ATOM     11  C   UNL     1      99.033 119.244  82.677  0.00  0.00    +0.000 C 
ATOM     12  C   UNL     1      98.455 119.506  81.277  0.00  0.00    +0.000 C 
ATOM     13  C   UNL     1      97.605 120.795  81.275  0.00  0.00    +0.000 C 
ATOM     14  C   UNL     1      96.752 120.973  82.501  0.00  0.00    +0.000 C 
ATOM     15  C   UNL     1      96.904 120.242  83.615  0.00  0.00    +0.000 C 
ENDBRANCH   1  12
TORSDOF 2
ENDMDL
