MODEL 1
REMARK VINA RESULT:      -4.6      0.000      0.000
REMARK  Name = *****
REMARK  7 active torsions:
REMARK  status: ('A' for Active; 'I' for Inactive)
REMARK    1  A    between atoms: C_1  and  C_2
REMARK    2  A    between atoms: C_5  and  C_8
REMARK    3  A    between atoms: C_8  and  C_10
REMARK    4  A    between atoms: C_10  and  C_11
REMARK    5  A    between atoms: C_11  and  C_12
REMARK    6  A    between atoms: C_13  and  C_19
REMARK    7  A    between atoms: C_16  and  C_18
REMARK                            x       y       z     vdW  Elec       q    Type
REMARK                         _______ _______ _______ _____ _____    ______ ____
ROOT
ATOM      1  C   UNL     1     100.285 126.505  82.296  0.00  0.00    +0.000 C 
ENDROOT
BRANCH   1   2
ATOM      2  C   UNL     1      98.959 127.167  82.620  0.00  0.00    +0.000 C 
ATOM      3  O   UNL     1      97.897 126.776  82.143  0.00  0.00    +0.000 OA
BRANCH   2   8
ATOM      4  C   UNL     1      98.902 131.609  86.369  0.00  0.00    +0.000 C 
ATOM      5  C   UNL     1      98.896 130.478  85.384  0.00  0.00    +0.000 A 
ATOM      6  C   UNL     1      98.501 129.196  85.782  0.00  0.00    +0.000 A 
ATOM      7  C   UNL     1      98.526 128.135  84.873  0.00  0.00    +0.000 A 
ATOM      8  C   UNL     1      98.955 128.336  83.554  0.00  0.00    +0.000 A 
ATOM      9  C   UNL     1      99.365 129.614  83.159  0.00  0.00    +0.000 A 
ATOM     10  C   UNL     1      99.341 130.675  84.071  0.00  0.00    +0.000 A 
ENDBRANCH   2   8
ENDBRANCH   1   2
BRANCH   1  11
ATOM     11  C   UNL     1     101.247 126.549  83.484  0.00  0.00    +0.000 C 
BRANCH  11  12
ATOM     12  C   UNL     1     102.345 127.568  83.265  0.00  0.00    +0.000 A 
ATOM     13  C   UNL     1     102.785 128.436  84.283  0.00  0.00    +0.000 A 
ATOM     14  C   UNL     1     103.814 129.349  84.003  0.00  0.00    +0.000 A 
ATOM     15  C   UNL     1     104.415 129.392  82.744  0.00  0.00    +0.000 A 
ATOM     16  C   UNL     1     104.005 128.518  81.737  0.00  0.00    +0.000 A 
ATOM     17  C   UNL     1     102.963 127.621  82.001  0.00  0.00    +0.000 A 
ATOM     18  C   UNL     1     104.621 128.587  80.371  0.00  0.00    +0.000 C 
ATOM     19  C   UNL     1     102.160 128.444  85.650  0.00  0.00    +0.000 C 
ENDBRANCH  11  12
ENDBRANCH   1  11
TORSDOF 4
ENDMDL
