MODEL 1
REMARK VINA RESULT:      -4.6      0.000      0.000
REMARK  Name = *****
REMARK  4 active torsions:
REMARK  status: ('A' for Active; 'I' for Inactive)
REMARK    1  A    between atoms: C_7  and  O_8
REMARK    2  A    between atoms: O_8  and  C_9
REMARK    3  A    between atoms: C_9  and  C_11
REMARK    4  A    between atoms: C_11  and  C_12
REMARK                            x       y       z     vdW  Elec       q    Type
REMARK                         _______ _______ _______ _____ _____    ______ ____
ROOT
ATOM      1  C   UNL     1      88.314  66.047  86.276  0.00  0.00    +0.000 C 
ATOM      2  O   UNL     1      87.422  66.538  85.595  0.00  0.00    +0.000 OA
ENDROOT
BRANCH   1   3
ATOM      3  O   UNL     1      88.211  64.889  86.990  0.00  0.00    +0.000 OA
BRANCH   3  10
ATOM      4  C   UNL     1      87.707  64.177  91.146  0.00  0.00    +0.000 C 
ATOM      5  C   UNL     1      89.056  63.845  90.494  0.00  0.00    +0.000 C 
ATOM      6  C   UNL     1      88.687  63.656  89.014  0.00  0.00    +0.000 C 
ATOM      7  C   UNL     1      87.313  62.988  89.122  0.00  0.00    +0.000 C 
ATOM      8  C   UNL     1      86.726  64.121  89.962  0.00  0.00    +0.000 C 
ATOM      9  C   UNL     1      86.965  65.341  89.054  0.00  0.00    +0.000 C 
ATOM     10  C   UNL     1      88.333  65.033  88.412  0.00  0.00    +0.000 C 
ENDBRANCH   3  10
ENDBRANCH   1   3
BRANCH   1  11
ATOM     11  C   UNL     1      89.690  66.646  86.433  0.00  0.00    +0.000 C 
BRANCH  11  12
ATOM     12  C   UNL     1      89.731  68.115  86.104  0.00  0.00    +0.000 A 
ATOM     13  C   UNL     1      89.474  69.074  87.093  0.00  0.00    +0.000 A 
ATOM     14  C   UNL     1      89.492  70.434  86.780  0.00  0.00    +0.000 A 
ATOM     15  C   UNL     1      89.761  70.847  85.477  0.00  0.00    +0.000 A 
ATOM     16  C   UNL     1      90.009  69.901  84.484  0.00  0.00    +0.000 A 
ATOM     17  C   UNL     1      89.992  68.540  84.795  0.00  0.00    +0.000 A 
ENDBRANCH  11  12
ENDBRANCH   1  11
TORSDOF 4
ENDMDL
