MODEL 1
REMARK VINA RESULT:      -4.6      0.000      0.000
REMARK  Name = *****
REMARK  2 active torsions:
REMARK  status: ('A' for Active; 'I' for Inactive)
REMARK    1  A    between atoms: N_11  and  C_12
REMARK    2  A    between atoms: C_12  and  C_13
REMARK                            x       y       z     vdW  Elec       q    Type
REMARK                         _______ _______ _______ _____ _____    ______ ____
ROOT
ATOM      1  C   UNL     1      99.750 127.621  82.957  0.00  0.00    +0.000 C 
ATOM      2  C   UNL     1      99.574 128.773  83.901  0.00  0.00    +0.000 A 
ATOM      3  C   UNL     1      99.441 130.089  83.439  0.00  0.00    +0.000 A 
ATOM      4  C   UNL     1      99.238 131.132  84.343  0.00  0.00    +0.000 A 
ATOM      5  C   UNL     1      99.157 130.866  85.708  0.00  0.00    +0.000 A 
ATOM      6  C   UNL     1      99.281 129.556  86.173  0.00  0.00    +0.000 A 
ATOM      7  C   UNL     1      99.494 128.510  85.272  0.00  0.00    +0.000 A 
ATOM      8  S   UNL     1      99.646 126.839  85.855  0.00  0.00    +0.000 S 
ATOM      9  C   UNL     1     100.784 126.162  84.691  0.00  0.00    +0.000 C 
ATOM     10  O   UNL     1     101.526 125.252  85.044  0.00  0.00    +0.000 OA
ATOM     11  N   UNL     1     100.784 126.705  83.415  0.00  0.00    +0.000 N 
ENDROOT
BRANCH  11  12
ATOM     12  C   UNL     1     101.695 126.155  82.420  0.00  0.00    +0.000 C 
BRANCH  12  13
ATOM     13  C   UNL     1     102.762 127.143  82.009  0.00  0.00    +0.000 A 
ATOM     14  C   UNL     1     103.227 127.173  80.685  0.00  0.00    +0.000 A 
ATOM     15  C   UNL     1     104.213 128.082  80.300  0.00  0.00    +0.000 A 
ATOM     16  C   UNL     1     104.740 128.975  81.231  0.00  0.00    +0.000 A 
ATOM     17  C   UNL     1     104.281 128.960  82.547  0.00  0.00    +0.000 A 
ATOM     18  C   UNL     1     103.294 128.051  82.935  0.00  0.00    +0.000 A 
ENDBRANCH  12  13
ENDBRANCH  11  12
TORSDOF 2
ENDMDL
