MODEL 1
REMARK VINA RESULT:      -4.7      0.000      0.000
REMARK  Name = *****
REMARK  3 active torsions:
REMARK  status: ('A' for Active; 'I' for Inactive)
REMARK    1  A    between atoms: C_6  and  C_7
REMARK    2  A    between atoms: C_7  and  C_8
REMARK    3  A    between atoms: C_8  and  C_9
REMARK                            x       y       z     vdW  Elec       q    Type
REMARK                         _______ _______ _______ _____ _____    ______ ____
ROOT
ATOM      1  C   UNL     1      88.719  70.299  86.860  0.00  0.00    +0.000 C 
ATOM      2  F   UNL     1      89.937  70.889  86.643  0.00  0.00    +0.000 F 
ENDROOT
BRANCH   1   3
ATOM      3  C   UNL     1      88.825  68.787  86.860  0.00  0.00    +0.000 A 
ATOM      4  C   UNL     1      87.810  68.003  87.431  0.00  0.00    +0.000 A 
ATOM      5  C   UNL     1      87.910  66.611  87.441  0.00  0.00    +0.000 A 
ATOM      6  C   UNL     1      89.026  66.002  86.881  0.00  0.00    +0.000 A 
ATOM      7  C   UNL     1      90.043  66.756  86.310  0.00  0.00    +0.000 A 
ATOM      8  C   UNL     1      89.944  68.149  86.298  0.00  0.00    +0.000 A 
ATOM      9  F   UNL     1      89.122  64.665  86.891  0.00  0.00    +0.000 F 
ENDBRANCH   1   3
BRANCH   1  10
ATOM     10  C   UNL     1      87.753  70.789  85.773  0.00  0.00    +0.000 C 
BRANCH  10  16
ATOM     11  C   UNL     1      86.285  71.404  87.743  0.00  0.00    +0.000 A 
ATOM     12  C   UNL     1      85.119  71.957  88.275  0.00  0.00    +0.000 A 
ATOM     13  C   UNL     1      84.155  72.479  87.420  0.00  0.00    +0.000 A 
ATOM     14  C   UNL     1      84.336  72.462  86.044  0.00  0.00    +0.000 A 
ATOM     15  C   UNL     1      85.501  71.911  85.510  0.00  0.00    +0.000 A 
ATOM     16  C   UNL     1      86.484  71.374  86.355  0.00  0.00    +0.000 A 
ATOM     17  F   UNL     1      83.037  73.009  87.934  0.00  0.00    +0.000 F 
ENDBRANCH  10  16
ENDBRANCH   1  10
TORSDOF 3
ENDMDL
