MODEL 1
REMARK VINA RESULT:      -4.1      0.000      0.000
REMARK  Name = *****
REMARK  3 active torsions:
REMARK  status: ('A' for Active; 'I' for Inactive)
REMARK    1  A    between atoms: N_5  and  N_8
REMARK    2  A    between atoms: N_8  and  C_9
REMARK    3  A    between atoms: C_9  and  C_10
REMARK                            x       y       z     vdW  Elec       q    Type
REMARK                         _______ _______ _______ _____ _____    ______ ____
ROOT
ATOM      1  N   UNL     1      96.027 117.366  82.246  0.00  0.00    +0.000 NA
ENDROOT
BRANCH   1   6
ATOM      2  C   UNL     1      98.440 119.666  81.317  0.00  0.00    +0.000 C 
ATOM      3  C   UNL     1      97.396 120.762  81.514  0.00  0.00    +0.000 C 
ATOM      4  C   UNL     1      96.064 120.299  82.095  0.00  0.00    +0.000 C 
ATOM      5  C   UNL     1      96.152 119.471  83.382  0.00  0.00    +0.000 C 
ATOM      6  N   UNL     1      96.659 118.105  83.197  0.00  0.00    +0.000 NA
ATOM      7  C   UNL     1      98.125 118.007  83.263  0.00  0.00    +0.000 C 
ATOM      8  C   UNL     1      98.964 119.129  82.645  0.00  0.00    +0.000 C 
ENDBRANCH   1   6
BRANCH   1   9
ATOM      9  C   UNL     1      96.721 116.350  81.838  0.00  0.00    +0.000 C 
BRANCH   9  10
ATOM     10  C   UNL     1      96.735 115.938  80.422  0.00  0.00    +0.000 A 
ATOM     11  C   UNL     1      95.916 114.898  79.968  0.00  0.00    +0.000 A 
ATOM     12  C   UNL     1      95.945 114.526  78.623  0.00  0.00    +0.000 A 
ATOM     13  C   UNL     1      96.792 115.193  77.738  0.00  0.00    +0.000 A 
ATOM     14  C   UNL     1      97.610 116.231  78.187  0.00  0.00    +0.000 A 
ATOM     15  C   UNL     1      97.584 116.606  79.533  0.00  0.00    +0.000 A 
ATOM     16 CL   UNL     1      96.828 114.735  76.081  0.00  0.00    +0.000 Cl
ENDBRANCH   9  10
ENDBRANCH   1   9
TORSDOF 3
ENDMDL
