MODEL 1
REMARK VINA RESULT:      -4.3      0.000      0.000
REMARK  Name = *****
REMARK  4 active torsions:
REMARK  status: ('A' for Active; 'I' for Inactive)
REMARK    1  A    between atoms: C_1  and  C_2
REMARK    2  A    between atoms: C_2  and  C_11
REMARK    3  A    between atoms: N_3  and  C_4
REMARK    4  A    between atoms: C_9  and  S_10
REMARK                            x       y       z     vdW  Elec       q    Type
REMARK                         _______ _______ _______ _____ _____    ______ ____
ROOT
ATOM      1  C   UNL     1     102.943 127.091  81.117  0.00  0.00    +0.000 C 
ATOM      2  C   UNL     1     102.736 125.912  82.052  0.00  0.00    +0.000 C 
ATOM      3  N   UNL     1     101.817 125.866  82.976  0.00  0.00    +0.000 NA
ENDROOT
BRANCH   3   4
ATOM      4  C   UNL     1     100.954 126.962  83.170  0.00  0.00    +0.000 A 
ATOM      5  C   UNL     1      99.721 126.983  82.507  0.00  0.00    +0.000 A 
ATOM      6  C   UNL     1      98.846 128.061  82.662  0.00  0.00    +0.000 A 
ATOM      7  C   UNL     1      99.204 129.135  83.472  0.00  0.00    +0.000 A 
ATOM      8  C   UNL     1     100.440 129.139  84.121  0.00  0.00    +0.000 A 
ATOM      9  C   UNL     1     101.323 128.063  83.968  0.00  0.00    +0.000 A 
BRANCH   9  10
ATOM     10  S   UNL     1     102.903 128.126  84.806  0.00  0.00    +0.000 S 
ATOM     11  H   UNL     1     103.634 127.028  84.476  0.00  0.00    +0.000 HD
ENDBRANCH   9  10
ENDBRANCH   3   4
BRANCH   2  12
ATOM     12  C   UNL     1     103.653 124.738  81.910  0.00  0.00    +0.000 A 
ATOM     13  C   UNL     1     104.024 123.959  83.012  0.00  0.00    +0.000 A 
ATOM     14  C   UNL     1     104.877 122.866  82.844  0.00  0.00    +0.000 A 
ATOM     15  C   UNL     1     105.360 122.543  81.577  0.00  0.00    +0.000 A 
ATOM     16  C   UNL     1     104.984 123.305  80.472  0.00  0.00    +0.000 A 
ATOM     17  C   UNL     1     104.129 124.397  80.636  0.00  0.00    +0.000 A 
ENDBRANCH   2  12
TORSDOF 3
ENDMDL
