MODEL 1
REMARK VINA RESULT:      -5.1      0.000      0.000
REMARK  Name = *****
REMARK  3 active torsions:
REMARK  status: ('A' for Active; 'I' for Inactive)
REMARK    1  A    between atoms: C_1  and  C_2
REMARK    2  A    between atoms: C_4  and  C_17
REMARK    3  A    between atoms: C_6  and  C_8
REMARK                            x       y       z     vdW  Elec       q    Type
REMARK                         _______ _______ _______ _____ _____    ______ ____
ROOT
ATOM      1  C   UNL     1     102.939 126.188  81.601  0.00  0.00    +0.000 A 
ATOM      2  N   UNL     1     103.700 126.540  80.576  0.00  0.00    +0.000 NA
ATOM      3  C   UNL     1     104.434 125.412  80.313  0.00  0.00    +0.000 A 
ATOM      4  C   UNL     1     105.415 125.156  79.347  0.00  0.00    +0.000 A 
ATOM      5  C   UNL     1     105.999 123.880  79.320  0.00  0.00    +0.000 A 
ATOM      6  C   UNL     1     105.615 122.888  80.231  0.00  0.00    +0.000 A 
ATOM      7  C   UNL     1     104.635 123.130  81.203  0.00  0.00    +0.000 A 
ATOM      8  C   UNL     1     104.084 124.405  81.196  0.00  0.00    +0.000 A 
ATOM      9  O   UNL     1     103.123 124.896  82.029  0.00  0.00    +0.000 OA
ENDROOT
BRANCH   1  15
ATOM     10  C   UNL     1     101.730 130.097  84.505  0.00  0.00    +0.000 C 
ATOM     11  C   UNL     1     101.323 128.878  83.731  0.00  0.00    +0.000 A 
ATOM     12  C   UNL     1      99.985 128.470  83.683  0.00  0.00    +0.000 A 
ATOM     13  C   UNL     1      99.610 127.332  82.960  0.00  0.00    +0.000 A 
ATOM     14  C   UNL     1     100.595 126.598  82.284  0.00  0.00    +0.000 A 
ATOM     15  C   UNL     1     101.944 126.982  82.319  0.00  0.00    +0.000 A 
ATOM     16  C   UNL     1     102.294 128.128  83.050  0.00  0.00    +0.000 A 
ATOM     17  C   UNL     1      98.179 126.887  82.905  0.00  0.00    +0.000 C 
ENDBRANCH   1  15
TORSDOF 1
ENDMDL
