MODEL 1
REMARK VINA RESULT:      -4.9      0.000      0.000
REMARK  Name = *****
REMARK  2 active torsions:
REMARK  status: ('A' for Active; 'I' for Inactive)
REMARK    1  A    between atoms: C_5  and  C_9
REMARK    2  A    between atoms: C_10  and  C_11
REMARK                            x       y       z     vdW  Elec       q    Type
REMARK                         _______ _______ _______ _____ _____    ______ ____
ROOT
ATOM      1  C   UNL     1     104.749 121.724  82.216  0.00  0.00    +0.000 C 
ATOM      2  C   UNL     1     104.713 121.877  80.682  0.00  0.00    +0.000 C 
ATOM      3  C   UNL     1     105.247 123.264  80.320  0.00  0.00    +0.000 C 
ATOM      4  C   UNL     1     104.189 124.312  80.568  0.00  0.00    +0.000 C 
ATOM      5  C   UNL     1     103.779 124.707  81.793  0.00  0.00    +0.000 C 
ATOM      6  C   UNL     1     104.402 124.115  83.055  0.00  0.00    +0.000 C 
ATOM      7  C   UNL     1     105.411 122.964  82.838  0.00  0.00    +0.000 C 
ATOM      8  S   UNL     1     106.571 123.448  81.537  0.00  0.00    +0.000 S 
ENDROOT
BRANCH   5   9
ATOM      9  C   UNL     1     102.740 125.722  81.913  0.00  0.00    +0.000 C 
ATOM     10  C   UNL     1     101.982 125.954  82.998  0.00  0.00    +0.000 C 
BRANCH  10  11
ATOM     11  C   UNL     1     100.950 127.000  83.065  0.00  0.00    +0.000 A 
ATOM     12  C   UNL     1     101.198 128.258  83.627  0.00  0.00    +0.000 A 
ATOM     13  C   UNL     1     100.201 129.238  83.643  0.00  0.00    +0.000 A 
ATOM     14  C   UNL     1      98.952 128.972  83.087  0.00  0.00    +0.000 A 
ATOM     15  C   UNL     1      98.698 127.729  82.510  0.00  0.00    +0.000 A 
ATOM     16  C   UNL     1      99.695 126.750  82.494  0.00  0.00    +0.000 A 
ENDBRANCH  10  11
ENDBRANCH   5   9
TORSDOF 2
ENDMDL
