MODEL 1
REMARK VINA RESULT:      -4.4      0.000      0.000
REMARK  Name = *****
REMARK  3 active torsions:
REMARK  status: ('A' for Active; 'I' for Inactive)
REMARK    1  A    between atoms: C_1  and  C_2
REMARK    2  A    between atoms: C_5  and  C_7
REMARK    3  A    between atoms: C_8  and  C_9
REMARK                            x       y       z     vdW  Elec       q    Type
REMARK                         _______ _______ _______ _____ _____    ______ ____
ROOT
ATOM      1  C   UNL     1     102.972 125.396  81.740  0.00  0.00    +0.000 C 
ATOM      2  C   UNL     1     102.115 126.141  82.130  0.00  0.00    +0.000 C 
ENDROOT
BRANCH   1   7
ATOM      3  C   UNL     1     106.555 121.555  81.136  0.00  0.00    +0.000 C 
ATOM      4  C   UNL     1     105.672 122.740  80.946  0.00  0.00    +0.000 A 
ATOM      5  C   UNL     1     105.596 123.593  79.863  0.00  0.00    +0.000 A 
ATOM      6  C   UNL     1     104.623 124.618  80.053  0.00  0.00    +0.000 A 
ATOM      7  C   UNL     1     103.989 124.515  81.271  0.00  0.00    +0.000 A 
ATOM      8  S   UNL     1     104.567 123.187  82.175  0.00  0.00    +0.000 S 
ENDBRANCH   1   7
BRANCH   2   9
ATOM      9  C   UNL     1     101.095 127.034  82.588  0.00  0.00    +0.000 A 
ATOM     10  C   UNL     1      99.749 126.742  82.353  0.00  0.00    +0.000 A 
ATOM     11  C   UNL     1      98.756 127.615  82.800  0.00  0.00    +0.000 A 
ATOM     12  C   UNL     1      99.107 128.780  83.482  0.00  0.00    +0.000 A 
ATOM     13  C   UNL     1     100.449 129.074  83.719  0.00  0.00    +0.000 A 
ATOM     14  C   UNL     1     101.444 128.201  83.271  0.00  0.00    +0.000 A 
ENDBRANCH   2   9
TORSDOF 2
ENDMDL
