MODEL 1
REMARK VINA RESULT:      -4.1      0.000      0.000
REMARK  Name = *****
REMARK  1 active torsions:
REMARK  status: ('A' for Active; 'I' for Inactive)
REMARK    1  A    between atoms: N_8  and  C_9
REMARK                            x       y       z     vdW  Elec       q    Type
REMARK                         _______ _______ _______ _____ _____    ______ ____
ROOT
ATOM      1  C   UNL     1     103.172 124.953  82.121  0.00  0.00    +0.000 C 
ATOM      2  C   UNL     1     104.214 124.446  81.181  0.00  0.00    +0.000 A 
ATOM      3  C   UNL     1     104.557 125.365  80.227  0.00  0.00    +0.000 A 
ATOM      4  S   UNL     1     105.726 124.828  79.152  0.00  0.00    +0.000 S 
ATOM      5  C   UNL     1     105.802 123.304  79.965  0.00  0.00    +0.000 A 
ATOM      6  C   UNL     1     104.933 123.235  81.041  0.00  0.00    +0.000 A 
ATOM      7  S   UNL     1     103.698 126.880  80.354  0.00  0.00    +0.000 S 
ATOM      8  N   UNL     1     102.824 126.340  81.716  0.00  0.00    +0.000 N 
ENDROOT
BRANCH   8   9
ATOM      9  C   UNL     1     101.858 127.095  82.396  0.00  0.00    +0.000 A 
ATOM     10  C   UNL     1     102.183 128.252  83.128  0.00  0.00    +0.000 A 
ATOM     11  C   UNL     1     101.214 129.003  83.805  0.00  0.00    +0.000 A 
ATOM     12  C   UNL     1      99.882 128.615  83.772  0.00  0.00    +0.000 A 
ATOM     13  C   UNL     1      99.522 127.477  83.062  0.00  0.00    +0.000 A 
ATOM     14  C   UNL     1     100.497 126.732  82.386  0.00  0.00    +0.000 A 
ENDBRANCH   8   9
TORSDOF 1
ENDMDL
