MODEL 1
REMARK VINA RESULT:      -4.5      0.000      0.000
REMARK  Name = *****
REMARK  4 active torsions:
REMARK  status: ('A' for Active; 'I' for Inactive)
REMARK    1  A    between atoms: C_1  and  C_2
REMARK    2  A    between atoms: C_4  and  C_10
REMARK    3  A    between atoms: C_5  and  C_8
REMARK    4  A    between atoms: C_11  and  C_12
REMARK                            x       y       z     vdW  Elec       q    Type
REMARK                         _______ _______ _______ _____ _____    ______ ____
ROOT
ATOM      1  C   UNL     1     102.051 131.608  85.514  0.00  0.00    +0.000 C 
ATOM      2  C   UNL     1     101.232 130.564  84.812  0.00  0.00    +0.000 A 
ATOM      3  C   UNL     1     101.847 129.422  84.279  0.00  0.00    +0.000 A 
ATOM      4  C   UNL     1     101.103 128.445  83.593  0.00  0.00    +0.000 A 
ATOM      5  C   UNL     1      99.721 128.646  83.418  0.00  0.00    +0.000 A 
ATOM      6  C   UNL     1      99.109 129.795  83.937  0.00  0.00    +0.000 A 
ATOM      7  C   UNL     1      99.860 130.749  84.627  0.00  0.00    +0.000 A 
ENDROOT
BRANCH   5   8
ATOM      8  C   UNL     1      98.905 127.697  82.715  0.00  0.00    +0.000 C 
ATOM      9  N   UNL     1      98.248 126.937  82.131  0.00  0.00    +0.000 NA
ENDBRANCH   5   8
BRANCH   4  10
ATOM     10  C   UNL     1     101.791 127.265  83.036  0.00  0.00    +0.000 C 
ATOM     11  C   UNL     1     102.639 127.343  81.999  0.00  0.00    +0.000 C 
BRANCH  11  12
ATOM     12  C   UNL     1     103.310 126.200  81.470  0.00  0.00    +0.000 A 
ATOM     13  C   UNL     1     103.862 125.959  80.221  0.00  0.00    +0.000 A 
ATOM     14  C   UNL     1     104.446 124.665  80.100  0.00  0.00    +0.000 A 
ATOM     15  C   UNL     1     104.328 123.939  81.262  0.00  0.00    +0.000 A 
ATOM     16  S   UNL     1     103.515 124.813  82.481  0.00  0.00    +0.000 S 
ENDBRANCH  11  12
ENDBRANCH   4  10
TORSDOF 3
ENDMDL
