MODEL 1
REMARK VINA RESULT:      -4.9      0.000      0.000
REMARK  Name = *****
REMARK  3 active torsions:
REMARK  status: ('A' for Active; 'I' for Inactive)
REMARK    1  A    between atoms: C_1  and  C_2
REMARK    2  A    between atoms: C_5  and  N_8
REMARK    3  A    between atoms: N_8  and  P_9
REMARK                            x       y       z     vdW  Elec       q    Type
REMARK                         _______ _______ _______ _____ _____    ______ ____
ROOT
ATOM      1  N   UNL     1      87.458  62.600  87.810  0.00  0.00    +0.000 N 
ATOM      2  H   UNL     1      87.564  61.626  87.721  0.00  0.00    +0.000 HD
ENDROOT
BRANCH   1   3
ATOM      3  P   UNL     1      87.107  63.385  86.408  0.00  0.00    +0.000 P 
ATOM      4  O   UNL     1      87.457  64.911  86.905  0.00  0.00    +0.000 OA
ATOM      5  C   UNL     1      88.684  65.287  86.432  0.00  0.00    +0.000 A 
ATOM      6  C   UNL     1      89.285  66.513  86.626  0.00  0.00    +0.000 A 
ATOM      7  C   UNL     1      90.553  66.705  86.069  0.00  0.00    +0.000 A 
ATOM      8  C   UNL     1      91.183  65.678  85.340  0.00  0.00    +0.000 A 
ATOM      9  C   UNL     1      90.555  64.442  85.157  0.00  0.00    +0.000 A 
ATOM     10  C   UNL     1      89.305  64.275  85.714  0.00  0.00    +0.000 A 
ATOM     11  O   UNL     1      88.543  63.141  85.652  0.00  0.00    +0.000 OA
ENDBRANCH   1   3
BRANCH   1  16
ATOM     12  C   UNL     1      87.979  64.795  93.094  0.00  0.00    +0.000 C 
ATOM     13  C   UNL     1      87.861  64.186  91.729  0.00  0.00    +0.000 A 
ATOM     14  C   UNL     1      88.990  64.020  90.924  0.00  0.00    +0.000 A 
ATOM     15  C   UNL     1      88.876  63.485  89.635  0.00  0.00    +0.000 A 
ATOM     16  C   UNL     1      87.633  63.093  89.123  0.00  0.00    +0.000 A 
ATOM     17  C   UNL     1      86.500  63.302  89.924  0.00  0.00    +0.000 A 
ATOM     18  C   UNL     1      86.610  63.838  91.212  0.00  0.00    +0.000 A 
ENDBRANCH   1  16
TORSDOF 2
ENDMDL
