MODEL 1
REMARK VINA RESULT:      -4.4      0.000      0.000
REMARK  Name = *****
REMARK  1 active torsions:
REMARK  status: ('A' for Active; 'I' for Inactive)
REMARK    1  A    between atoms: C_6  and  C_7
REMARK                            x       y       z     vdW  Elec       q    Type
REMARK                         _______ _______ _______ _____ _____    ______ ____
ROOT
ATOM      1  C   UNL     1      94.996 116.613  79.529  0.00  0.00    +0.000 C 
ATOM      2  C   UNL     1      95.153 117.031  78.062  0.00  0.00    +0.000 C 
ATOM      3  C   UNL     1      96.202 116.195  77.311  0.00  0.00    +0.000 C 
ATOM      4  C   UNL     1      97.535 116.169  78.073  0.00  0.00    +0.000 C 
ATOM      5  C   UNL     1      97.388 115.816  79.562  0.00  0.00    +0.000 C 
ATOM      6  C   UNL     1      96.328 116.653  80.311  0.00  0.00    +0.000 C 
ATOM      7  S   UNL     1      95.589 114.474  77.054  0.00  0.00    +0.000 S 
ATOM      8  C   UNL     1      95.067 114.685  75.337  0.00  0.00    +0.000 C 
ATOM      9  C   UNL     1      96.145 115.488  74.647  0.00  0.00    +0.000 C 
ATOM     10  S   UNL     1      96.475 116.958  75.652  0.00  0.00    +0.000 S 
ENDROOT
BRANCH   6  11
ATOM     11  C   UNL     1      96.727 118.073  80.717  0.00  0.00    +0.000 A 
ATOM     12  C   UNL     1      98.051 118.527  80.767  0.00  0.00    +0.000 A 
ATOM     13  C   UNL     1      98.355 119.835  81.161  0.00  0.00    +0.000 A 
ATOM     14  C   UNL     1      97.340 120.712  81.531  0.00  0.00    +0.000 A 
ATOM     15  C   UNL     1      96.020 120.276  81.518  0.00  0.00    +0.000 A 
ATOM     16  C   UNL     1      95.719 118.970  81.123  0.00  0.00    +0.000 A 
ENDBRANCH   6  11
TORSDOF 1
ENDMDL
