MODEL 1
REMARK VINA RESULT:      -4.4      0.000      0.000
REMARK  Name = *****
REMARK  5 active torsions:
REMARK  status: ('A' for Active; 'I' for Inactive)
REMARK    1  A    between atoms: C_1  and  C_2
REMARK    2  A    between atoms: C_5  and  C_8
REMARK    3  A    between atoms: C_8  and  O_9
REMARK    4  A    between atoms: O_9  and  C_10
REMARK    5  A    between atoms: C_15  and  C_16
REMARK                            x       y       z     vdW  Elec       q    Type
REMARK                         _______ _______ _______ _____ _____    ______ ____
ROOT
ATOM      1  O   UNL     1      87.172  70.829  87.674  0.00  0.00    +0.000 OA
ENDROOT
BRANCH   1   2
ATOM      2  C   UNL     1      86.053  71.499  87.266  0.00  0.00    +0.000 A 
ATOM      3  C   UNL     1      85.060  71.973  88.134  0.00  0.00    +0.000 A 
ATOM      4  C   UNL     1      83.911  72.595  87.633  0.00  0.00    +0.000 A 
ATOM      5  C   UNL     1      83.734  72.744  86.262  0.00  0.00    +0.000 A 
ATOM      6  C   UNL     1      84.712  72.281  85.386  0.00  0.00    +0.000 A 
ATOM      7  C   UNL     1      85.877  71.672  85.884  0.00  0.00    +0.000 A 
BRANCH   7   8
ATOM      8  C   UNL     1      86.891  71.229  84.887  0.00  0.00    +0.000 C 
ATOM      9  O   UNL     1      87.798  72.023  84.635  0.00  0.00    +0.000 OA
ATOM     10 CL   UNL     1      86.816  69.605  84.239  0.00  0.00    +0.000 Cl
ENDBRANCH   7   8
ENDBRANCH   1   2
BRANCH   1  11
ATOM     11  C   UNL     1      87.018  69.522  88.222  0.00  0.00    +0.000 C 
BRANCH  11  16
ATOM     12  C   UNL     1      90.801  65.948  85.602  0.00  0.00    +0.000 C 
ATOM     13  C   UNL     1      89.811  66.872  86.247  0.00  0.00    +0.000 A 
ATOM     14  C   UNL     1      88.672  66.362  86.878  0.00  0.00    +0.000 A 
ATOM     15  C   UNL     1      87.769  67.221  87.511  0.00  0.00    +0.000 A 
ATOM     16  C   UNL     1      87.996  68.603  87.532  0.00  0.00    +0.000 A 
ATOM     17  C   UNL     1      89.149  69.109  86.919  0.00  0.00    +0.000 A 
ATOM     18  C   UNL     1      90.049  68.250  86.285  0.00  0.00    +0.000 A 
ENDBRANCH  11  16
ENDBRANCH   1  11
TORSDOF 4
ENDMDL
