MODEL 1
REMARK VINA RESULT:      -4.6      0.000      0.000
REMARK  Name = *****
REMARK  5 active torsions:
REMARK  status: ('A' for Active; 'I' for Inactive)
REMARK    1  A    between atoms: C_1  and  N_2
REMARK    2  A    between atoms: N_2  and  C_3
REMARK    3  A    between atoms: N_2  and  N_17
REMARK    4  A    between atoms: C_8  and  C_9
REMARK    5  A    between atoms: C_10  and  C_11
REMARK                            x       y       z     vdW  Elec       q    Type
REMARK                         _______ _______ _______ _____ _____    ______ ____
ROOT
ATOM      1  C   UNL     1      99.418 128.789  84.031  0.00  0.00    +0.000 A 
ATOM      2  C   UNL     1      98.787 129.880  84.670  0.00  0.00    +0.000 A 
ATOM      3  C   UNL     1      99.499 131.024  85.046  0.00  0.00    +0.000 A 
ATOM      4  C   UNL     1     100.861 131.111  84.791  0.00  0.00    +0.000 A 
ATOM      5  C   UNL     1     101.514 130.054  84.161  0.00  0.00    +0.000 A 
ATOM      6  C   UNL     1     100.809 128.901  83.779  0.00  0.00    +0.000 A 
ENDROOT
BRANCH   1   8
ATOM      7  C   UNL     1      98.117 126.864  84.757  0.00  0.00    +0.000 C 
ATOM      8  N   UNL     1      98.662 127.644  83.639  0.00  0.00    +0.000 N 
BRANCH   8   9
ATOM      9  N   UNL     1      98.286 127.495  82.343  0.00  0.00    +0.000 NA
ATOM     10  O   UNL     1      98.478 126.357  81.900  0.00  0.00    +0.000 OA
ENDBRANCH   8   9
ENDBRANCH   1   8
BRANCH   6  11
ATOM     11  C   UNL     1     101.570 127.839  83.186  0.00  0.00    +0.000 C 
ATOM     12  C   UNL     1     102.210 126.948  82.693  0.00  0.00    +0.000 C 
BRANCH  12  13
ATOM     13  C   UNL     1     102.986 125.885  82.134  0.00  0.00    +0.000 A 
ATOM     14  C   UNL     1     103.435 124.842  82.946  0.00  0.00    +0.000 A 
ATOM     15  C   UNL     1     104.195 123.807  82.395  0.00  0.00    +0.000 A 
ATOM     16  C   UNL     1     104.504 123.815  81.034  0.00  0.00    +0.000 A 
ATOM     17  C   UNL     1     104.056 124.857  80.223  0.00  0.00    +0.000 A 
ATOM     18  C   UNL     1     103.297 125.892  80.772  0.00  0.00    +0.000 A 
ENDBRANCH  12  13
ENDBRANCH   6  11
TORSDOF 4
ENDMDL
