MODEL 1
REMARK VINA RESULT:      -4.3      0.000      0.000
REMARK  Name = *****
REMARK  4 active torsions:
REMARK  status: ('A' for Active; 'I' for Inactive)
REMARK    1  A    between atoms: C_1  and  C_2
REMARK    2  A    between atoms: C_2  and  O_8
REMARK    3  A    between atoms: O_8  and  C_9
REMARK    4  A    between atoms: C_9  and  C_11
REMARK                            x       y       z     vdW  Elec       q    Type
REMARK                         _______ _______ _______ _____ _____    ______ ____
ROOT
ATOM      1  C   UNL     1     101.953 125.866  83.036  0.00  0.00    +0.000 C 
ATOM      2  O   UNL     1     102.309 125.230  84.012  0.00  0.00    +0.000 OA
ENDROOT
BRANCH   1   3
ATOM      3  C   UNL     1     100.975 126.986  83.106  0.00  0.00    +0.000 A 
ATOM      4  C   UNL     1     101.282 128.214  83.708  0.00  0.00    +0.000 A 
ATOM      5  C   UNL     1     100.322 129.225  83.742  0.00  0.00    +0.000 A 
ATOM      6  C   UNL     1      99.060 129.029  83.184  0.00  0.00    +0.000 A 
ATOM      7  C   UNL     1      98.750 127.809  82.584  0.00  0.00    +0.000 A 
ATOM      8  C   UNL     1      99.704 126.791  82.546  0.00  0.00    +0.000 A 
ATOM      9 CL   UNL     1     100.700 130.732  84.482  0.00  0.00    +0.000 Cl
ENDBRANCH   1   3
BRANCH   1  10
ATOM     10  O   UNL     1     102.364 125.682  81.761  0.00  0.00    +0.000 OA
BRANCH  10  12
ATOM     11  C   UNL     1     104.236 125.182  80.265  0.00  0.00    +0.000 C 
ATOM     12  C   UNL     1     103.673 126.159  81.311  0.00  0.00    +0.000 C 
ATOM     13  C   UNL     1     103.336 127.514  80.644  0.00  0.00    +0.000 C 
ATOM     14  C   UNL     1     104.533 128.348  80.193  0.00  0.00    +0.000 C 
ATOM     15  C   UNL     1     105.463 128.719  81.338  0.00  0.00    +0.000 C 
ATOM     16  S   UNL     1     106.169 127.248  82.126  0.00  0.00    +0.000 S 
ATOM     17  C   UNL     1     104.620 126.365  82.512  0.00  0.00    +0.000 C 
ENDBRANCH  10  12
ENDBRANCH   1  10
TORSDOF 3
ENDMDL
