MODEL 1
REMARK VINA RESULT:      -4.7      0.000      0.000
REMARK  Name = *****
REMARK  3 active torsions:
REMARK  status: ('A' for Active; 'I' for Inactive)
REMARK    1  A    between atoms: C_2  and  C_10
REMARK    2  A    between atoms: C_3  and  C_4
REMARK    3  A    between atoms: C_10  and  C_11
REMARK                            x       y       z     vdW  Elec       q    Type
REMARK                         _______ _______ _______ _____ _____    ______ ____
ROOT
ATOM      1  C   UNL     1      89.251  69.977  87.430  0.00  0.00    +0.000 C 
ATOM      2  C   UNL     1      89.352  70.848  86.210  0.00  0.00    +0.000 C 
ATOM      3  C   UNL     1      88.052  70.131  86.522  0.00  0.00    +0.000 C 
ENDROOT
BRANCH   3   4
ATOM      4  C   UNL     1      86.850  70.923  86.977  0.00  0.00    +0.000 A 
ATOM      5  C   UNL     1      85.969  71.506  86.053  0.00  0.00    +0.000 A 
ATOM      6  C   UNL     1      84.845  72.225  86.469  0.00  0.00    +0.000 A 
ATOM      7  C   UNL     1      84.576  72.370  87.826  0.00  0.00    +0.000 A 
ATOM      8  C   UNL     1      85.428  71.795  88.765  0.00  0.00    +0.000 A 
ATOM      9  C   UNL     1      86.549  71.077  88.341  0.00  0.00    +0.000 A 
ENDBRANCH   3   4
BRANCH   2  10
ATOM     10  C   UNL     1      90.161  70.426  85.020  0.00  0.00    +0.000 C 
BRANCH  10  11
ATOM     11  C   UNL     1      90.417  71.600  84.107  0.00  0.00    +0.000 A 
ATOM     12  C   UNL     1      91.630  71.711  83.412  0.00  0.00    +0.000 A 
ATOM     13  C   UNL     1      91.872  72.805  82.580  0.00  0.00    +0.000 A 
ATOM     14  C   UNL     1      90.910  73.802  82.440  0.00  0.00    +0.000 A 
ATOM     15  C   UNL     1      89.704  73.708  83.132  0.00  0.00    +0.000 A 
ATOM     16  C   UNL     1      89.459  72.614  83.965  0.00  0.00    +0.000 A 
ENDBRANCH  10  11
ENDBRANCH   2  10
TORSDOF 3
ENDMDL
