REMARK  Name = *****
REMARK  3 active torsions:
REMARK  status: ('A' for Active; 'I' for Inactive)
REMARK    1  A    between atoms: C_4  and  C_7
REMARK    2  A    between atoms: C_8  and  C_9
REMARK    3  A    between atoms: C_8  and  C_11
REMARK                            x       y       z     vdW  Elec       q    Type
REMARK                         _______ _______ _______ _____ _____    ______ ____
ROOT
ATOM      1  C   UNL     1      -2.881   0.393   0.044  0.00  0.00    +0.000 C 
ATOM      2  C   UNL     1      -3.629  -0.671  -0.311  0.00  0.00    +0.000 C 
ENDROOT
BRANCH   1   6
ATOM      3  C   UNL     1       1.357   0.338   0.487  0.00  0.00    +0.000 A 
ATOM      4  C   UNL     1       0.776   0.955  -0.620  0.00  0.00    +0.000 A 
ATOM      5  C   UNL     1      -0.613   0.973  -0.762  0.00  0.00    +0.000 A 
ATOM      6  C   UNL     1      -1.426   0.372   0.204  0.00  0.00    +0.000 A 
ATOM      7  C   UNL     1      -0.838  -0.240   1.316  0.00  0.00    +0.000 A 
ATOM      8  C   UNL     1       0.551  -0.258   1.456  0.00  0.00    +0.000 A 
ENDBRANCH   1   6
BRANCH   2   9
ATOM      9  C   UNL     1      -5.085  -0.463  -0.463  0.00  0.00    +0.000 A 
ATOM     10  C   UNL     1      -5.693  -0.556  -1.722  0.00  0.00    +0.000 A 
ATOM     11  C   UNL     1      -7.068  -0.357  -1.860  0.00  0.00    +0.000 A 
ATOM     12  C   UNL     1      -7.847  -0.063  -0.742  0.00  0.00    +0.000 A 
ATOM     13  C   UNL     1      -7.252   0.035   0.515  0.00  0.00    +0.000 A 
ATOM     14  C   UNL     1      -5.877  -0.162   0.654  0.00  0.00    +0.000 A 
ENDBRANCH   2   9
BRANCH   2  15
ATOM     15  C   UNL     1      -3.100  -2.034  -0.660  0.00  0.00    +0.000 C 
ATOM     16 BR   UNL     1      -3.421  -3.246   0.834  0.00  0.00    +0.000 Br
ENDBRANCH   2  15
TORSDOF 3
