MODEL 1
REMARK VINA RESULT:      -4.4      0.000      0.000
REMARK  Name = *****
REMARK  4 active torsions:
REMARK  status: ('A' for Active; 'I' for Inactive)
REMARK    1  A    between atoms: C_1  and  O_2
REMARK    2  A    between atoms: O_2  and  C_3
REMARK    3  A    between atoms: C_3  and  C_9
REMARK    4  A    between atoms: C_10  and  C_11
REMARK                            x       y       z     vdW  Elec       q    Type
REMARK                         _______ _______ _______ _____ _____    ______ ____
ROOT
ATOM      1  C   UNL     1     104.327 125.737  81.460  0.00  0.00    +0.000 C 
ATOM      2  C   UNL     1     104.041 124.258  81.269  0.00  0.00    +0.000 C 
ATOM      3  C   UNL     1     104.347 125.110  80.075  0.00  0.00    +0.000 C 
ATOM      4  C   UNL     1     105.598 124.584  79.432  0.00  0.00    +0.000 C 
ATOM      5  C   UNL     1     105.707 123.149  79.953  0.00  0.00    +0.000 C 
ATOM      6  C   UNL     1     105.101 123.195  81.359  0.00  0.00    +0.000 C 
ENDROOT
BRANCH   1   8
ATOM      7  C   UNL     1     105.647 126.321  83.383  0.00  0.00    +0.000 C 
ATOM      8  O   UNL     1     105.640 126.065  81.984  0.00  0.00    +0.000 OA
ENDBRANCH   1   8
BRANCH   1   9
ATOM      9  C   UNL     1     103.170 126.623  81.721  0.00  0.00    +0.000 C 
ATOM     10  C   UNL     1     102.077 126.271  82.419  0.00  0.00    +0.000 C 
BRANCH  10  11
ATOM     11  C   UNL     1     100.933 127.150  82.690  0.00  0.00    +0.000 A 
ATOM     12  C   UNL     1      99.617 126.798  82.364  0.00  0.00    +0.000 A 
ATOM     13  C   UNL     1      98.555 127.654  82.667  0.00  0.00    +0.000 A 
ATOM     14  C   UNL     1      98.795 128.866  83.310  0.00  0.00    +0.000 A 
ATOM     15  C   UNL     1     100.098 129.220  83.657  0.00  0.00    +0.000 A 
ATOM     16  C   UNL     1     101.159 128.364  83.353  0.00  0.00    +0.000 A 
ENDBRANCH  10  11
ENDBRANCH   1   9
TORSDOF 3
ENDMDL
