MODEL 1
REMARK VINA RESULT:      -4.6      0.000      0.000
REMARK  Name = *****
REMARK  3 active torsions:
REMARK  status: ('A' for Active; 'I' for Inactive)
REMARK    1  A    between atoms: C_3  and  C_8
REMARK    2  A    between atoms: C_8  and  N_10
REMARK    3  A    between atoms: N_10  and  C_11
REMARK                            x       y       z     vdW  Elec       q    Type
REMARK                         _______ _______ _______ _____ _____    ______ ____
ROOT
ATOM      1  C   UNL     1      89.040  64.356  86.719  0.00  0.00    +0.000 C 
ATOM      2  S   UNL     1      89.097  63.567  85.241  0.00  0.00    +0.000 S 
ENDROOT
BRANCH   1   5
ATOM      3  C   UNL     1      90.051  67.963  86.226  0.00  0.00    +0.000 A 
ATOM      4  C   UNL     1      90.062  66.569  86.189  0.00  0.00    +0.000 A 
ATOM      5  C   UNL     1      88.995  65.848  86.745  0.00  0.00    +0.000 A 
ATOM      6  C   UNL     1      87.924  66.518  87.346  0.00  0.00    +0.000 A 
ATOM      7  C   UNL     1      87.924  67.910  87.377  0.00  0.00    +0.000 A 
ATOM      8  C   UNL     1      88.980  68.634  86.821  0.00  0.00    +0.000 A 
ATOM      9 CL   UNL     1      86.615  68.747  88.116  0.00  0.00    +0.000 Cl
ENDBRANCH   1   5
BRANCH   1  10
ATOM     10  N   UNL     1      88.985  63.826  88.003  0.00  0.00    +0.000 N 
ATOM     11  H   UNL     1      89.860  63.794  88.454  0.00  0.00    +0.000 HD
BRANCH  10  12
ATOM     12  C   UNL     1      87.921  63.322  88.787  0.00  0.00    +0.000 A 
ATOM     13  C   UNL     1      87.047  62.301  88.411  0.00  0.00    +0.000 A 
ATOM     14  C   UNL     1      86.037  61.869  89.281  0.00  0.00    +0.000 A 
ATOM     15  C   UNL     1      85.906  62.453  90.532  0.00  0.00    +0.000 A 
ATOM     16  C   UNL     1      86.770  63.458  90.937  0.00  0.00    +0.000 A 
ATOM     17  C   UNL     1      87.778  63.886  90.068  0.00  0.00    +0.000 A 
ATOM     18  F   UNL     1      84.940  62.036  91.361  0.00  0.00    +0.000 F 
ENDBRANCH  10  12
ENDBRANCH   1  10
TORSDOF 3
ENDMDL
