MODEL 1
REMARK VINA RESULT:      -4.1      0.000      0.000
REMARK  Name = *****
REMARK  4 active torsions:
REMARK  status: ('A' for Active; 'I' for Inactive)
REMARK    1  A    between atoms: C_1  and  C_2
REMARK    2  A    between atoms: C_2  and  C_16
REMARK    3  A    between atoms: C_6  and  C_7
REMARK    4  A    between atoms: C_7  and  C_9
REMARK                            x       y       z     vdW  Elec       q    Type
REMARK                         _______ _______ _______ _____ _____    ______ ____
ROOT
ATOM      1  C   UNL     1      87.000  65.967  85.243  0.00  0.00    +0.000 C 
ATOM      2  C   UNL     1      87.861  65.753  86.500  0.00  0.00    +0.000 C 
ATOM      3  C   UNL     1      89.361  65.687  86.178  0.00  0.00    +0.000 C 
ATOM      4  S   UNL     1      90.004  67.361  85.848  0.00  0.00    +0.000 S 
ATOM      5  C   UNL     1      88.893  68.192  86.909  0.00  0.00    +0.000 C 
ATOM      6  C   UNL     1      89.077  69.498  87.150  0.00  0.00    +0.000 C 
ATOM      7  S   UNL     1      87.645  67.209  87.612  0.00  0.00    +0.000 S 
ENDROOT
BRANCH   6   8
ATOM      8  C   UNL     1      88.210  70.357  87.999  0.00  0.00    +0.000 C 
ATOM      9  O   UNL     1      88.379  70.468  89.208  0.00  0.00    +0.000 OA
BRANCH   8  10
ATOM     10  C   UNL     1      87.041  71.008  87.344  0.00  0.00    +0.000 A 
ATOM     11  C   UNL     1      86.010  71.494  88.160  0.00  0.00    +0.000 A 
ATOM     12  C   UNL     1      84.894  72.113  87.594  0.00  0.00    +0.000 A 
ATOM     13  C   UNL     1      84.805  72.258  86.211  0.00  0.00    +0.000 A 
ATOM     14  C   UNL     1      85.833  71.792  85.392  0.00  0.00    +0.000 A 
ATOM     15  C   UNL     1      86.952  71.171  85.955  0.00  0.00    +0.000 A 
ENDBRANCH   8  10
ENDBRANCH   6   8
BRANCH   2  16
ATOM     16  C   UNL     1      87.398  64.508  87.280  0.00  0.00    +0.000 C 
ATOM     17 CL   UNL     1      88.291  64.272  88.812  0.00  0.00    +0.000 Cl
ENDBRANCH   2  16
TORSDOF 3
ENDMDL
