MODEL 1
REMARK VINA RESULT:      -5.0      0.000      0.000
REMARK  Name = *****
REMARK  5 active torsions:
REMARK  status: ('A' for Active; 'I' for Inactive)
REMARK    1  A    between atoms: C_1  and  C_2
REMARK    2  A    between atoms: C_4  and  C_8
REMARK    3  A    between atoms: C_8  and  O_10
REMARK    4  A    between atoms: O_10  and  C_11
REMARK    5  A    between atoms: C_15  and  C_17
REMARK                            x       y       z     vdW  Elec       q    Type
REMARK                         _______ _______ _______ _____ _____    ______ ____
ROOT
ATOM      1  C   UNL     1     102.777 125.630  83.407  0.00  0.00    +0.000 C 
ATOM      2  O   UNL     1     102.378 125.172  84.467  0.00  0.00    +0.000 OA
ENDROOT
BRANCH   1   6
ATOM      3  C   UNL     1     105.299 121.470  82.017  0.00  0.00    +0.000 C 
ATOM      4  C   UNL     1     104.771 122.842  81.716  0.00  0.00    +0.000 A 
ATOM      5  C   UNL     1     104.061 123.557  82.693  0.00  0.00    +0.000 A 
ATOM      6  C   UNL     1     103.536 124.827  82.408  0.00  0.00    +0.000 A 
ATOM      7  C   UNL     1     103.719 125.374  81.131  0.00  0.00    +0.000 A 
ATOM      8  C   UNL     1     104.410 124.660  80.150  0.00  0.00    +0.000 A 
ATOM      9  C   UNL     1     104.928 123.398  80.441  0.00  0.00    +0.000 A 
ENDBRANCH   1   6
BRANCH   1  10
ATOM     10  O   UNL     1     102.617 126.923  82.941  0.00  0.00    +0.000 OA
BRANCH  10  11
ATOM     11  C   UNL     1     101.301 127.404  82.918  0.00  0.00    +0.000 A 
ATOM     12  C   UNL     1     100.259 126.628  82.413  0.00  0.00    +0.000 A 
ATOM     13  C   UNL     1      98.959 127.124  82.460  0.00  0.00    +0.000 A 
ATOM     14  C   UNL     1      98.706 128.376  83.030  0.00  0.00    +0.000 A 
ATOM     15  C   UNL     1      99.750 129.139  83.572  0.00  0.00    +0.000 A 
ATOM     16  C   UNL     1     101.058 128.644  83.507  0.00  0.00    +0.000 A 
ATOM     17  C   UNL     1      99.478 130.492  84.157  0.00  0.00    +0.000 C 
ENDBRANCH  10  11
ENDBRANCH   1  10
TORSDOF 3
ENDMDL
