MODEL 1
REMARK VINA RESULT:      -4.2      0.000      0.000
REMARK  Name = *****
REMARK  5 active torsions:
REMARK  status: ('A' for Active; 'I' for Inactive)
REMARK    1  A    between atoms: C_4  and  C_7
REMARK    2  A    between atoms: C_7  and  C_8
REMARK    3  A    between atoms: C_7  and  S_16
REMARK    4  A    between atoms: C_8  and  C_9
REMARK    5  A    between atoms: C_8  and  S_15
REMARK                            x       y       z     vdW  Elec       q    Type
REMARK                         _______ _______ _______ _____ _____    ______ ____
ROOT
ATOM      1  C   UNL     1      89.731  66.651  86.426  0.00  0.00    +0.000 C 
ENDROOT
BRANCH   1   5
ATOM      2  C   UNL     1      89.755  70.897  85.508  0.00  0.00    +0.000 A 
ATOM      3  C   UNL     1      89.505  70.480  86.812  0.00  0.00    +0.000 A 
ATOM      4  C   UNL     1      89.485  69.119  87.124  0.00  0.00    +0.000 A 
ATOM      5  C   UNL     1      89.719  68.148  86.134  0.00  0.00    +0.000 A 
ATOM      6  C   UNL     1      89.963  68.591  84.821  0.00  0.00    +0.000 A 
ATOM      7  C   UNL     1      89.983  69.953  84.512  0.00  0.00    +0.000 A 
ENDBRANCH   1   5
BRANCH   1   8
ATOM      8  S   UNL     1      90.942  65.766  85.345  0.00  0.00    +0.000 S 
ATOM      9  H   UNL     1      91.344  66.594  84.343  0.00  0.00    +0.000 HD
ENDBRANCH   1   8
BRANCH   1  10
ATOM     10  C   UNL     1      88.350  65.919  86.462  0.00  0.00    +0.000 C 
BRANCH  10  11
ATOM     11  C   UNL     1      88.003  65.337  87.831  0.00  0.00    +0.000 A 
ATOM     12  C   UNL     1      88.733  64.237  88.316  0.00  0.00    +0.000 A 
ATOM     13  C   UNL     1      88.453  63.687  89.569  0.00  0.00    +0.000 A 
ATOM     14  C   UNL     1      87.442  64.227  90.359  0.00  0.00    +0.000 A 
ATOM     15  C   UNL     1      86.709  65.316  89.895  0.00  0.00    +0.000 A 
ATOM     16  C   UNL     1      86.986  65.867  88.641  0.00  0.00    +0.000 A 
ENDBRANCH  10  11
BRANCH  10  17
ATOM     17  S   UNL     1      86.923  66.833  85.738  0.00  0.00    +0.000 S 
ATOM     18  H   UNL     1      87.382  67.778  84.874  0.00  0.00    +0.000 HD
ENDBRANCH  10  17
ENDBRANCH   1  10
TORSDOF 5
ENDMDL
