MODEL 1
REMARK VINA RESULT:      -4.2      0.000      0.000
REMARK  Name = *****
REMARK  5 active torsions:
REMARK  status: ('A' for Active; 'I' for Inactive)
REMARK    1  A    between atoms: C_1  and  S_2
REMARK    2  A    between atoms: S_2  and  C_3
REMARK    3  A    between atoms: S_2  and  C_4
REMARK    4  A    between atoms: S_2  and  S_10
REMARK    5  A    between atoms: S_10  and  C_11
REMARK                            x       y       z     vdW  Elec       q    Type
REMARK                         _______ _______ _______ _____ _____    ______ ____
ROOT
ATOM      1  C   UNL     1      87.486  69.494  84.151  0.00  0.00    +0.000 C 
ATOM      2  S   UNL     1      87.851  70.869  85.181  0.00  0.00    +0.000 S 
ATOM      3  C   UNL     1      88.473  72.113  84.104  0.00  0.00    +0.000 C 
ENDROOT
BRANCH   2   4
ATOM      4  C   UNL     1      86.428  71.482  85.974  0.00  0.00    +0.000 A 
ATOM      5  C   UNL     1      86.357  71.408  87.364  0.00  0.00    +0.000 A 
ATOM      6  C   UNL     1      85.225  71.886  88.024  0.00  0.00    +0.000 A 
ATOM      7  C   UNL     1      84.171  72.433  87.294  0.00  0.00    +0.000 A 
ATOM      8  C   UNL     1      84.247  72.500  85.903  0.00  0.00    +0.000 A 
ATOM      9  C   UNL     1      85.378  72.024  85.237  0.00  0.00    +0.000 A 
ENDBRANCH   2   4
BRANCH   2  10
ATOM     10  S   UNL     1      89.266  70.370  86.616  0.00  0.00    +0.000 S 
BRANCH  10  11
ATOM     11  C   UNL     1      89.049  68.610  86.774  0.00  0.00    +0.000 A 
ATOM     12  C   UNL     1      90.008  67.739  86.248  0.00  0.00    +0.000 A 
ATOM     13  C   UNL     1      89.846  66.358  86.368  0.00  0.00    +0.000 A 
ATOM     14  C   UNL     1      88.727  65.841  87.020  0.00  0.00    +0.000 A 
ATOM     15  C   UNL     1      87.772  66.705  87.554  0.00  0.00    +0.000 A 
ATOM     16  C   UNL     1      87.935  68.086  87.435  0.00  0.00    +0.000 A 
ENDBRANCH  10  11
ENDBRANCH   2  10
TORSDOF 3
ENDMDL
