MODEL 1
REMARK VINA RESULT:      -4.6      0.000      0.000
REMARK  Name = *****
REMARK  4 active torsions:
REMARK  status: ('A' for Active; 'I' for Inactive)
REMARK    1  A    between atoms: C_1  and  C_2
REMARK    2  A    between atoms: C_4  and  N_8
REMARK    3  A    between atoms: N_8  and  N_18
REMARK    4  A    between atoms: C_9  and  C_11
REMARK                            x       y       z     vdW  Elec       q    Type
REMARK                         _______ _______ _______ _____ _____    ______ ____
ROOT
ATOM      1  N   UNL     1     103.065 126.016  81.777  0.00  0.00    +0.000 N 
ATOM      2  C   UNL     1     103.622 124.906  82.443  0.00  0.00    +0.000 C 
ATOM      3  O   UNL     1     103.238 124.428  83.513  0.00  0.00    +0.000 OA
ENDROOT
BRANCH   1   7
ATOM      4  C   UNL     1      98.242 126.959  82.714  0.00  0.00    +0.000 C 
ATOM      5  C   UNL     1      99.688 127.338  82.845  0.00  0.00    +0.000 A 
ATOM      6  C   UNL     1     100.687 126.539  82.260  0.00  0.00    +0.000 A 
ATOM      7  C   UNL     1     102.055 126.847  82.388  0.00  0.00    +0.000 A 
ATOM      8  C   UNL     1     102.389 127.986  83.145  0.00  0.00    +0.000 A 
ATOM      9  C   UNL     1     101.404 128.778  83.744  0.00  0.00    +0.000 A 
ATOM     10  C   UNL     1     100.060 128.453  83.598  0.00  0.00    +0.000 A 
ENDBRANCH   1   7
BRANCH   2  11
ATOM     11  C   UNL     1     104.781 124.209  81.821  0.00  0.00    +0.000 A 
ATOM     12  C   UNL     1     104.601 123.069  81.026  0.00  0.00    +0.000 A 
ATOM     13  C   UNL     1     105.705 122.459  80.426  0.00  0.00    +0.000 A 
ATOM     14  C   UNL     1     106.980 122.997  80.607  0.00  0.00    +0.000 A 
ATOM     15  C   UNL     1     107.161 124.147  81.377  0.00  0.00    +0.000 A 
ATOM     16  C   UNL     1     106.060 124.760  81.978  0.00  0.00    +0.000 A 
ATOM     17 CL   UNL     1     108.337 122.244  79.866  0.00  0.00    +0.000 Cl
ENDBRANCH   2  11
BRANCH   1  18
ATOM     18  N   UNL     1     103.346 126.135  80.401  0.00  0.00    +0.000 NA
ATOM     19  O   UNL     1     103.410 127.304  80.005  0.00  0.00    +0.000 OA
ENDBRANCH   1  18
TORSDOF 3
ENDMDL
