MODEL 1
REMARK VINA RESULT:      -4.6      0.000      0.000
REMARK  Name = *****
REMARK  4 active torsions:
REMARK  status: ('A' for Active; 'I' for Inactive)
REMARK    1  A    between atoms: C_4  and  C_7
REMARK    2  A    between atoms: C_7  and  C_8
REMARK    3  A    between atoms: C_8  and  C_9
REMARK    4  A    between atoms: C_10  and  C_16
REMARK                            x       y       z     vdW  Elec       q    Type
REMARK                         _______ _______ _______ _____ _____    ______ ____
ROOT
ATOM      1  C   UNL     1     102.035 127.402  82.592  0.00  0.00    +0.000 A 
ATOM      2  C   UNL     1     101.820 128.509  83.449  0.00  0.00    +0.000 A 
ATOM      3  C   UNL     1     100.523 128.852  83.870  0.00  0.00    +0.000 A 
ATOM      4  C   UNL     1      99.426 128.105  83.450  0.00  0.00    +0.000 A 
ATOM      5  C   UNL     1      99.628 127.020  82.612  0.00  0.00    +0.000 A 
ATOM      6  C   UNL     1     100.908 126.666  82.185  0.00  0.00    +0.000 A 
ATOM      7  F   UNL     1      98.578 126.298  82.204  0.00  0.00    +0.000 F 
ENDROOT
BRANCH   2   8
ATOM      8  C   UNL     1     102.939 129.354  83.941  0.00  0.00    +0.000 C 
ATOM      9  O   UNL     1     102.783 130.536  84.231  0.00  0.00    +0.000 OA
ENDBRANCH   2   8
BRANCH   1  10
ATOM     10  C   UNL     1     103.435 127.032  82.135  0.00  0.00    +0.000 C 
BRANCH  10  11
ATOM     11  C   UNL     1     103.635 126.714  80.647  0.00  0.00    +0.000 C 
BRANCH  11  15
ATOM     12  C   UNL     1     105.652 122.936  80.132  0.00  0.00    +0.000 A 
ATOM     13  C   UNL     1     104.665 123.072  81.107  0.00  0.00    +0.000 A 
ATOM     14  C   UNL     1     104.006 124.291  81.270  0.00  0.00    +0.000 A 
ATOM     15  C   UNL     1     104.328 125.386  80.455  0.00  0.00    +0.000 A 
ATOM     16  C   UNL     1     105.326 125.240  79.481  0.00  0.00    +0.000 A 
ATOM     17  C   UNL     1     105.983 124.020  79.321  0.00  0.00    +0.000 A 
ENDBRANCH  11  15
ENDBRANCH  10  11
ENDBRANCH   1  10
TORSDOF 4
ENDMDL
