MODEL 1
REMARK VINA RESULT:      -4.5      0.000      0.000
REMARK  Name = *****
REMARK  3 active torsions:
REMARK  status: ('A' for Active; 'I' for Inactive)
REMARK    1  A    between atoms: C_4  and  O_7
REMARK    2  A    between atoms: O_7  and  C_8
REMARK    3  A    between atoms: C_8  and  C_9
REMARK                            x       y       z     vdW  Elec       q    Type
REMARK                         _______ _______ _______ _____ _____    ______ ____
ROOT
ATOM      1  C   UNL     1     100.525 127.208  83.358  0.00  0.00    +0.000 C 
ATOM      2  F   UNL     1      99.904 126.959  82.172  0.00  0.00    +0.000 F 
ATOM      3  F   UNL     1      99.919 126.415  84.281  0.00  0.00    +0.000 F 
ENDROOT
BRANCH   1   4
ATOM      4  C   UNL     1     100.504 128.669  83.741  0.00  0.00    +0.000 A 
ATOM      5  C   UNL     1      99.390 129.471  83.450  0.00  0.00    +0.000 A 
ATOM      6  C   UNL     1      99.380 130.824  83.797  0.00  0.00    +0.000 A 
ATOM      7  C   UNL     1     100.484 131.389  84.433  0.00  0.00    +0.000 A 
ATOM      8  C   UNL     1     101.600 130.606  84.721  0.00  0.00    +0.000 A 
ATOM      9  C   UNL     1     101.612 129.253  84.375  0.00  0.00    +0.000 A 
ENDBRANCH   1   4
BRANCH   1  10
ATOM     10  O   UNL     1     101.885 126.790  83.265  0.00  0.00    +0.000 OA
BRANCH  10  14
ATOM     11  C   UNL     1     104.621 126.196  80.073  0.00  0.00    +0.000 C 
ATOM     12  C   UNL     1     103.785 124.995  80.501  0.00  0.00    +0.000 C 
ATOM     13  C   UNL     1     103.154 125.204  81.874  0.00  0.00    +0.000 C 
ATOM     14  C   UNL     1     102.335 126.500  81.943  0.00  0.00    +0.000 C 
ATOM     15  C   UNL     1     103.189 127.696  81.503  0.00  0.00    +0.000 C 
ATOM     16  C   UNL     1     103.810 127.486  80.127  0.00  0.00    +0.000 C 
ENDBRANCH  10  14
ENDBRANCH   1  10
TORSDOF 3
ENDMDL
