MODEL 1
REMARK VINA RESULT:      -4.8      0.000      0.000
REMARK  Name = *****
REMARK  3 active torsions:
REMARK  status: ('A' for Active; 'I' for Inactive)
REMARK    1  A    between atoms: C_5  and  C_7
REMARK    2  A    between atoms: C_8  and  C_9
REMARK    3  A    between atoms: C_9  and  C_11
REMARK                            x       y       z     vdW  Elec       q    Type
REMARK                         _______ _______ _______ _____ _____    ______ ____
ROOT
ATOM      1  C   UNL     1     101.803 127.130  82.340  0.00  0.00    +0.000 C 
ATOM      2  C   UNL     1     100.621 126.493  82.366  0.00  0.00    +0.000 C 
ENDROOT
BRANCH   1   7
ATOM      3  C   UNL     1     104.277 124.816  80.528  0.00  0.00    +0.000 C 
ATOM      4  C   UNL     1     104.248 123.719  81.594  0.00  0.00    +0.000 C 
ATOM      5  C   UNL     1     103.934 124.242  82.964  0.00  0.00    +0.000 C 
ATOM      6  C   UNL     1     103.443 125.472  83.186  0.00  0.00    +0.000 C 
ATOM      7  C   UNL     1     103.123 126.451  82.083  0.00  0.00    +0.000 C 
ATOM      8  C   UNL     1     103.104 125.780  80.696  0.00  0.00    +0.000 C 
ENDBRANCH   1   7
BRANCH   2   9
ATOM      9  C   UNL     1      99.370 127.250  82.647  0.00  0.00    +0.000 C 
ATOM     10  O   UNL     1      98.323 127.016  82.052  0.00  0.00    +0.000 OA
BRANCH   9  11
ATOM     11  C   UNL     1      99.430 128.349  83.650  0.00  0.00    +0.000 A 
ATOM     12  C   UNL     1      99.319 129.668  83.188  0.00  0.00    +0.000 A 
ATOM     13  C   UNL     1      99.363 130.734  84.088  0.00  0.00    +0.000 A 
ATOM     14  C   UNL     1      99.508 130.488  85.452  0.00  0.00    +0.000 A 
ATOM     15  C   UNL     1      99.601 129.178  85.921  0.00  0.00    +0.000 A 
ATOM     16  C   UNL     1      99.558 128.107  85.023  0.00  0.00    +0.000 A 
ENDBRANCH   9  11
ENDBRANCH   2   9
TORSDOF 3
ENDMDL
