MODEL 1
REMARK VINA RESULT:      -4.7      0.000      0.000
REMARK  Name = *****
REMARK  6 active torsions:
REMARK  status: ('A' for Active; 'I' for Inactive)
REMARK    1  A    between atoms: C_1  and  C_2
REMARK    2  A    between atoms: C_4  and  C_18
REMARK    3  A    between atoms: C_5  and  C_9
REMARK    4  A    between atoms: C_6  and  C_8
REMARK    5  A    between atoms: C_9  and  C_10
REMARK    6  A    between atoms: C_10  and  C_12
REMARK                            x       y       z     vdW  Elec       q    Type
REMARK                         _______ _______ _______ _____ _____    ______ ____
ROOT
ATOM      1  C   UNL     1      84.398  72.072  86.934  0.00  0.00    +0.000 C 
ATOM      2  C   UNL     1      85.777  71.672  86.498  0.00  0.00    +0.000 A 
ATOM      3  C   UNL     1      86.204  71.914  85.191  0.00  0.00    +0.000 A 
ATOM      4  C   UNL     1      87.505  71.581  84.775  0.00  0.00    +0.000 A 
ATOM      5  C   UNL     1      88.401  70.977  85.691  0.00  0.00    +0.000 A 
ATOM      6  C   UNL     1      87.985  70.775  87.030  0.00  0.00    +0.000 A 
ATOM      7  C   UNL     1      86.677  71.119  87.412  0.00  0.00    +0.000 A 
ATOM      8  C   UNL     1      88.899  70.185  88.071  0.00  0.00    +0.000 C 
ATOM      9  C   UNL     1      87.893  71.872  83.350  0.00  0.00    +0.000 C 
ENDROOT
BRANCH   5  10
ATOM     10  C   UNL     1      89.801  70.579  85.251  0.00  0.00    +0.000 C 
BRANCH  10  11
ATOM     11  C   UNL     1      89.873  69.269  84.481  0.00  0.00    +0.000 C 
ATOM     12  O   UNL     1      90.398  69.163  83.374  0.00  0.00    +0.000 OA
BRANCH  11  13
ATOM     13  C   UNL     1      89.282  68.045  85.111  0.00  0.00    +0.000 A 
ATOM     14  C   UNL     1      87.996  67.582  84.800  0.00  0.00    +0.000 A 
ATOM     15  C   UNL     1      87.494  66.433  85.418  0.00  0.00    +0.000 A 
ATOM     16  C   UNL     1      88.268  65.740  86.346  0.00  0.00    +0.000 A 
ATOM     17  C   UNL     1      89.547  66.193  86.662  0.00  0.00    +0.000 A 
ATOM     18  C   UNL     1      90.051  67.340  86.048  0.00  0.00    +0.000 A 
ENDBRANCH  11  13
ENDBRANCH  10  11
ENDBRANCH   5  10
TORSDOF 3
ENDMDL
