MODEL 1
REMARK VINA RESULT:      -5.2      0.000      0.000
REMARK  Name = *****
REMARK  1 active torsions:
REMARK  status: ('A' for Active; 'I' for Inactive)
REMARK    1  A    between atoms: C_9  and  C_11
REMARK                            x       y       z     vdW  Elec       q    Type
REMARK                         _______ _______ _______ _____ _____    ______ ____
ROOT
ATOM      1  C   UNL     1     102.790 128.273  83.685  0.00  0.00    +0.000 C 
ATOM      2  C   UNL     1     101.332 128.187  83.320  0.00  0.00    +0.000 A 
ATOM      3  C   UNL     1     100.461 129.228  83.685  0.00  0.00    +0.000 A 
ATOM      4  C   UNL     1      99.096 129.139  83.417  0.00  0.00    +0.000 A 
ATOM      5  C   UNL     1      98.582 128.004  82.796  0.00  0.00    +0.000 A 
ATOM      6  C   UNL     1      99.434 126.957  82.441  0.00  0.00    +0.000 A 
ATOM      7  C   UNL     1     100.810 127.041  82.694  0.00  0.00    +0.000 A 
ATOM      8  C   UNL     1     101.682 125.919  82.317  0.00  0.00    +0.000 C 
ATOM      9  C   UNL     1     103.017 126.015  82.207  0.00  0.00    +0.000 C 
ATOM     10  S   UNL     1     103.893 127.483  82.482  0.00  0.00    +0.000 S 
ENDROOT
BRANCH   9  11
ATOM     11  C   UNL     1     103.815 124.852  81.791  0.00  0.00    +0.000 A 
ATOM     12  C   UNL     1     104.219 124.702  80.455  0.00  0.00    +0.000 A 
ATOM     13  C   UNL     1     104.963 123.586  80.063  0.00  0.00    +0.000 A 
ATOM     14  C   UNL     1     105.299 122.622  81.005  0.00  0.00    +0.000 A 
ATOM     15  C   UNL     1     104.907 122.749  82.332  0.00  0.00    +0.000 A 
ATOM     16  C   UNL     1     104.163 123.864  82.727  0.00  0.00    +0.000 A 
ATOM     17  F   UNL     1     106.012 121.552  80.628  0.00  0.00    +0.000 F 
ENDBRANCH   9  11
TORSDOF 1
ENDMDL
