MODEL 1
REMARK VINA RESULT:      -4.8      0.000      0.000
REMARK  Name = *****
REMARK  1 active torsions:
REMARK  status: ('A' for Active; 'I' for Inactive)
REMARK    1  A    between atoms: C_7  and  C_9
REMARK                            x       y       z     vdW  Elec       q    Type
REMARK                         _______ _______ _______ _____ _____    ______ ____
ROOT
ATOM      1  C   UNL     1      84.521  72.064  87.638  0.00  0.00    +0.000 C 
ATOM      2  C   UNL     1      85.291  71.988  86.302  0.00  0.00    +0.000 C 
ATOM      3  C   UNL     1      86.549  71.348  86.725  0.00  0.00    +0.000 C 
ATOM      4  C   UNL     1      86.679  71.267  88.043  0.00  0.00    +0.000 C 
ATOM      5  C   UNL     1      85.536  71.837  88.779  0.00  0.00    +0.000 C 
ATOM      6  C   UNL     1      87.977  70.709  88.475  0.00  0.00    +0.000 C 
ATOM      7  C   UNL     1      88.610  70.261  87.122  0.00  0.00    +0.000 C 
ATOM      8  C   UNL     1      87.730  70.861  85.984  0.00  0.00    +0.000 C 
ENDROOT
BRANCH   7   9
ATOM      9  C   UNL     1      88.750  68.750  87.015  0.00  0.00    +0.000 A 
ATOM     10  C   UNL     1      87.775  67.882  87.530  0.00  0.00    +0.000 A 
ATOM     11  C   UNL     1      87.922  66.498  87.420  0.00  0.00    +0.000 A 
ATOM     12  C   UNL     1      89.046  65.963  86.796  0.00  0.00    +0.000 A 
ATOM     13  C   UNL     1      90.023  66.811  86.280  0.00  0.00    +0.000 A 
ATOM     14  C   UNL     1      89.877  68.195  86.388  0.00  0.00    +0.000 A 
ENDBRANCH   7   9
TORSDOF 1
ENDMDL
