MODEL 1
REMARK VINA RESULT:      -5.0      0.000      0.000
REMARK  Name = *****
REMARK  2 active torsions:
REMARK  status: ('A' for Active; 'I' for Inactive)
REMARK    1  A    between atoms: C_2  and  C_3
REMARK    2  A    between atoms: C_2  and  N_9
REMARK                            x       y       z     vdW  Elec       q    Type
REMARK                         _______ _______ _______ _____ _____    ______ ____
ROOT
ATOM      1  N   UNL     1     101.540 126.200  83.275  0.00  0.00    +0.000 N 
ATOM      2  C   UNL     1     102.487 125.711  82.355  0.00  0.00    +0.000 A 
ATOM      3  C   UNL     1     102.743 125.932  80.989  0.00  0.00    +0.000 A 
ATOM      4  C   UNL     1     103.807 125.238  80.399  0.00  0.00    +0.000 A 
ATOM      5  C   UNL     1     104.593 124.356  81.136  0.00  0.00    +0.000 A 
ATOM      6  C   UNL     1     104.333 124.143  82.493  0.00  0.00    +0.000 A 
ATOM      7  C   UNL     1     103.270 124.832  83.097  0.00  0.00    +0.000 A 
ATOM      8  N   UNL     1     102.836 124.792  84.382  0.00  0.00    +0.000 NA
ATOM      9  N   UNL     1     101.806 125.611  84.491  0.00  0.00    +0.000 NA
ENDROOT
BRANCH   1  11
ATOM     10  C   UNL     1      99.351 126.783  82.412  0.00  0.00    +0.000 C 
ATOM     11  C   UNL     1     100.482 127.123  83.064  0.00  0.00    +0.000 C 
BRANCH  11  12
ATOM     12  C   UNL     1     100.526 128.521  83.529  0.00  0.00    +0.000 A 
ATOM     13  C   UNL     1     101.702 129.045  84.085  0.00  0.00    +0.000 A 
ATOM     14  C   UNL     1     101.736 130.364  84.539  0.00  0.00    +0.000 A 
ATOM     15  C   UNL     1     100.596 131.163  84.451  0.00  0.00    +0.000 A 
ATOM     16  C   UNL     1      99.419 130.644  83.911  0.00  0.00    +0.000 A 
ATOM     17  C   UNL     1      99.381 129.326  83.456  0.00  0.00    +0.000 A 
ENDBRANCH  11  12
ENDBRANCH   1  11
TORSDOF 2
ENDMDL
