MODEL 1
REMARK VINA RESULT:      -4.8      0.000      0.000
REMARK  Name = *****
REMARK  2 active torsions:
REMARK  status: ('A' for Active; 'I' for Inactive)
REMARK    1  A    between atoms: C_6  and  N_7
REMARK    2  A    between atoms: C_8  and  C_9
REMARK                            x       y       z     vdW  Elec       q    Type
REMARK                         _______ _______ _______ _____ _____    ______ ____
ROOT
ATOM      1  N   UNL     1     102.684 126.180  81.634  0.00  0.00    +0.000 NA
ATOM      2  C   UNL     1     101.859 126.130  82.632  0.00  0.00    +0.000 C 
ENDROOT
BRANCH   2   3
ATOM      3  C   UNL     1     100.919 127.229  82.908  0.00  0.00    +0.000 A 
ATOM      4  C   UNL     1      99.589 127.098  82.505  0.00  0.00    +0.000 A 
ATOM      5  C   UNL     1      98.670 128.116  82.749  0.00  0.00    +0.000 A 
ATOM      6  C   UNL     1      99.087 129.278  83.399  0.00  0.00    +0.000 A 
ATOM      7  C   UNL     1     100.416 129.404  83.798  0.00  0.00    +0.000 A 
ATOM      8  C   UNL     1     101.340 128.391  83.559  0.00  0.00    +0.000 A 
ATOM      9  F   UNL     1     100.810 130.521  84.422  0.00  0.00    +0.000 F 
ATOM     10  F   UNL     1      99.173 125.988  81.880  0.00  0.00    +0.000 F 
ENDBRANCH   2   3
BRANCH   1  16
ATOM     11  C   UNL     1     103.800 124.233  82.563  0.00  0.00    +0.000 A 
ATOM     12  C   UNL     1     104.655 123.138  82.411  0.00  0.00    +0.000 A 
ATOM     13  C   UNL     1     105.246 122.891  81.173  0.00  0.00    +0.000 A 
ATOM     14  C   UNL     1     104.993 123.730  80.090  0.00  0.00    +0.000 A 
ATOM     15  C   UNL     1     104.136 124.823  80.246  0.00  0.00    +0.000 A 
ATOM     16  C   UNL     1     103.526 125.072  81.479  0.00  0.00    +0.000 A 
ATOM     17 CL   UNL     1     106.300 121.545  80.983  0.00  0.00    +0.000 Cl
ENDBRANCH   1  16
TORSDOF 2
ENDMDL
