MODEL 1
REMARK VINA RESULT:      -4.6      0.000      0.000
REMARK  Name = *****
REMARK  3 active torsions:
REMARK  status: ('A' for Active; 'I' for Inactive)
REMARK    1  A    between atoms: C_4  and  S_7
REMARK    2  A    between atoms: S_7  and  C_8
REMARK    3  A    between atoms: C_8  and  C_10
REMARK                            x       y       z     vdW  Elec       q    Type
REMARK                         _______ _______ _______ _____ _____    ______ ____
ROOT
ATOM      1  C   UNL     1     103.391 126.730  81.580  0.00  0.00    +0.000 C 
ATOM      2  O   UNL     1     103.271 127.349  80.530  0.00  0.00    +0.000 OA
ENDROOT
BRANCH   1   3
ATOM      3  C   UNL     1     103.865 125.311  81.560  0.00  0.00    +0.000 A 
ATOM      4  C   UNL     1     104.328 124.657  80.407  0.00  0.00    +0.000 A 
ATOM      5  C   UNL     1     104.758 123.326  80.470  0.00  0.00    +0.000 A 
ATOM      6  C   UNL     1     104.724 122.641  81.683  0.00  0.00    +0.000 A 
ATOM      7  C   UNL     1     104.262 123.270  82.834  0.00  0.00    +0.000 A 
ATOM      8  C   UNL     1     103.832 124.599  82.771  0.00  0.00    +0.000 A 
ATOM      9 BR   UNL     1     105.306 120.845  81.761  0.00  0.00    +0.000 Br
ENDBRANCH   1   3
BRANCH   1  10
ATOM     10  S   UNL     1     103.004 127.448  83.142  0.00  0.00    +0.000 S 
BRANCH  10  14
ATOM     11  C   UNL     1      98.457 127.937  82.832  0.00  0.00    +0.000 A 
ATOM     12  C   UNL     1      99.223 128.965  83.379  0.00  0.00    +0.000 A 
ATOM     13  C   UNL     1     100.608 128.822  83.488  0.00  0.00    +0.000 A 
ATOM     14  C   UNL     1     101.235 127.645  83.063  0.00  0.00    +0.000 A 
ATOM     15  C   UNL     1     100.458 126.623  82.506  0.00  0.00    +0.000 A 
ATOM     16  C   UNL     1      99.073 126.766  82.395  0.00  0.00    +0.000 A 
ENDBRANCH  10  14
ENDBRANCH   1  10
TORSDOF 3
ENDMDL
