MODEL 1
REMARK VINA RESULT:      -4.8      0.000      0.000
REMARK  Name = *****
REMARK  5 active torsions:
REMARK  status: ('A' for Active; 'I' for Inactive)
REMARK    1  A    between atoms: C_1  and  C_2
REMARK    2  A    between atoms: C_2  and  C_4
REMARK    3  A    between atoms: C_4  and  C_5
REMARK    4  A    between atoms: C_4  and  C_13
REMARK    5  A    between atoms: C_5  and  C_6
REMARK                            x       y       z     vdW  Elec       q    Type
REMARK                         _______ _______ _______ _____ _____    ______ ____
ROOT
ATOM      1  C   UNL     1      87.327  70.174  88.336  0.00  0.00    +0.000 C 
ENDROOT
BRANCH   1   2
ATOM      2  C   UNL     1      86.241  71.041  87.721  0.00  0.00    +0.000 A 
ATOM      3  C   UNL     1      85.218  71.572  88.524  0.00  0.00    +0.000 A 
ATOM      4  C   UNL     1      84.211  72.361  87.962  0.00  0.00    +0.000 A 
ATOM      5  C   UNL     1      84.212  72.632  86.595  0.00  0.00    +0.000 A 
ATOM      6  C   UNL     1      85.220  72.114  85.787  0.00  0.00    +0.000 A 
ATOM      7  C   UNL     1      86.221  71.328  86.351  0.00  0.00    +0.000 A 
ATOM      8  F   UNL     1      87.181  70.846  85.551  0.00  0.00    +0.000 F 
ENDBRANCH   1   2
BRANCH   1  10
ATOM      9  C   UNL     1      88.556  71.747  89.984  0.00  0.00    +0.000 C 
ATOM     10  C   UNL     1      87.603  70.592  89.786  0.00  0.00    +0.000 C 
ATOM     11  O   UNL     1      87.081  70.044  90.758  0.00  0.00    +0.000 OA
ENDBRANCH   1  10
BRANCH   1  12
ATOM     12  C   UNL     1      86.994  68.674  88.211  0.00  0.00    +0.000 C 
BRANCH  12  13
ATOM     13  C   UNL     1      88.073  67.898  87.484  0.00  0.00    +0.000 A 
ATOM     14  C   UNL     1      88.058  66.496  87.478  0.00  0.00    +0.000 A 
ATOM     15  C   UNL     1      89.062  65.780  86.824  0.00  0.00    +0.000 A 
ATOM     16  C   UNL     1      90.086  66.462  86.173  0.00  0.00    +0.000 A 
ATOM     17  C   UNL     1      90.115  67.854  86.170  0.00  0.00    +0.000 A 
ATOM     18  C   UNL     1      89.111  68.572  86.824  0.00  0.00    +0.000 A 
ATOM     19 CL   UNL     1      91.325  65.580  85.369  0.00  0.00    +0.000 Cl
ENDBRANCH  12  13
ENDBRANCH   1  12
TORSDOF 4
ENDMDL
