MODEL 1
REMARK VINA RESULT:      -5.2      0.000      0.000
REMARK  Name = *****
REMARK  4 active torsions:
REMARK  status: ('A' for Active; 'I' for Inactive)
REMARK    1  A    between atoms: C_1  and  C_2
REMARK    2  A    between atoms: C_4  and  C_8
REMARK    3  A    between atoms: N_9  and  C_10
REMARK    4  A    between atoms: C_14  and  C_16
REMARK                            x       y       z     vdW  Elec       q    Type
REMARK                         _______ _______ _______ _____ _____    ______ ____
ROOT
ATOM      1  C   UNL     1     104.047 125.356  80.655  0.00  0.00    +0.000 A 
ATOM      2  C   UNL     1     105.032 125.639  79.707  0.00  0.00    +0.000 A 
ATOM      3  C   UNL     1     105.928 124.650  79.300  0.00  0.00    +0.000 A 
ATOM      4  C   UNL     1     105.847 123.369  79.851  0.00  0.00    +0.000 A 
ATOM      5  C   UNL     1     104.869 123.068  80.811  0.00  0.00    +0.000 A 
ATOM      6  C   UNL     1     103.980 124.079  81.213  0.00  0.00    +0.000 A 
ENDROOT
BRANCH   5   7
ATOM      7  C   UNL     1     104.798 121.701  81.440  0.00  0.00    +0.000 C 
ATOM      8  F   UNL     1     103.984 120.843  80.761  0.00  0.00    +0.000 F 
ATOM      9  F   UNL     1     106.014 121.092  81.501  0.00  0.00    +0.000 F 
ATOM     10  F   UNL     1     104.324 121.725  82.717  0.00  0.00    +0.000 F 
ENDBRANCH   5   7
BRANCH   1  12
ATOM     11  C   UNL     1     102.269 125.982  81.953  0.00  0.00    +0.000 C 
ATOM     12  N   UNL     1     103.159 126.350  81.086  0.00  0.00    +0.000 NA
BRANCH  11  16
ATOM     13  C   UNL     1     101.132 130.182  84.449  0.00  0.00    +0.000 C 
ATOM     14  C   UNL     1     100.706 128.942  83.719  0.00  0.00    +0.000 A 
ATOM     15  C   UNL     1     101.667 128.063  83.202  0.00  0.00    +0.000 A 
ATOM     16  C   UNL     1     101.269 126.923  82.496  0.00  0.00    +0.000 A 
ATOM     17  C   UNL     1      99.913 126.657  82.290  0.00  0.00    +0.000 A 
ATOM     18  C   UNL     1      98.955 127.539  82.789  0.00  0.00    +0.000 A 
ATOM     19  C   UNL     1      99.349 128.677  83.495  0.00  0.00    +0.000 A 
ENDBRANCH  11  16
ENDBRANCH   1  12
TORSDOF 3
ENDMDL
