REMARK  Name = *****
REMARK  3 active torsions:
REMARK  status: ('A' for Active; 'I' for Inactive)
REMARK    1  A    between atoms: C_4  and  S_7
REMARK    2  A    between atoms: S_7  and  C_8
REMARK    3  A    between atoms: C_8  and  C_10
REMARK                            x       y       z     vdW  Elec       q    Type
REMARK                         _______ _______ _______ _____ _____    ______ ____
ROOT
ATOM      1  C   UNL     1       2.714  -2.719  -0.556  0.00  0.00    +0.000 C 
ATOM      2  O   UNL     1       2.249  -3.062   0.524  0.00  0.00    +0.000 OA
ENDROOT
BRANCH   1   3
ATOM      3  C   UNL     1       3.519  -3.680  -1.372  0.00  0.00    +0.000 A 
ATOM      4  C   UNL     1       4.084  -3.365  -2.615  0.00  0.00    +0.000 A 
ATOM      5  C   UNL     1       4.819  -4.328  -3.311  0.00  0.00    +0.000 A 
ATOM      6  C   UNL     1       5.002  -5.606  -2.786  0.00  0.00    +0.000 A 
ATOM      7  C   UNL     1       4.444  -5.928  -1.552  0.00  0.00    +0.000 A 
ATOM      8  C   UNL     1       3.708  -4.971  -0.849  0.00  0.00    +0.000 A 
ATOM      9 BR   UNL     1       5.577  -3.893  -4.989  0.00  0.00    +0.000 Br
ENDBRANCH   1   3
BRANCH   1  10
ATOM     10  S   UNL     1       2.463  -1.091  -1.181  0.00  0.00    +0.000 S 
BRANCH  10  14
ATOM     11  C   UNL     1      -1.472   0.886   0.260  0.00  0.00    +0.000 C 
ATOM     12  C   UNL     1      -1.381  -0.634   0.337  0.00  0.00    +0.000 C 
ATOM     13  C   UNL     1      -0.221  -1.174  -0.500  0.00  0.00    +0.000 C 
ATOM     14  C   UNL     1       1.107  -0.519  -0.097  0.00  0.00    +0.000 C 
ATOM     15  C   UNL     1       1.009   1.010  -0.199  0.00  0.00    +0.000 C 
ATOM     16  C   UNL     1      -0.151   1.548   0.639  0.00  0.00    +0.000 C 
ENDBRANCH  10  14
ENDBRANCH   1  10
TORSDOF 3
