MODEL 1
REMARK VINA RESULT:      -4.1      0.000      0.000
REMARK  Name = *****
REMARK  3 active torsions:
REMARK  status: ('A' for Active; 'I' for Inactive)
REMARK    1  A    between atoms: C_4  and  N_7
REMARK    2  A    between atoms: N_7  and  C_8
REMARK    3  A    between atoms: C_8  and  C_10
REMARK                            x       y       z     vdW  Elec       q    Type
REMARK                         _______ _______ _______ _____ _____    ______ ____
ROOT
ATOM      1  N   UNL     1     101.777 126.030  81.893  0.00  0.00    +0.000 N 
ATOM      2  H   UNL     1     101.609 125.812  80.948  0.00  0.00    +0.000 HD
ENDROOT
BRANCH   1   6
ATOM      3  C   UNL     1      99.131 128.874  83.571  0.00  0.00    +0.000 A 
ATOM      4  C   UNL     1      98.597 127.765  82.923  0.00  0.00    +0.000 A 
ATOM      5  C   UNL     1      99.439 126.798  82.354  0.00  0.00    +0.000 A 
ATOM      6  C   UNL     1     100.824 126.930  82.424  0.00  0.00    +0.000 A 
ATOM      7  C   UNL     1     101.347 128.053  83.087  0.00  0.00    +0.000 A 
ATOM      8  C   UNL     1     100.511 129.019  83.655  0.00  0.00    +0.000 A 
ENDBRANCH   1   6
BRANCH   1   9
ATOM      9  C   UNL     1     102.895 125.386  82.404  0.00  0.00    +0.000 C 
ATOM     10  S   UNL     1     103.265 125.063  84.008  0.00  0.00    +0.000 S 
BRANCH   9  11
ATOM     11  C   UNL     1     103.851 124.920  81.381  0.00  0.00    +0.000 A 
ATOM     12  C   UNL     1     104.409 123.665  81.173  0.00  0.00    +0.000 A 
ATOM     13  C   UNL     1     105.304 123.617  80.064  0.00  0.00    +0.000 A 
ATOM     14  C   UNL     1     105.415 124.837  79.442  0.00  0.00    +0.000 A 
ATOM     15  S   UNL     1     104.447 126.025  80.189  0.00  0.00    +0.000 S 
ENDBRANCH   9  11
ENDBRANCH   1   9
TORSDOF 3
ENDMDL
