MODEL 1
REMARK VINA RESULT:      -4.8      0.000      0.000
REMARK  Name = *****
REMARK  1 active torsions:
REMARK  status: ('A' for Active; 'I' for Inactive)
REMARK    1  A    between atoms: C_10  and  C_13
REMARK                            x       y       z     vdW  Elec       q    Type
REMARK                         _______ _______ _______ _____ _____    ______ ____
ROOT
ATOM      1  C   UNL     1     101.513 128.926  83.505  0.00  0.00    +0.000 C 
ATOM      2  C   UNL     1     100.574 127.727  83.608  0.00  0.00    +0.000 C 
ATOM      3  C   UNL     1     100.693 126.701  82.482  0.00  0.00    +0.000 C 
ATOM      4  C   UNL     1     101.981 125.884  82.573  0.00  0.00    +0.000 C 
ATOM      5  C   UNL     1     103.193 126.499  81.856  0.00  0.00    +0.000 C 
ATOM      6  C   UNL     1     103.334 128.023  81.985  0.00  0.00    +0.000 C 
ATOM      7  C   UNL     1     102.996 128.589  83.362  0.00  0.00    +0.000 C 
ATOM      8  O   UNL     1     104.368 125.877  82.431  0.00  0.00    +0.000 OA
ATOM      9  O   UNL     1     105.417 125.910  81.396  0.00  0.00    +0.000 OA
ATOM     10  C   UNL     1     105.038 124.952  80.389  0.00  0.00    +0.000 C 
ATOM     11  O   UNL     1     103.610 124.851  80.255  0.00  0.00    +0.000 OA
ATOM     12  O   UNL     1     103.087 126.212  80.440  0.00  0.00    +0.000 OA
ENDROOT
BRANCH  10  13
ATOM     13  C   UNL     1     105.612 123.568  80.644  0.00  0.00    +0.000 A 
ATOM     14  C   UNL     1     106.959 123.257  80.401  0.00  0.00    +0.000 A 
ATOM     15  C   UNL     1     107.452 121.970  80.640  0.00  0.00    +0.000 A 
ATOM     16  C   UNL     1     106.600 120.981  81.124  0.00  0.00    +0.000 A 
ATOM     17  C   UNL     1     105.260 121.266  81.372  0.00  0.00    +0.000 A 
ATOM     18  C   UNL     1     104.769 122.552  81.132  0.00  0.00    +0.000 A 
ATOM     19 CL   UNL     1     107.206 119.399  81.419  0.00  0.00    +0.000 Cl
ENDBRANCH  10  13
TORSDOF 1
ENDMDL
