REMARK  Name = *****
REMARK  5 active torsions:
REMARK  status: ('A' for Active; 'I' for Inactive)
REMARK    1  A    between atoms: C_1  and  C_2
REMARK    2  A    between atoms: C_5  and  O_8
REMARK    3  A    between atoms: O_8  and  C_9
REMARK    4  A    between atoms: C_9  and  C_11
REMARK    5  A    between atoms: C_11  and  C_12
REMARK                            x       y       z     vdW  Elec       q    Type
REMARK                         _______ _______ _______ _____ _____    ______ ____
ROOT
ATOM      1  C   UNL     1      -2.950   0.834  -2.370  0.00  0.00    +0.000 C 
ATOM      2  O   UNL     1      -3.832   1.420  -1.754  0.00  0.00    +0.000 OA
ENDROOT
BRANCH   1   3
ATOM      3  O   UNL     1      -1.947   0.103  -1.807  0.00  0.00    +0.000 OA
BRANCH   3   8
ATOM      4  C   UNL     1       2.485   0.250  -0.365  0.00  0.00    +0.000 C 
ATOM      5  C   UNL     1       1.042   0.181   0.132  0.00  0.00    +0.000 C 
ATOM      6  C   UNL     1       0.263   1.433  -0.291  0.00  0.00    +0.000 C 
ATOM      7  C   UNL     1      -1.202   1.360   0.143  0.00  0.00    +0.000 C 
ATOM      8  C   UNL     1      -1.893   0.091  -0.367  0.00  0.00    +0.000 C 
ATOM      9  C   UNL     1      -1.111  -1.157   0.053  0.00  0.00    +0.000 C 
ATOM     10  C   UNL     1       0.356  -1.093  -0.378  0.00  0.00    +0.000 C 
ENDBRANCH   3   8
ENDBRANCH   1   3
BRANCH   1  11
ATOM     11  C   UNL     1      -2.816   0.840  -3.873  0.00  0.00    +0.000 C 
BRANCH  11  12
ATOM     12  C   UNL     1      -1.733   1.773  -4.351  0.00  0.00    +0.000 A 
ATOM     13  C   UNL     1      -0.441   1.293  -4.608  0.00  0.00    +0.000 A 
ATOM     14  C   UNL     1       0.566   2.166  -5.021  0.00  0.00    +0.000 A 
ATOM     15  C   UNL     1       0.294   3.523  -5.178  0.00  0.00    +0.000 A 
ATOM     16  C   UNL     1      -0.985   4.011  -4.918  0.00  0.00    +0.000 A 
ATOM     17  C   UNL     1      -1.994   3.142  -4.503  0.00  0.00    +0.000 A 
ENDBRANCH  11  12
ENDBRANCH   1  11
TORSDOF 4
