MODEL 1
REMARK VINA RESULT:      -5.0      0.000      0.000
REMARK  Name = *****
REMARK  5 active torsions:
REMARK  status: ('A' for Active; 'I' for Inactive)
REMARK    1  A    between atoms: C_1  and  N_2
REMARK    2  A    between atoms: N_2  and  C_3
REMARK    3  A    between atoms: N_2  and  N_17
REMARK    4  A    between atoms: C_6  and  C_9
REMARK    5  A    between atoms: C_10  and  C_11
REMARK                            x       y       z     vdW  Elec       q    Type
REMARK                         _______ _______ _______ _____ _____    ______ ____
ROOT
ATOM      1  C   UNL     1     105.874 122.833  80.825  0.00  0.00    +0.000 A 
ATOM      2  C   UNL     1     105.598 123.794  79.834  0.00  0.00    +0.000 A 
ATOM      3  C   UNL     1     104.606 124.774  80.004  0.00  0.00    +0.000 A 
ATOM      4  C   UNL     1     103.841 124.825  81.170  0.00  0.00    +0.000 A 
ATOM      5  C   UNL     1     104.105 123.892  82.173  0.00  0.00    +0.000 A 
ATOM      6  C   UNL     1     105.096 122.914  81.998  0.00  0.00    +0.000 A 
ENDROOT
BRANCH   1   8
ATOM      7  C   UNL     1     106.632 120.578  81.427  0.00  0.00    +0.000 C 
ATOM      8  N   UNL     1     106.874 121.821  80.682  0.00  0.00    +0.000 N 
BRANCH   8   9
ATOM      9  N   UNL     1     107.981 122.053  79.926  0.00  0.00    +0.000 NA
ATOM     10  O   UNL     1     108.852 121.181  80.017  0.00  0.00    +0.000 OA
ENDBRANCH   8   9
ENDBRANCH   1   8
BRANCH   4  11
ATOM     11  C   UNL     1     102.820 125.855  81.402  0.00  0.00    +0.000 C 
ATOM     12  C   UNL     1     102.014 125.881  82.476  0.00  0.00    +0.000 C 
BRANCH  12  13
ATOM     13  C   UNL     1     101.003 126.923  82.713  0.00  0.00    +0.000 A 
ATOM     14  C   UNL     1      99.656 126.748  82.372  0.00  0.00    +0.000 A 
ATOM     15  C   UNL     1      98.718 127.749  82.642  0.00  0.00    +0.000 A 
ATOM     16  C   UNL     1      99.118 128.929  83.267  0.00  0.00    +0.000 A 
ATOM     17  C   UNL     1     100.452 129.108  83.624  0.00  0.00    +0.000 A 
ATOM     18  C   UNL     1     101.389 128.107  83.355  0.00  0.00    +0.000 A 
ENDBRANCH  12  13
ENDBRANCH   4  11
TORSDOF 4
ENDMDL
