MODEL 1
REMARK VINA RESULT:      -4.5      0.000      0.000
REMARK  Name = *****
REMARK  6 active torsions:
REMARK  status: ('A' for Active; 'I' for Inactive)
REMARK    1  A    between atoms: C_1  and  C_2
REMARK    2  A    between atoms: C_5  and  S_8
REMARK    3  A    between atoms: S_8  and  N_9
REMARK    4  A    between atoms: S_8  and  O_17
REMARK    5  A    between atoms: N_9  and  C_10
REMARK    6  A    between atoms: O_17  and  C_18
REMARK                            x       y       z     vdW  Elec       q    Type
REMARK                         _______ _______ _______ _____ _____    ______ ____
ROOT
ATOM      1  S   UNL     1      89.022  70.282  86.387  0.00  0.00    +0.000 S 
ATOM      2  O   UNL     1      89.605  70.852  87.583  0.00  0.00    +0.000 OA
ENDROOT
BRANCH   1   7
ATOM      3  C   UNL     1      88.714  64.312  87.413  0.00  0.00    +0.000 C 
ATOM      4  C   UNL     1      88.769  65.785  87.132  0.00  0.00    +0.000 A 
ATOM      5  C   UNL     1      87.762  66.636  87.609  0.00  0.00    +0.000 A 
ATOM      6  C   UNL     1      87.828  68.011  87.376  0.00  0.00    +0.000 A 
ATOM      7  C   UNL     1      88.913  68.534  86.670  0.00  0.00    +0.000 A 
ATOM      8  C   UNL     1      89.928  67.702  86.196  0.00  0.00    +0.000 A 
ATOM      9  C   UNL     1      89.857  66.329  86.434  0.00  0.00    +0.000 A 
ENDBRANCH   1   7
BRANCH   1  10
ATOM     10  O   UNL     1      90.087  70.460  85.165  0.00  0.00    +0.000 OA
ATOM     11  C   UNL     1      89.843  71.495  84.229  0.00  0.00    +0.000 C 
ENDBRANCH   1  10
BRANCH   1  12
ATOM     12  N   UNL     1      87.763  70.763  85.659  0.00  0.00    +0.000 NA
BRANCH  12  13
ATOM     13  C   UNL     1      86.571  71.331  86.199  0.00  0.00    +0.000 A 
ATOM     14  C   UNL     1      86.245  71.407  87.555  0.00  0.00    +0.000 A 
ATOM     15  C   UNL     1      85.043  71.996  87.965  0.00  0.00    +0.000 A 
ATOM     16  C   UNL     1      84.158  72.512  87.022  0.00  0.00    +0.000 A 
ATOM     17  C   UNL     1      84.469  72.437  85.667  0.00  0.00    +0.000 A 
ATOM     18  C   UNL     1      85.670  71.848  85.263  0.00  0.00    +0.000 A 
ENDBRANCH  12  13
ENDBRANCH   1  12
TORSDOF 4
ENDMDL
