MODEL 1
REMARK VINA RESULT:      -4.8      0.000      0.000
REMARK  Name = *****
REMARK  4 active torsions:
REMARK  status: ('A' for Active; 'I' for Inactive)
REMARK    1  A    between atoms: C_1  and  C_2
REMARK    2  A    between atoms: C_7  and  C_8
REMARK    3  A    between atoms: C_9  and  C_10
REMARK    4  A    between atoms: C_15  and  C_16
REMARK                            x       y       z     vdW  Elec       q    Type
REMARK                         _______ _______ _______ _____ _____    ______ ____
ROOT
ATOM      1  C   UNL     1     103.010 126.158  82.838  0.00  0.00    +0.000 C 
ATOM      2  C   UNL     1     101.676 126.309  82.835  0.00  0.00    +0.000 C 
ENDROOT
BRANCH   1   9
ATOM      3  C   UNL     1     103.758 125.611  80.024  0.00  0.00    +0.000 C 
ATOM      4  C   UNL     1     104.005 124.618  81.126  0.00  0.00    +0.000 A 
ATOM      5  C   UNL     1     104.597 123.383  80.814  0.00  0.00    +0.000 A 
ATOM      6  C   UNL     1     104.845 122.437  81.809  0.00  0.00    +0.000 A 
ATOM      7  C   UNL     1     104.502 122.710  83.129  0.00  0.00    +0.000 A 
ATOM      8  C   UNL     1     103.909 123.931  83.454  0.00  0.00    +0.000 A 
ATOM      9  C   UNL     1     103.659 124.894  82.464  0.00  0.00    +0.000 A 
ENDBRANCH   1   9
BRANCH   2  10
ATOM     10  C   UNL     1     101.025 127.563  83.237  0.00  0.00    +0.000 A 
ATOM     11  C   UNL     1     101.797 128.582  83.818  0.00  0.00    +0.000 A 
ATOM     12  C   UNL     1     101.215 129.794  84.190  0.00  0.00    +0.000 A 
ATOM     13  C   UNL     1      99.856 130.004  83.979  0.00  0.00    +0.000 A 
ATOM     14  C   UNL     1      99.079 129.003  83.398  0.00  0.00    +0.000 A 
ATOM     15  C   UNL     1      99.650 127.775  83.021  0.00  0.00    +0.000 A 
ATOM     16  C   UNL     1      98.776 126.720  82.399  0.00  0.00    +0.000 C 
ENDBRANCH   2  10
TORSDOF 2
ENDMDL
