MODEL 1
REMARK VINA RESULT:      -4.6      0.000      0.000
REMARK  Name = *****
REMARK  3 active torsions:
REMARK  status: ('A' for Active; 'I' for Inactive)
REMARK    1  A    between atoms: C_4  and  C_7
REMARK    2  A    between atoms: C_7  and  C_8
REMARK    3  A    between atoms: C_8  and  C_9
REMARK                            x       y       z     vdW  Elec       q    Type
REMARK                         _______ _______ _______ _____ _____    ______ ____
ROOT
ATOM      1  C   UNL     1     102.988 126.919  81.366  0.00  0.00    +0.000 C 
ATOM      2 BR   UNL     1     104.307 128.084  80.486  0.00  0.00    +0.000 Br
ENDROOT
BRANCH   1   3
ATOM      3  C   UNL     1     103.599 125.538  81.475  0.00  0.00    +0.000 A 
ATOM      4  C   UNL     1     104.129 124.867  80.360  0.00  0.00    +0.000 A 
ATOM      5  C   UNL     1     104.691 123.595  80.492  0.00  0.00    +0.000 A 
ATOM      6  C   UNL     1     104.730 122.975  81.739  0.00  0.00    +0.000 A 
ATOM      7  C   UNL     1     104.205 123.623  82.853  0.00  0.00    +0.000 A 
ATOM      8  C   UNL     1     103.641 124.894  82.722  0.00  0.00    +0.000 A 
ENDBRANCH   1   3
BRANCH   1   9
ATOM      9  C   UNL     1     102.563 127.516  82.718  0.00  0.00    +0.000 C 
BRANCH   9  13
ATOM     10  C   UNL     1      98.287 127.911  83.174  0.00  0.00    +0.000 A 
ATOM     11  C   UNL     1      99.136 128.898  83.667  0.00  0.00    +0.000 A 
ATOM     12  C   UNL     1     100.518 128.773  83.518  0.00  0.00    +0.000 A 
ATOM     13  C   UNL     1     101.064 127.655  82.869  0.00  0.00    +0.000 A 
ATOM     14  C   UNL     1     100.201 126.668  82.375  0.00  0.00    +0.000 A 
ATOM     15  C   UNL     1      98.819 126.797  82.528  0.00  0.00    +0.000 A 
ENDBRANCH   9  13
ENDBRANCH   1   9
TORSDOF 3
ENDMDL
