MODEL 1
REMARK VINA RESULT:      -5.0      0.000      0.000
REMARK  Name = *****
REMARK  3 active torsions:
REMARK  status: ('A' for Active; 'I' for Inactive)
REMARK    1  A    between atoms: C_4  and  C_7
REMARK    2  A    between atoms: C_8  and  C_9
REMARK    3  A    between atoms: C_14  and  N_15
REMARK                            x       y       z     vdW  Elec       q    Type
REMARK                         _______ _______ _______ _____ _____    ______ ____
ROOT
ATOM      1  C   UNL     1     102.768 126.274  82.281  0.00  0.00    +0.000 C 
ATOM      2  C   UNL     1     101.455 126.262  82.561  0.00  0.00    +0.000 C 
ENDROOT
BRANCH   1   6
ATOM      3  C   UNL     1     105.053 122.822  81.193  0.00  0.00    +0.000 A 
ATOM      4  C   UNL     1     104.746 123.774  80.224  0.00  0.00    +0.000 A 
ATOM      5  C   UNL     1     103.995 124.903  80.562  0.00  0.00    +0.000 A 
ATOM      6  C   UNL     1     103.533 125.086  81.873  0.00  0.00    +0.000 A 
ATOM      7  C   UNL     1     103.860 124.128  82.841  0.00  0.00    +0.000 A 
ATOM      8  C   UNL     1     104.612 122.999  82.502  0.00  0.00    +0.000 A 
ENDBRANCH   1   6
BRANCH   2   9
ATOM      9  C   UNL     1     100.703 127.463  82.988  0.00  0.00    +0.000 A 
ATOM     10  C   UNL     1     101.406 128.537  83.569  0.00  0.00    +0.000 A 
ATOM     11  C   UNL     1     100.745 129.704  83.956  0.00  0.00    +0.000 A 
ATOM     12  C   UNL     1      99.374 129.825  83.758  0.00  0.00    +0.000 A 
ATOM     13  C   UNL     1      98.664 128.777  83.168  0.00  0.00    +0.000 A 
ATOM     14  C   UNL     1      99.309 127.586  82.781  0.00  0.00    +0.000 A 
BRANCH  14  15
ATOM     15  N   UNL     1      98.595 126.565  82.173  0.00  0.00    +0.000 NA
ATOM     16  O   UNL     1      97.457 126.415  82.634  0.00  0.00    +0.000 OA
ENDBRANCH  14  15
ENDBRANCH   2   9
TORSDOF 3
ENDMDL
