MODEL 1
REMARK VINA RESULT:      -4.7      0.000      0.000
REMARK  Name = *****
REMARK  5 active torsions:
REMARK  status: ('A' for Active; 'I' for Inactive)
REMARK    1  A    between atoms: C_1  and  C_2
REMARK    2  A    between atoms: C_2  and  S_3
REMARK    3  A    between atoms: S_3  and  C_4
REMARK    4  A    between atoms: C_4  and  C_12
REMARK    5  A    between atoms: C_5  and  C_6
REMARK                            x       y       z     vdW  Elec       q    Type
REMARK                         _______ _______ _______ _____ _____    ______ ____
ROOT
ATOM      1  C   UNL     1     102.970 125.860  81.734  0.00  0.00    +0.000 C 
ATOM      2  C   UNL     1     101.926 125.862  82.581  0.00  0.00    +0.000 C 
ENDROOT
BRANCH   2   3
ATOM      3  C   UNL     1     100.971 126.954  82.816  0.00  0.00    +0.000 A 
ATOM      4  C   UNL     1      99.636 126.860  82.404  0.00  0.00    +0.000 A 
ATOM      5  C   UNL     1      98.744 127.903  82.660  0.00  0.00    +0.000 A 
ATOM      6  C   UNL     1      99.178 129.043  83.336  0.00  0.00    +0.000 A 
ATOM      7  C   UNL     1     100.502 129.139  83.760  0.00  0.00    +0.000 A 
ATOM      8  C   UNL     1     101.395 128.096  83.504  0.00  0.00    +0.000 A 
ENDBRANCH   2   3
BRANCH   1   9
ATOM      9  C   UNL     1     103.818 124.656  81.636  0.00  0.00    +0.000 A 
ATOM     10  C   UNL     1     104.111 123.894  82.776  0.00  0.00    +0.000 A 
ATOM     11  C   UNL     1     104.925 122.763  82.682  0.00  0.00    +0.000 A 
ATOM     12  C   UNL     1     105.456 122.386  81.450  0.00  0.00    +0.000 A 
ATOM     13  C   UNL     1     105.175 123.138  80.310  0.00  0.00    +0.000 A 
ATOM     14  C   UNL     1     104.361 124.269  80.402  0.00  0.00    +0.000 A 
ENDBRANCH   1   9
BRANCH   1  15
ATOM     15  S   UNL     1     103.433 127.178  80.705  0.00  0.00    +0.000 S 
BRANCH  15  17
ATOM     16  C   UNL     1     104.666 129.175  82.114  0.00  0.00    +0.000 C 
ATOM     17  C   UNL     1     104.902 127.766  81.599  0.00  0.00    +0.000 C 
ENDBRANCH  15  17
ENDBRANCH   1  15
TORSDOF 4
ENDMDL
