MODEL 1
REMARK VINA RESULT:      -4.5      0.000      0.000
REMARK  Name = *****
REMARK  5 active torsions:
REMARK  status: ('A' for Active; 'I' for Inactive)
REMARK    1  A    between atoms: C_1  and  C_2
REMARK    2  A    between atoms: C_2  and  C_3
REMARK    3  A    between atoms: C_2  and  N_9
REMARK    4  A    between atoms: N_9  and  C_10
REMARK    5  A    between atoms: N_9  and  C_11
REMARK                            x       y       z     vdW  Elec       q    Type
REMARK                         _______ _______ _______ _____ _____    ______ ____
ROOT
ATOM      1  C   UNL     1      89.699  70.788  85.694  0.00  0.00    +0.000 C 
ATOM      2  C   UNL     1      88.464  70.035  86.208  0.00  0.00    +0.000 C 
ENDROOT
BRANCH   2   3
ATOM      3  C   UNL     1      88.654  68.536  86.445  0.00  0.00    +0.000 A 
ATOM      4  C   UNL     1      87.644  67.698  86.940  0.00  0.00    +0.000 A 
ATOM      5  C   UNL     1      87.879  66.334  87.138  0.00  0.00    +0.000 A 
ATOM      6  C   UNL     1      89.125  65.787  86.842  0.00  0.00    +0.000 A 
ATOM      7  C   UNL     1      90.139  66.600  86.344  0.00  0.00    +0.000 A 
ATOM      8  C   UNL     1      89.905  67.963  86.149  0.00  0.00    +0.000 A 
ENDBRANCH   2   3
BRANCH   2   9
ATOM      9  N   UNL     1      87.963  70.715  87.424  0.00  0.00    +0.000 N 
ATOM     10  C   UNL     1      88.646  70.456  88.689  0.00  0.00    +0.000 C 
BRANCH   9  11
ATOM     11  C   UNL     1      86.686  71.275  87.433  0.00  0.00    +0.000 A 
ATOM     12  C   UNL     1      86.001  71.560  88.626  0.00  0.00    +0.000 A 
ATOM     13  C   UNL     1      84.722  72.133  88.630  0.00  0.00    +0.000 A 
ATOM     14  C   UNL     1      84.095  72.448  87.431  0.00  0.00    +0.000 A 
ATOM     15  C   UNL     1      84.751  72.194  86.233  0.00  0.00    +0.000 A 
ATOM     16  C   UNL     1      86.027  71.619  86.240  0.00  0.00    +0.000 A 
ENDBRANCH   9  11
ENDBRANCH   2   9
TORSDOF 3
ENDMDL
