MODEL 1
REMARK VINA RESULT:      -5.1      0.000      0.000
REMARK  Name = *****
REMARK  1 active torsions:
REMARK  status: ('A' for Active; 'I' for Inactive)
REMARK    1  A    between atoms: C_5  and  C_6
REMARK                            x       y       z     vdW  Elec       q    Type
REMARK                         _______ _______ _______ _____ _____    ______ ____
ROOT
ATOM      1  C   UNL     1      88.374  70.535  87.155  0.00  0.00    +0.000 A 
ATOM      2  C   UNL     1      87.397  71.001  86.260  0.00  0.00    +0.000 A 
ATOM      3  C   UNL     1      86.180  71.537  86.716  0.00  0.00    +0.000 A 
ATOM      4  C   UNL     1      85.202  72.004  85.821  0.00  0.00    +0.000 A 
ATOM      5  C   UNL     1      83.999  72.534  86.289  0.00  0.00    +0.000 A 
ATOM      6  C   UNL     1      83.756  72.603  87.658  0.00  0.00    +0.000 A 
ATOM      7  C   UNL     1      84.717  72.144  88.561  0.00  0.00    +0.000 A 
ATOM      8  C   UNL     1      85.932  71.610  88.104  0.00  0.00    +0.000 A 
ATOM      9  C   UNL     1      86.907  71.143  88.997  0.00  0.00    +0.000 A 
ATOM     10  C   UNL     1      88.112  70.613  88.529  0.00  0.00    +0.000 A 
ENDROOT
BRANCH   1  15
ATOM     11  C   UNL     1      89.652  68.422  86.499  0.00  0.00    +0.000 C 
ATOM     12  C   UNL     1      89.648  68.172  85.025  0.00  0.00    +0.000 C 
ATOM     13  C   UNL     1      89.852  69.292  84.324  0.00  0.00    +0.000 C 
ATOM     14  C   UNL     1      90.028  70.486  85.208  0.00  0.00    +0.000 C 
ATOM     15  C   UNL     1      89.677  69.961  86.618  0.00  0.00    +0.000 C 
ENDBRANCH   1  15
TORSDOF 1
ENDMDL
