REMARK  Name = *****
REMARK  4 active torsions:
REMARK  status: ('A' for Active; 'I' for Inactive)
REMARK    1  A    between atoms: C_1  and  C_2
REMARK    2  A    between atoms: C_5  and  C_8
REMARK    3  A    between atoms: C_8  and  C_9
REMARK    4  A    between atoms: C_9  and  C_10
REMARK                            x       y       z     vdW  Elec       q    Type
REMARK                         _______ _______ _______ _____ _____    ______ ____
ROOT
ATOM      1  C   UNL     1      -3.440   1.591  -0.130  0.00  0.00    +0.000 C 
ATOM      2  F   UNL     1      -4.810   1.504  -0.167  0.00  0.00    +0.000 F 
ENDROOT
BRANCH   1   3
ATOM      3  C   UNL     1      -2.943   2.492  -1.248  0.00  0.00    +0.000 A 
ATOM      4  C   UNL     1      -2.192   2.040  -2.344  0.00  0.00    +0.000 A 
ATOM      5  C   UNL     1      -1.773   2.930  -3.337  0.00  0.00    +0.000 A 
ATOM      6  C   UNL     1      -2.112   4.273  -3.247  0.00  0.00    +0.000 A 
ATOM      7  C   UNL     1      -2.868   4.746  -2.184  0.00  0.00    +0.000 A 
ATOM      8  C   UNL     1      -3.285   3.858  -1.190  0.00  0.00    +0.000 A 
ATOM      9  F   UNL     1      -1.710   5.122  -4.201  0.00  0.00    +0.000 F 
ENDBRANCH   1   3
BRANCH   1  10
ATOM     10  C   UNL     1      -2.915   0.146  -0.069  0.00  0.00    +0.000 C 
BRANCH  10  15
ATOM     11  C   UNL     1       2.778  -0.800   0.817  0.00  0.00    +0.000 C 
ATOM     12  C   UNL     1       1.322  -0.533   0.573  0.00  0.00    +0.000 A 
ATOM     13  C   UNL     1       0.683   0.538   1.204  0.00  0.00    +0.000 A 
ATOM     14  C   UNL     1      -0.681   0.772   1.005  0.00  0.00    +0.000 A 
ATOM     15  C   UNL     1      -1.434  -0.057   0.164  0.00  0.00    +0.000 A 
ATOM     16  C   UNL     1      -0.795  -1.153  -0.436  0.00  0.00    +0.000 A 
ATOM     17  C   UNL     1       0.568  -1.388  -0.235  0.00  0.00    +0.000 A 
ENDBRANCH  10  15
ENDBRANCH   1  10
TORSDOF 3
