MODEL 1
REMARK VINA RESULT:      -4.2      0.000      0.000
REMARK  Name = *****
REMARK  4 active torsions:
REMARK  status: ('A' for Active; 'I' for Inactive)
REMARK    1  A    between atoms: C_1  and  C_2
REMARK    2  A    between atoms: C_5  and  S_8
REMARK    3  A    between atoms: S_8  and  C_9
REMARK    4  A    between atoms: C_9  and  C_11
REMARK                            x       y       z     vdW  Elec       q    Type
REMARK                         _______ _______ _______ _____ _____    ______ ____
ROOT
ATOM      1  C   UNL     1      88.531  70.793  85.076  0.00  0.00    +0.000 C 
ATOM      2  O   UNL     1      89.536  71.488  85.116  0.00  0.00    +0.000 OA
ENDROOT
BRANCH   1   3
ATOM      3  C   UNL     1      87.330  71.178  85.832  0.00  0.00    +0.000 A 
ATOM      4  C   UNL     1      86.272  71.750  85.109  0.00  0.00    +0.000 A 
ATOM      5  C   UNL     1      85.108  72.138  85.771  0.00  0.00    +0.000 A 
ATOM      6  C   UNL     1      85.002  71.968  87.151  0.00  0.00    +0.000 A 
ATOM      7  C   UNL     1      86.063  71.418  87.875  0.00  0.00    +0.000 A 
ATOM      8  C   UNL     1      87.234  71.026  87.219  0.00  0.00    +0.000 A 
ATOM      9 BR   UNL     1      88.651  70.339  88.278  0.00  0.00    +0.000 Br
ENDBRANCH   1   3
BRANCH   1  10
ATOM     10  S   UNL     1      88.334  69.388  84.037  0.00  0.00    +0.000 S 
BRANCH  10  15
ATOM     11  C   UNL     1      88.474  64.918  88.174  0.00  0.00    +0.000 C 
ATOM     12  C   UNL     1      88.444  65.996  87.131  0.00  0.00    +0.000 A 
ATOM     13  C   UNL     1      89.635  66.540  86.639  0.00  0.00    +0.000 A 
ATOM     14  C   UNL     1      89.606  67.565  85.688  0.00  0.00    +0.000 A 
ATOM     15  C   UNL     1      88.385  68.060  85.222  0.00  0.00    +0.000 A 
ATOM     16  C   UNL     1      87.194  67.535  85.731  0.00  0.00    +0.000 A 
ATOM     17  C   UNL     1      87.223  66.511  86.680  0.00  0.00    +0.000 A 
ENDBRANCH  10  15
ENDBRANCH   1  10
TORSDOF 3
ENDMDL
