MODEL 1
REMARK VINA RESULT:      -4.1      0.000      0.000
REMARK  Name = *****
REMARK  2 active torsions:
REMARK  status: ('A' for Active; 'I' for Inactive)
REMARK    1  A    between atoms: C_4  and  C_6
REMARK    2  A    between atoms: N_7  and  C_8
REMARK                            x       y       z     vdW  Elec       q    Type
REMARK                         _______ _______ _______ _____ _____    ______ ____
ROOT
ATOM      1  C   UNL     1     102.845 126.028  82.215  0.00  0.00    +0.000 C 
ATOM      2  N   UNL     1     101.553 125.925  82.249  0.00  0.00    +0.000 NA
ENDROOT
BRANCH   2   3
ATOM      3  C   UNL     1     100.862 127.059  82.690  0.00  0.00    +0.000 A 
ATOM      4  C   UNL     1      99.475 127.150  82.530  0.00  0.00    +0.000 A 
ATOM      5  C   UNL     1      98.784 128.274  82.985  0.00  0.00    +0.000 A 
ATOM      6  C   UNL     1      99.486 129.299  83.610  0.00  0.00    +0.000 A 
ATOM      7  C   UNL     1     100.862 129.218  83.794  0.00  0.00    +0.000 A 
ATOM      8  C   UNL     1     101.549 128.092  83.337  0.00  0.00    +0.000 A 
ATOM      9  F   UNL     1      98.825 130.378  84.048  0.00  0.00    +0.000 F 
ENDBRANCH   2   3
BRANCH   1  13
ATOM     10  C   UNL     1     104.872 123.423  80.467  0.00  0.00    +0.000 A 
ATOM     11  C   UNL     1     105.042 122.885  81.723  0.00  0.00    +0.000 A 
ATOM     12  S   UNL     1     104.238 123.799  82.926  0.00  0.00    +0.000 S 
ATOM     13  C   UNL     1     103.659 124.922  81.775  0.00  0.00    +0.000 A 
ATOM     14  C   UNL     1     104.072 124.602  80.497  0.00  0.00    +0.000 A 
ENDBRANCH   1  13
TORSDOF 2
ENDMDL
