MODEL 1
REMARK VINA RESULT:      -4.1      0.000      0.000
REMARK  Name = *****
REMARK  4 active torsions:
REMARK  status: ('A' for Active; 'I' for Inactive)
REMARK    1  A    between atoms: C_4  and  O_7
REMARK    2  A    between atoms: O_7  and  C_8
REMARK    3  A    between atoms: C_8  and  C_10
REMARK    4  A    between atoms: C_15  and  S_16
REMARK                            x       y       z     vdW  Elec       q    Type
REMARK                         _______ _______ _______ _____ _____    ______ ____
ROOT
ATOM      1  C   UNL     1     101.895 125.946  82.833  0.00  0.00    +0.000 C 
ATOM      2  O   UNL     1     102.349 125.306  83.767  0.00  0.00    +0.000 OA
ENDROOT
BRANCH   1   3
ATOM      3  C   UNL     1     100.946 127.063  83.007  0.00  0.00    +0.000 A 
ATOM      4  C   UNL     1      99.631 126.837  82.568  0.00  0.00    +0.000 A 
ATOM      5  C   UNL     1      98.670 127.839  82.684  0.00  0.00    +0.000 A 
ATOM      6  C   UNL     1      99.013 129.064  83.248  0.00  0.00    +0.000 A 
ATOM      7  C   UNL     1     100.317 129.286  83.705  0.00  0.00    +0.000 A 
ATOM      8  C   UNL     1     101.299 128.290  83.591  0.00  0.00    +0.000 A 
BRANCH   8   9
ATOM      9  S   UNL     1     102.912 128.639  84.274  0.00  0.00    +0.000 S 
ATOM     10  H   UNL     1     103.050 129.981  84.451  0.00  0.00    +0.000 HD
ENDBRANCH   8   9
ENDBRANCH   1   3
BRANCH   1  11
ATOM     11  O   UNL     1     102.022 125.705  81.478  0.00  0.00    +0.000 OA
BRANCH  11  15
ATOM     12  C   UNL     1     105.871 126.196  79.932  0.00  0.00    +0.000 A 
ATOM     13  C   UNL     1     105.175 127.316  80.393  0.00  0.00    +0.000 A 
ATOM     14  C   UNL     1     103.884 127.176  80.902  0.00  0.00    +0.000 A 
ATOM     15  C   UNL     1     103.293 125.914  80.924  0.00  0.00    +0.000 A 
ATOM     16  C   UNL     1     103.986 124.788  80.484  0.00  0.00    +0.000 A 
ATOM     17  C   UNL     1     105.278 124.932  79.981  0.00  0.00    +0.000 A 
ENDBRANCH  11  15
ENDBRANCH   1  11
TORSDOF 4
ENDMDL
