REMARK  Name = *****
REMARK  5 active torsions:
REMARK  status: ('A' for Active; 'I' for Inactive)
REMARK    1  A    between atoms: C_1  and  C_2
REMARK    2  A    between atoms: C_3  and  C_18
REMARK    3  A    between atoms: C_5  and  O_8
REMARK    4  A    between atoms: O_8  and  C_9
REMARK    5  A    between atoms: C_9  and  C_11
REMARK                            x       y       z     vdW  Elec       q    Type
REMARK                         _______ _______ _______ _____ _____    ______ ____
ROOT
ATOM      1  O   UNL     1      -3.158  -1.242   0.180  0.00  0.00    +0.000 OA
ENDROOT
BRANCH   1   6
ATOM      2  C   UNL     1       1.883   1.413   0.059  0.00  0.00    +0.000 C 
ATOM      3  C   UNL     1       0.558   0.701   0.076  0.00  0.00    +0.000 A 
ATOM      4  C   UNL     1       0.475  -0.700  -0.074  0.00  0.00    +0.000 A 
ATOM      5  C   UNL     1      -0.785  -1.319  -0.055  0.00  0.00    +0.000 A 
ATOM      6  C   UNL     1      -1.938  -0.553   0.105  0.00  0.00    +0.000 A 
ATOM      7  C   UNL     1      -1.865   0.823   0.284  0.00  0.00    +0.000 A 
ATOM      8  C   UNL     1      -0.619   1.447   0.260  0.00  0.00    +0.000 A 
ATOM      9  C   UNL     1       1.706  -1.544  -0.262  0.00  0.00    +0.000 C 
ENDBRANCH   1   6
BRANCH   1  10
ATOM     10  C   UNL     1      -4.150  -0.852  -0.701  0.00  0.00    +0.000 C 
ATOM     11  O   UNL     1      -4.083   0.018  -1.556  0.00  0.00    +0.000 OA
BRANCH  10  12
ATOM     12  C   UNL     1      -5.374  -1.667  -0.469  0.00  0.00    +0.000 A 
ATOM     13  C   UNL     1      -5.435  -2.682   0.494  0.00  0.00    +0.000 A 
ATOM     14  C   UNL     1      -6.613  -3.403   0.653  0.00  0.00    +0.000 A 
ATOM     15  C   UNL     1      -7.736  -3.137  -0.124  0.00  0.00    +0.000 A 
ATOM     16  C   UNL     1      -7.684  -2.128  -1.083  0.00  0.00    +0.000 A 
ATOM     17  C   UNL     1      -6.506  -1.396  -1.256  0.00  0.00    +0.000 A 
ATOM     18  F   UNL     1      -6.668  -4.374   1.574  0.00  0.00    +0.000 F 
ENDBRANCH  10  12
ENDBRANCH   1  10
TORSDOF 3
