REMARK  Name = *****
REMARK  4 active torsions:
REMARK  status: ('A' for Active; 'I' for Inactive)
REMARK    1  A    between atoms: C_1  and  C_2
REMARK    2  A    between atoms: C_4  and  C_8
REMARK    3  A    between atoms: C_9  and  C_10
REMARK    4  A    between atoms: C_10  and  C_11
REMARK                            x       y       z     vdW  Elec       q    Type
REMARK                         _______ _______ _______ _____ _____    ______ ____
ROOT
ATOM      1  C   UNL     1      -1.789   2.497  -0.163  0.00  0.00    +0.000 C 
ATOM      2  C   UNL     1      -1.251   3.705   0.071  0.00  0.00    +0.000 C 
ENDROOT
BRANCH   1   6
ATOM      3  C   UNL     1       2.358  -0.256  -0.897  0.00  0.00    +0.000 C 
ATOM      4  C   UNL     1       0.953  -0.122  -0.388  0.00  0.00    +0.000 A 
ATOM      5  C   UNL     1       0.275   1.102  -0.490  0.00  0.00    +0.000 A 
ATOM      6  C   UNL     1      -1.048   1.234  -0.044  0.00  0.00    +0.000 A 
ATOM      7  C   UNL     1      -1.702   0.110   0.472  0.00  0.00    +0.000 A 
ATOM      8  C   UNL     1      -1.040  -1.116   0.565  0.00  0.00    +0.000 A 
ATOM      9  C   UNL     1       0.281  -1.232   0.134  0.00  0.00    +0.000 A 
ENDBRANCH   1   6
BRANCH   2  10
ATOM     10  C   UNL     1      -2.011   4.996  -0.052  0.00  0.00    +0.000 C 
BRANCH  10  11
ATOM     11  C   UNL     1      -1.379   5.939  -1.048  0.00  0.00    +0.000 A 
ATOM     12  C   UNL     1      -1.543   5.729  -2.426  0.00  0.00    +0.000 A 
ATOM     13  C   UNL     1      -0.950   6.591  -3.349  0.00  0.00    +0.000 A 
ATOM     14  C   UNL     1      -0.187   7.670  -2.906  0.00  0.00    +0.000 A 
ATOM     15  C   UNL     1      -0.011   7.884  -1.540  0.00  0.00    +0.000 A 
ATOM     16  C   UNL     1      -0.602   7.022  -0.615  0.00  0.00    +0.000 A 
ENDBRANCH  10  11
ENDBRANCH   2  10
TORSDOF 3
