MODEL 1
REMARK VINA RESULT:      -4.6      0.000      0.000
REMARK  Name = *****
REMARK  5 active torsions:
REMARK  status: ('A' for Active; 'I' for Inactive)
REMARK    1  A    between atoms: C_1  and  C_2
REMARK    2  A    between atoms: C_3  and  N_9
REMARK    3  A    between atoms: C_4  and  C_8
REMARK    4  A    between atoms: C_10  and  C_11
REMARK    5  A    between atoms: C_10  and  C_12
REMARK                            x       y       z     vdW  Elec       q    Type
REMARK                         _______ _______ _______ _____ _____    ______ ____
ROOT
ATOM      1  N   UNL     1     102.995 127.106  83.005  0.00  0.00    +0.000 NA
ATOM      2  C   UNL     1     101.712 127.294  83.101  0.00  0.00    +0.000 C 
ATOM      3  C   UNL     1     100.650 126.450  82.426  0.00  0.00    +0.000 C 
ENDROOT
BRANCH   1   6
ATOM      4  C   UNL     1     103.521 127.596  80.205  0.00  0.00    +0.000 C 
ATOM      5  C   UNL     1     103.771 126.262  80.850  0.00  0.00    +0.000 A 
ATOM      6  C   UNL     1     103.499 126.056  82.219  0.00  0.00    +0.000 A 
ATOM      7  C   UNL     1     103.788 124.811  82.812  0.00  0.00    +0.000 A 
ATOM      8  C   UNL     1     104.280 123.765  82.017  0.00  0.00    +0.000 A 
ATOM      9  C   UNL     1     104.509 123.957  80.657  0.00  0.00    +0.000 A 
ATOM     10  C   UNL     1     104.260 125.198  80.076  0.00  0.00    +0.000 A 
ATOM     11  C   UNL     1     103.553 124.586  84.278  0.00  0.00    +0.000 C 
ENDBRANCH   1   6
BRANCH   2  12
ATOM     12  C   UNL     1     101.212 128.464  83.951  0.00  0.00    +0.000 C 
ATOM     13  C   UNL     1      99.905 129.050  83.405  0.00  0.00    +0.000 C 
ATOM     14  C   UNL     1      99.444 130.248  84.233  0.00  0.00    +0.000 C 
ATOM     15  C   UNL     1     100.533 131.313  84.329  0.00  0.00    +0.000 C 
ATOM     16  C   UNL     1     101.841 130.737  84.862  0.00  0.00    +0.000 C 
ATOM     17  C   UNL     1     102.305 129.535  84.043  0.00  0.00    +0.000 C 
ENDBRANCH   2  12
TORSDOF 2
ENDMDL
