MODEL 1
REMARK VINA RESULT:      -4.0      0.000      0.000
REMARK  Name = *****
REMARK  4 active torsions:
REMARK  status: ('A' for Active; 'I' for Inactive)
REMARK    1  A    between atoms: C_2  and  C_9
REMARK    2  A    between atoms: C_9  and  O_10
REMARK    3  A    between atoms: O_10  and  C_11
REMARK    4  A    between atoms: C_11  and  C_12
REMARK                            x       y       z     vdW  Elec       q    Type
REMARK                         _______ _______ _______ _____ _____    ______ ____
ROOT
ATOM      1  C   UNL     1      89.931  68.107  86.064  0.00  0.00    +0.000 C 
ENDROOT
BRANCH   1   3
ATOM      2  C   UNL     1      88.844  66.465  84.505  0.00  0.00    +0.000 C 
ATOM      3  C   UNL     1      89.729  66.599  85.763  0.00  0.00    +0.000 C 
ATOM      4  C   UNL     1      89.032  65.946  86.975  0.00  0.00    +0.000 C 
ATOM      5  S   UNL     1      88.746  64.155  86.853  0.00  0.00    +0.000 S 
ATOM      6  C   UNL     1      89.427  63.857  85.210  0.00  0.00    +0.000 C 
ATOM      7  S   UNL     1      88.536  64.767  83.934  0.00  0.00    +0.000 S 
ATOM      8  S   UNL     1      91.193  64.224  85.160  0.00  0.00    +0.000 S 
ATOM      9  C   UNL     1      91.130  65.998  85.529  0.00  0.00    +0.000 C 
ENDBRANCH   1   3
BRANCH   1  10
ATOM     10  O   UNL     1      88.994  68.542  87.044  0.00  0.00    +0.000 OA
BRANCH  10  11
ATOM     11  C   UNL     1      89.151  69.925  87.364  0.00  0.00    +0.000 C 
BRANCH  11  12
ATOM     12  C   UNL     1      87.813  70.610  87.272  0.00  0.00    +0.000 A 
ATOM     13  C   UNL     1      87.112  70.968  88.433  0.00  0.00    +0.000 A 
ATOM     14  C   UNL     1      85.885  71.627  88.349  0.00  0.00    +0.000 A 
ATOM     15  C   UNL     1      85.347  71.942  87.103  0.00  0.00    +0.000 A 
ATOM     16  C   UNL     1      86.036  71.600  85.941  0.00  0.00    +0.000 A 
ATOM     17  C   UNL     1      87.264  70.940  86.024  0.00  0.00    +0.000 A 
ENDBRANCH  11  12
ENDBRANCH  10  11
ENDBRANCH   1  10
TORSDOF 4
ENDMDL
