REMARK  Name = *****
REMARK  3 active torsions:
REMARK  status: ('A' for Active; 'I' for Inactive)
REMARK    1  A    between atoms: C_1  and  C_2
REMARK    2  A    between atoms: C_2  and  C_10
REMARK    3  A    between atoms: C_3  and  C_4
REMARK                            x       y       z     vdW  Elec       q    Type
REMARK                         _______ _______ _______ _____ _____    ______ ____
ROOT
ATOM      1  C   UNL     1       0.943   0.143  -0.017  0.00  0.00    +0.000 C 
ATOM      2  C   UNL     1       2.433  -0.043  -0.063  0.00  0.00    +0.000 C 
ATOM      3  C   UNL     1       3.094  -1.192  -0.295  0.00  0.00    +0.000 C 
ENDROOT
BRANCH   3   4
ATOM      4  C   UNL     1       2.449  -2.480  -0.553  0.00  0.00    +0.000 A 
ATOM      5  C   UNL     1       2.121  -2.852  -1.860  0.00  0.00    +0.000 A 
ATOM      6  C   UNL     1       1.500  -4.079  -2.105  0.00  0.00    +0.000 A 
ATOM      7  C   UNL     1       1.204  -4.935  -1.045  0.00  0.00    +0.000 A 
ATOM      8  C   UNL     1       1.528  -4.567   0.261  0.00  0.00    +0.000 A 
ATOM      9  C   UNL     1       2.149  -3.341   0.507  0.00  0.00    +0.000 A 
ENDBRANCH   3   4
BRANCH   2  10
ATOM     10  C   UNL     1       3.225   1.175   0.174  0.00  0.00    +0.000 A 
ATOM     11  C   UNL     1       3.592   1.996  -0.898  0.00  0.00    +0.000 A 
ATOM     12  C   UNL     1       4.351   3.147  -0.674  0.00  0.00    +0.000 A 
ATOM     13  C   UNL     1       4.747   3.480   0.621  0.00  0.00    +0.000 A 
ATOM     14  C   UNL     1       4.388   2.664   1.693  0.00  0.00    +0.000 A 
ATOM     15  C   UNL     1       3.630   1.513   1.471  0.00  0.00    +0.000 A 
ENDBRANCH   2  10
TORSDOF 2
