REMARK  Name = *****
REMARK  4 active torsions:
REMARK  status: ('A' for Active; 'I' for Inactive)
REMARK    1  A    between atoms: C_1  and  C_2
REMARK    2  A    between atoms: C_5  and  C_8
REMARK    3  A    between atoms: C_8  and  O_10
REMARK    4  A    between atoms: O_10  and  C_11
REMARK                            x       y       z     vdW  Elec       q    Type
REMARK                         _______ _______ _______ _____ _____    ______ ____
ROOT
ATOM      1  C   UNL     1      -3.028  -0.298   0.820  0.00  0.00    +0.000 C 
ATOM      2  O   UNL     1      -3.691  -1.280   0.519  0.00  0.00    +0.000 OA
ENDROOT
BRANCH   1   7
ATOM      3  C   UNL     1       2.525   0.202  -0.794  0.00  0.00    +0.000 C 
ATOM      4  C   UNL     1       1.082   0.100  -0.394  0.00  0.00    +0.000 A 
ATOM      5  C   UNL     1       0.494   1.096   0.394  0.00  0.00    +0.000 A 
ATOM      6  C   UNL     1      -0.840   0.989   0.797  0.00  0.00    +0.000 A 
ATOM      7  C   UNL     1      -1.603  -0.125   0.422  0.00  0.00    +0.000 A 
ATOM      8  C   UNL     1      -1.009  -1.130  -0.352  0.00  0.00    +0.000 A 
ATOM      9  C   UNL     1       0.325  -1.020  -0.753  0.00  0.00    +0.000 A 
ENDBRANCH   1   7
BRANCH   1  10
ATOM     10  O   UNL     1      -3.455   0.812   1.524  0.00  0.00    +0.000 OA
BRANCH  10  11
ATOM     11  C   UNL     1      -4.755   0.666   2.009  0.00  0.00    +0.000 A 
ATOM     12  C   UNL     1      -5.796   1.318   1.352  0.00  0.00    +0.000 A 
ATOM     13  C   UNL     1      -7.093   1.208   1.859  0.00  0.00    +0.000 A 
ATOM     14  C   UNL     1      -7.335   0.465   3.019  0.00  0.00    +0.000 A 
ATOM     15  C   UNL     1      -6.281  -0.169   3.680  0.00  0.00    +0.000 A 
ATOM     16  C   UNL     1      -4.990  -0.060   3.174  0.00  0.00    +0.000 A 
ATOM     17  F   UNL     1      -3.975  -0.647   3.824  0.00  0.00    +0.000 F 
ENDBRANCH  10  11
ENDBRANCH   1  10
TORSDOF 3
