REMARK  Name = *****
REMARK  6 active torsions:
REMARK  status: ('A' for Active; 'I' for Inactive)
REMARK    1  A    between atoms: C_1  and  C_2
REMARK    2  A    between atoms: C_2  and  C_3
REMARK    3  A    between atoms: N_5  and  C_18
REMARK    4  A    between atoms: C_6  and  C_9
REMARK    5  A    between atoms: C_10  and  C_11
REMARK    6  A    between atoms: C_18  and  C_19
REMARK                            x       y       z     vdW  Elec       q    Type
REMARK                         _______ _______ _______ _____ _____    ______ ____
ROOT
ATOM      1  C   UNL     1       3.012  -1.105   1.033  0.00  0.00    +0.000 C 
ATOM      2  C   UNL     1       3.855  -0.655   2.049  0.00  0.00    +0.000 C 
ATOM      3  N   UNL     1       4.369  -1.502   2.976  0.00  0.00    +0.000 N 
ATOM      4  C   UNL     1       4.074  -2.832   2.932  0.00  0.00    +0.000 C 
ATOM      5  C   UNL     1       3.236  -3.323   1.924  0.00  0.00    +0.000 C 
ATOM      6  C   UNL     1       2.708  -2.461   0.973  0.00  0.00    +0.000 C 
ENDROOT
BRANCH   1   8
ATOM      7  C   UNL     1       3.394  -0.031  -1.201  0.00  0.00    +0.000 C 
ATOM      8  C   UNL     1       2.471  -0.148   0.002  0.00  0.00    +0.000 C 
ENDBRANCH   1   8
BRANCH   4   9
ATOM      9  C   UNL     1       4.609  -3.752   3.940  0.00  0.00    +0.000 C 
ATOM     10  C   UNL     1       5.485  -4.721   3.631  0.00  0.00    +0.000 C 
BRANCH  10  11
ATOM     11  C   UNL     1       6.050  -5.639   4.629  0.00  0.00    +0.000 A 
ATOM     12  C   UNL     1       5.263  -6.230   5.628  0.00  0.00    +0.000 A 
ATOM     13  C   UNL     1       5.833  -7.116   6.548  0.00  0.00    +0.000 A 
ATOM     14  C   UNL     1       7.189  -7.422   6.468  0.00  0.00    +0.000 A 
ATOM     15  C   UNL     1       7.979  -6.857   5.470  0.00  0.00    +0.000 A 
ATOM     16  C   UNL     1       7.409  -5.973   4.549  0.00  0.00    +0.000 A 
ATOM     17 CL   UNL     1       7.889  -8.509   7.601  0.00  0.00    +0.000 Cl
ENDBRANCH  10  11
ENDBRANCH   4   9
BRANCH   3  18
ATOM     18  C   UNL     1       5.278  -0.932   4.007  0.00  0.00    +0.000 C 
ATOM     19  C   UNL     1       6.709  -0.981   3.508  0.00  0.00    +0.000 C 
ENDBRANCH   3  18
TORSDOF 4
