MODEL 1
REMARK VINA RESULT:      -4.5      0.000      0.000
REMARK  Name = *****
REMARK  4 active torsions:
REMARK  status: ('A' for Active; 'I' for Inactive)
REMARK    1  A    between atoms: C_4  and  C_7
REMARK    2  A    between atoms: C_7  and  C_8
REMARK    3  A    between atoms: C_8  and  S_10
REMARK    4  A    between atoms: S_10  and  C_11
REMARK                            x       y       z     vdW  Elec       q    Type
REMARK                         _______ _______ _______ _____ _____    ______ ____
ROOT
ATOM      1  C   UNL     1     102.790 125.406  83.476  0.00  0.00    +0.000 C 
ATOM      2  O   UNL     1     102.339 125.066  84.563  0.00  0.00    +0.000 OA
ENDROOT
BRANCH   1   3
ATOM      3  C   UNL     1     101.961 125.891  82.303  0.00  0.00    +0.000 C 
BRANCH   3   7
ATOM      4  C   UNL     1      99.100 128.943  83.354  0.00  0.00    +0.000 A 
ATOM      5  C   UNL     1      98.675 127.778  82.716  0.00  0.00    +0.000 A 
ATOM      6  C   UNL     1      99.600 126.789  82.377  0.00  0.00    +0.000 A 
ATOM      7  C   UNL     1     100.959 126.956  82.679  0.00  0.00    +0.000 A 
ATOM      8  C   UNL     1     101.377 128.135  83.309  0.00  0.00    +0.000 A 
ATOM      9  C   UNL     1     100.450 129.122  83.648  0.00  0.00    +0.000 A 
ENDBRANCH   3   7
ENDBRANCH   1   3
BRANCH   1  10
ATOM     10  S   UNL     1     104.517 125.248  83.139  0.00  0.00    +0.000 S 
BRANCH  10  11
ATOM     11  C   UNL     1     104.552 123.598  82.468  0.00  0.00    +0.000 A 
ATOM     12  C   UNL     1     104.694 123.370  81.095  0.00  0.00    +0.000 A 
ATOM     13  C   UNL     1     104.722 122.066  80.596  0.00  0.00    +0.000 A 
ATOM     14  C   UNL     1     104.620 120.983  81.467  0.00  0.00    +0.000 A 
ATOM     15  C   UNL     1     104.490 121.201  82.837  0.00  0.00    +0.000 A 
ATOM     16  C   UNL     1     104.460 122.505  83.337  0.00  0.00    +0.000 A 
ENDBRANCH  10  11
ENDBRANCH   1  10
TORSDOF 4
ENDMDL
