MODEL 1
REMARK VINA RESULT:      -4.5      0.000      0.000
REMARK  Name = *****
REMARK  3 active torsions:
REMARK  status: ('A' for Active; 'I' for Inactive)
REMARK    1  A    between atoms: C_7  and  C_9
REMARK    2  A    between atoms: C_9  and  S_10
REMARK    3  A    between atoms: S_10  and  C_11
REMARK                            x       y       z     vdW  Elec       q    Type
REMARK                         _______ _______ _______ _____ _____    ______ ____
ROOT
ATOM      1  C   UNL     1     100.714 128.466  84.688  0.00  0.00    +0.000 C 
ATOM      2  C   UNL     1      99.590 129.404  84.249  0.00  0.00    +0.000 C 
ATOM      3  C   UNL     1      98.985 129.092  82.892  0.00  0.00    +0.000 C 
ATOM      4  C   UNL     1      98.690 127.623  82.721  0.00  0.00    +0.000 C 
ATOM      5  O   UNL     1      97.553 127.166  82.812  0.00  0.00    +0.000 OA
ATOM      6  C   UNL     1      99.810 126.715  82.361  0.00  0.00    +0.000 C 
ATOM      7  C   UNL     1     101.108 126.913  82.663  0.00  0.00    +0.000 C 
ATOM      8  C   UNL     1     101.650 128.011  83.565  0.00  0.00    +0.000 C 
ENDROOT
BRANCH   7   9
ATOM      9  C   UNL     1     102.144 125.936  82.143  0.00  0.00    +0.000 C 
BRANCH   9  10
ATOM     10  S   UNL     1     103.291 126.804  81.022  0.00  0.00    +0.000 S 
BRANCH  10  11
ATOM     11  C   UNL     1     104.317 125.432  80.525  0.00  0.00    +0.000 A 
ATOM     12  C   UNL     1     105.365 125.655  79.626  0.00  0.00    +0.000 A 
ATOM     13  C   UNL     1     106.187 124.600  79.225  0.00  0.00    +0.000 A 
ATOM     14  C   UNL     1     105.972 123.318  79.728  0.00  0.00    +0.000 A 
ATOM     15  C   UNL     1     104.940 123.092  80.637  0.00  0.00    +0.000 A 
ATOM     16  C   UNL     1     104.117 124.147  81.038  0.00  0.00    +0.000 A 
ENDBRANCH  10  11
ENDBRANCH   9  10
ENDBRANCH   7   9
TORSDOF 3
ENDMDL
