MODEL 1
REMARK VINA RESULT:      -4.5      0.000      0.000
REMARK  Name = *****
REMARK  3 active torsions:
REMARK  status: ('A' for Active; 'I' for Inactive)
REMARK    1  A    between atoms: C_3  and  N_9
REMARK    2  A    between atoms: N_9  and  C_10
REMARK    3  A    between atoms: C_10  and  C_11
REMARK                            x       y       z     vdW  Elec       q    Type
REMARK                         _______ _______ _______ _____ _____    ______ ____
ROOT
ATOM      1  C   UNL     1     105.097 123.492  82.598  0.00  0.00    +0.000 C 
ATOM      2  C   UNL     1     103.962 124.484  82.602  0.00  0.00    +0.000 C 
ATOM      3  C   UNL     1     103.540 125.085  81.479  0.00  0.00    +0.000 C 
ATOM      4  C   UNL     1     104.209 124.846  80.216  0.00  0.00    +0.000 C 
ATOM      5  C   UNL     1     105.093 123.846  80.072  0.00  0.00    +0.000 C 
ATOM      6  C   UNL     1     105.460 122.927  81.205  0.00  0.00    +0.000 C 
ATOM      7  F   UNL     1     106.801 122.686  81.179  0.00  0.00    +0.000 F 
ATOM      8 CL   UNL     1     104.618 121.368  80.925  0.00  0.00    +0.000 Cl
ENDROOT
BRANCH   3   9
ATOM      9  N   UNL     1     102.550 126.022  81.468  0.00  0.00    +0.000 NA
BRANCH   9  10
ATOM     10  C   UNL     1     101.718 125.943  82.459  0.00  0.00    +0.000 C 
BRANCH  10  11
ATOM     11  C   UNL     1     100.781 127.037  82.782  0.00  0.00    +0.000 A 
ATOM     12  C   UNL     1     101.232 128.208  83.399  0.00  0.00    +0.000 A 
ATOM     13  C   UNL     1     100.326 129.227  83.695  0.00  0.00    +0.000 A 
ATOM     14  C   UNL     1      98.976 129.076  83.376  0.00  0.00    +0.000 A 
ATOM     15  C   UNL     1      98.527 127.908  82.760  0.00  0.00    +0.000 A 
ATOM     16  C   UNL     1      99.429 126.884  82.462  0.00  0.00    +0.000 A 
ENDBRANCH  10  11
ENDBRANCH   9  10
ENDBRANCH   3   9
TORSDOF 3
ENDMDL
