REMARK  Name = *****
REMARK  3 active torsions:
REMARK  status: ('A' for Active; 'I' for Inactive)
REMARK    1  A    between atoms: C_4  and  C_7
REMARK    2  A    between atoms: N_9  and  C_10
REMARK    3  A    between atoms: N_9  and  O_18
REMARK                            x       y       z     vdW  Elec       q    Type
REMARK                         _______ _______ _______ _____ _____    ______ ____
ROOT
ATOM      1  C   UNL     1      -2.695   0.448  -0.342  0.00  0.00    +0.000 C 
ATOM      2  O   UNL     1      -1.484   0.309  -0.183  0.00  0.00    +0.000 OA
ATOM      3  N   UNL     1      -3.656  -0.554  -0.210  0.00  0.00    +0.000 N 
ENDROOT
BRANCH   3   4
ATOM      4  C   UNL     1      -3.318  -1.921  -0.008  0.00  0.00    +0.000 A 
ATOM      5  C   UNL     1      -2.497  -2.352   1.057  0.00  0.00    +0.000 A 
ATOM      6  C   UNL     1      -2.158  -3.713   1.163  0.00  0.00    +0.000 A 
ATOM      7  C   UNL     1      -2.651  -4.641   0.241  0.00  0.00    +0.000 A 
ATOM      8  C   UNL     1      -3.503  -4.228  -0.778  0.00  0.00    +0.000 A 
ATOM      9  C   UNL     1      -3.841  -2.880  -0.895  0.00  0.00    +0.000 A 
ATOM     10 CL   UNL     1      -1.157  -4.331   2.435  0.00  0.00    +0.000 Cl
ATOM     11 CL   UNL     1      -2.068  -1.262   2.347  0.00  0.00    +0.000 Cl
ENDBRANCH   3   4
BRANCH   1  15
ATOM     12  C   UNL     1      -3.986   4.423  -1.203  0.00  0.00    +0.000 A 
ATOM     13  C   UNL     1      -4.206   3.414  -2.143  0.00  0.00    +0.000 A 
ATOM     14  C   UNL     1      -3.792   2.109  -1.876  0.00  0.00    +0.000 A 
ATOM     15  C   UNL     1      -3.172   1.815  -0.657  0.00  0.00    +0.000 A 
ATOM     16  C   UNL     1      -2.929   2.830   0.275  0.00  0.00    +0.000 A 
ATOM     17  C   UNL     1      -3.344   4.134   0.002  0.00  0.00    +0.000 A 
ENDBRANCH   1  15
BRANCH   3  18
ATOM     18  O   UNL     1      -4.906  -0.342  -0.840  0.00  0.00    +0.000 OA
ATOM     19  H   UNL     1      -5.059   0.611  -0.939  0.00  0.00    +0.000 HD
ENDBRANCH   3  18
TORSDOF 3
