MODEL 1
REMARK VINA RESULT:      -4.9      0.000      0.000
REMARK  Name = *****
REMARK  4 active torsions:
REMARK  status: ('A' for Active; 'I' for Inactive)
REMARK    1  A    between atoms: C_1  and  C_2
REMARK    2  A    between atoms: C_4  and  C_8
REMARK    3  A    between atoms: C_9  and  C_10
REMARK    4  A    between atoms: C_13  and  C_16
REMARK                            x       y       z     vdW  Elec       q    Type
REMARK                         _______ _______ _______ _____ _____    ______ ____
ROOT
ATOM      1  C   UNL     1     101.943 126.156  82.360  0.00  0.00    +0.000 C 
ATOM      2  C   UNL     1     102.825 125.384  82.095  0.00  0.00    +0.000 C 
ENDROOT
BRANCH   1   6
ATOM      3  C   UNL     1     100.480 130.472  84.336  0.00  0.00    +0.000 C 
ATOM      4  C   UNL     1     100.162 129.173  83.659  0.00  0.00    +0.000 A 
ATOM      5  C   UNL     1     101.185 128.271  83.336  0.00  0.00    +0.000 A 
ATOM      6  C   UNL     1     100.893 127.073  82.676  0.00  0.00    +0.000 A 
ATOM      7  C   UNL     1      99.576 126.776  82.325  0.00  0.00    +0.000 A 
ATOM      8  C   UNL     1      98.553 127.675  82.628  0.00  0.00    +0.000 A 
ATOM      9  C   UNL     1      98.846 128.870  83.287  0.00  0.00    +0.000 A 
ENDBRANCH   1   6
BRANCH   2  10
ATOM     10  C   UNL     1     103.875 124.466  81.780  0.00  0.00    +0.000 A 
ATOM     11  C   UNL     1     104.428 123.666  82.782  0.00  0.00    +0.000 A 
ATOM     12  C   UNL     1     105.455 122.767  82.475  0.00  0.00    +0.000 A 
ATOM     13  C   UNL     1     105.930 122.666  81.163  0.00  0.00    +0.000 A 
ATOM     14  C   UNL     1     105.374 123.469  80.160  0.00  0.00    +0.000 A 
ATOM     15  C   UNL     1     104.348 124.366  80.469  0.00  0.00    +0.000 A 
BRANCH  13  16
ATOM     16  C   UNL     1     106.982 121.745  80.847  0.00  0.00    +0.000 C 
ATOM     17  N   UNL     1     107.834 121.000  80.591  0.00  0.00    +0.000 NA
ENDBRANCH  13  16
ENDBRANCH   2  10
TORSDOF 3
ENDMDL
