MODEL 1
REMARK VINA RESULT:      -4.4      0.000      0.000
REMARK  Name = *****
REMARK  4 active torsions:
REMARK  status: ('A' for Active; 'I' for Inactive)
REMARK    1  A    between atoms: C_3  and  C_4
REMARK    2  A    between atoms: C_3  and  S_11
REMARK    3  A    between atoms: C_4  and  C_5
REMARK    4  A    between atoms: S_11  and  C_12
REMARK                            x       y       z     vdW  Elec       q    Type
REMARK                         _______ _______ _______ _____ _____    ______ ____
ROOT
ATOM      1  C   UNL     1      89.896  67.642  86.317  0.00  0.00    +0.000 C 
ATOM      2  C   UNL     1      88.517  67.665  86.900  0.00  0.00    +0.000 C 
ATOM      3  C   UNL     1      89.035  68.888  86.154  0.00  0.00    +0.000 C 
ENDROOT
BRANCH   3   4
ATOM      4  C   UNL     1      89.398  70.112  86.991  0.00  0.00    +0.000 C 
BRANCH   4   5
ATOM      5  C   UNL     1      88.285  70.618  87.885  0.00  0.00    +0.000 A 
ATOM      6  C   UNL     1      88.494  70.722  89.269  0.00  0.00    +0.000 A 
ATOM      7  C   UNL     1      87.488  71.206  90.108  0.00  0.00    +0.000 A 
ATOM      8  C   UNL     1      86.265  71.602  89.572  0.00  0.00    +0.000 A 
ATOM      9  C   UNL     1      86.049  71.518  88.199  0.00  0.00    +0.000 A 
ATOM     10  C   UNL     1      87.054  71.033  87.360  0.00  0.00    +0.000 A 
ENDBRANCH   4   5
ENDBRANCH   3   4
BRANCH   3  11
ATOM     11  S   UNL     1      88.363  69.191  84.538  0.00  0.00    +0.000 S 
BRANCH  11  12
ATOM     12  C   UNL     1      89.216  70.698  84.112  0.00  0.00    +0.000 A 
ATOM     13  C   UNL     1      90.570  70.642  83.764  0.00  0.00    +0.000 A 
ATOM     14  C   UNL     1      91.259  71.807  83.416  0.00  0.00    +0.000 A 
ATOM     15  C   UNL     1      90.594  73.032  83.404  0.00  0.00    +0.000 A 
ATOM     16  C   UNL     1      89.240  73.092  83.731  0.00  0.00    +0.000 A 
ATOM     17  C   UNL     1      88.552  71.927  84.079  0.00  0.00    +0.000 A 
ENDBRANCH  11  12
ENDBRANCH   3  11
TORSDOF 4
ENDMDL
