MODEL 1
REMARK VINA RESULT:      -4.4      0.000      0.000
REMARK  Name = *****
REMARK  5 active torsions:
REMARK  status: ('A' for Active; 'I' for Inactive)
REMARK    1  A    between atoms: C_1  and  N_2
REMARK    2  A    between atoms: N_2  and  C_3
REMARK    3  A    between atoms: N_2  and  C_4
REMARK    4  A    between atoms: C_9  and  C_10
REMARK    5  A    between atoms: C_11  and  C_12
REMARK                            x       y       z     vdW  Elec       q    Type
REMARK                         _______ _______ _______ _____ _____    ______ ____
ROOT
ATOM      1  C   UNL     1     101.204 127.882  83.813  0.00  0.00    +0.000 A 
ATOM      2  C   UNL     1     100.080 128.487  84.412  0.00  0.00    +0.000 A 
ATOM      3  C   UNL     1      98.777 128.257  83.956  0.00  0.00    +0.000 A 
ATOM      4  C   UNL     1      98.555 127.403  82.884  0.00  0.00    +0.000 A 
ATOM      5  C   UNL     1      99.637 126.775  82.275  0.00  0.00    +0.000 A 
ATOM      6  C   UNL     1     100.948 127.001  82.730  0.00  0.00    +0.000 A 
ENDROOT
BRANCH   1   8
ATOM      7  C   UNL     1     102.883 127.690  85.623  0.00  0.00    +0.000 C 
ATOM      8  N   UNL     1     102.500 128.139  84.290  0.00  0.00    +0.000 N 
ATOM      9  C   UNL     1     103.120 129.387  83.841  0.00  0.00    +0.000 C 
ENDBRANCH   1   8
BRANCH   6  10
ATOM     10  C   UNL     1     101.992 126.257  82.080  0.00  0.00    +0.000 C 
ATOM     11  C   UNL     1     102.869 125.642  81.535  0.00  0.00    +0.000 C 
BRANCH  11  12
ATOM     12  C   UNL     1     103.937 124.948  80.885  0.00  0.00    +0.000 A 
ATOM     13  C   UNL     1     104.267 123.647  81.266  0.00  0.00    +0.000 A 
ATOM     14  C   UNL     1     105.307 122.973  80.621  0.00  0.00    +0.000 A 
ATOM     15  C   UNL     1     106.015 123.599  79.595  0.00  0.00    +0.000 A 
ATOM     16  C   UNL     1     105.686 124.900  79.213  0.00  0.00    +0.000 A 
ATOM     17  C   UNL     1     104.649 125.575  79.859  0.00  0.00    +0.000 A 
ENDBRANCH  11  12
ENDBRANCH   6  10
TORSDOF 3
ENDMDL
