MODEL 1
REMARK VINA RESULT:      -5.0      0.000      0.000
REMARK  Name = *****
REMARK  3 active torsions:
REMARK  status: ('A' for Active; 'I' for Inactive)
REMARK    1  A    between atoms: C_4  and  C_8
REMARK    2  A    between atoms: C_9  and  C_10
REMARK    3  A    between atoms: C_10  and  C_12
REMARK                            x       y       z     vdW  Elec       q    Type
REMARK                         _______ _______ _______ _____ _____    ______ ____
ROOT
ATOM      1  C   UNL     1     101.621 127.016  82.145  0.00  0.00    +0.000 C 
ATOM      2  C   UNL     1     100.390 126.497  82.278  0.00  0.00    +0.000 C 
ENDROOT
BRANCH   1   6
ATOM      3  C   UNL     1     105.089 124.678  81.127  0.00  0.00    +0.000 A 
ATOM      4  C   UNL     1     104.391 124.452  82.311  0.00  0.00    +0.000 A 
ATOM      5  C   UNL     1     103.272 125.230  82.617  0.00  0.00    +0.000 A 
ATOM      6  C   UNL     1     102.827 126.254  81.772  0.00  0.00    +0.000 A 
ATOM      7  C   UNL     1     103.538 126.450  80.582  0.00  0.00    +0.000 A 
ATOM      8  C   UNL     1     104.659 125.680  80.260  0.00  0.00    +0.000 A 
ATOM      9  F   UNL     1     103.156 127.388  79.700  0.00  0.00    +0.000 F 
ATOM     10  F   UNL     1     102.627 124.976  83.767  0.00  0.00    +0.000 F 
ENDBRANCH   1   6
BRANCH   2  11
ATOM     11  C   UNL     1      99.258 127.384  82.666  0.00  0.00    +0.000 C 
ATOM     12  O   UNL     1      98.159 127.310  82.124  0.00  0.00    +0.000 OA
BRANCH  11  13
ATOM     13  C   UNL     1      99.502 128.414  83.713  0.00  0.00    +0.000 A 
ATOM     14  C   UNL     1      99.360 129.764  83.353  0.00  0.00    +0.000 A 
ATOM     15  C   UNL     1      99.567 130.770  84.298  0.00  0.00    +0.000 A 
ATOM     16  C   UNL     1      99.903 130.426  85.601  0.00  0.00    +0.000 A 
ATOM     17  C   UNL     1     100.032 129.093  85.980  0.00  0.00    +0.000 A 
ATOM     18  C   UNL     1      99.826 128.082  85.036  0.00  0.00    +0.000 A 
ATOM     19  F   UNL     1     100.100 131.389  86.509  0.00  0.00    +0.000 F 
ENDBRANCH  11  13
ENDBRANCH   2  11
TORSDOF 3
ENDMDL
