MODEL 1
REMARK VINA RESULT:      -3.9      0.000      0.000
REMARK  Name = *****
REMARK  4 active torsions:
REMARK  status: ('A' for Active; 'I' for Inactive)
REMARK    1  A    between atoms: C_1  and  P_2
REMARK    2  A    between atoms: P_2  and  C_3
REMARK    3  A    between atoms: P_2  and  C_11
REMARK    4  A    between atoms: C_4  and  C_5
REMARK                            x       y       z     vdW  Elec       q    Type
REMARK                         _______ _______ _______ _____ _____    ______ ____
ROOT
ATOM      1  C   UNL     1      87.901  66.874  87.006  0.00  0.00    +0.000 C 
ATOM      2  P   UNL     1      86.572  65.756  87.593  0.00  0.00    +0.000 P 
ENDROOT
BRANCH   2   3
ATOM      3  C   UNL     1      87.300  65.036  89.099  0.00  0.00    +0.000 A 
ATOM      4  C   UNL     1      86.575  65.107  90.297  0.00  0.00    +0.000 A 
ATOM      5  C   UNL     1      87.090  64.566  91.479  0.00  0.00    +0.000 A 
ATOM      6  C   UNL     1      88.338  63.950  91.479  0.00  0.00    +0.000 A 
ATOM      7  C   UNL     1      89.070  63.869  90.297  0.00  0.00    +0.000 A 
ATOM      8  C   UNL     1      88.554  64.409  89.114  0.00  0.00    +0.000 A 
ENDBRANCH   2   3
BRANCH   2   9
ATOM      9  C   UNL     1      86.734  64.393  86.411  0.00  0.00    +0.000 C 
ATOM     10  C   UNL     1      86.286  63.144  86.611  0.00  0.00    +0.000 C 
BRANCH  10  11
ATOM     11  C   UNL     1      85.568  62.631  87.783  0.00  0.00    +0.000 A 
ATOM     12  C   UNL     1      84.237  62.994  88.019  0.00  0.00    +0.000 A 
ATOM     13  C   UNL     1      83.559  62.497  89.134  0.00  0.00    +0.000 A 
ATOM     14  C   UNL     1      84.207  61.633  90.017  0.00  0.00    +0.000 A 
ATOM     15  C   UNL     1      85.533  61.267  89.785  0.00  0.00    +0.000 A 
ATOM     16  C   UNL     1      86.211  61.762  88.670  0.00  0.00    +0.000 A 
ENDBRANCH  10  11
ENDBRANCH   2   9
TORSDOF 3
ENDMDL
