MODEL 1
REMARK VINA RESULT:      -4.8      0.000      0.000
REMARK  Name = *****
REMARK  5 active torsions:
REMARK  status: ('A' for Active; 'I' for Inactive)
REMARK    1  A    between atoms: C_1  and  N_2
REMARK    2  A    between atoms: N_2  and  C_3
REMARK    3  A    between atoms: N_2  and  C_4
REMARK    4  A    between atoms: C_4  and  C_12
REMARK    5  A    between atoms: C_5  and  C_6
REMARK                            x       y       z     vdW  Elec       q    Type
REMARK                         _______ _______ _______ _____ _____    ______ ____
ROOT
ATOM      1  C   UNL     1     103.143 125.914  81.932  0.00  0.00    +0.000 C 
ATOM      2  C   UNL     1     101.893 125.840  82.436  0.00  0.00    +0.000 C 
ENDROOT
BRANCH   2   3
ATOM      3  C   UNL     1     100.983 126.952  82.739  0.00  0.00    +0.000 A 
ATOM      4  C   UNL     1      99.633 126.856  82.386  0.00  0.00    +0.000 A 
ATOM      5  C   UNL     1      98.747 127.890  82.698  0.00  0.00    +0.000 A 
ATOM      6  C   UNL     1      99.205 129.020  83.375  0.00  0.00    +0.000 A 
ATOM      7  C   UNL     1     100.546 129.116  83.743  0.00  0.00    +0.000 A 
ATOM      8  C   UNL     1     101.431 128.083  83.431  0.00  0.00    +0.000 A 
ENDBRANCH   2   3
BRANCH   1   9
ATOM      9  C   UNL     1     103.837 124.603  81.839  0.00  0.00    +0.000 A 
ATOM     10  C   UNL     1     104.025 123.827  82.990  0.00  0.00    +0.000 A 
ATOM     11  C   UNL     1     104.681 122.597  82.913  0.00  0.00    +0.000 A 
ATOM     12  C   UNL     1     105.154 122.135  81.686  0.00  0.00    +0.000 A 
ATOM     13  C   UNL     1     104.973 122.899  80.533  0.00  0.00    +0.000 A 
ATOM     14  C   UNL     1     104.317 124.130  80.609  0.00  0.00    +0.000 A 
ENDBRANCH   1   9
BRANCH   1  16
ATOM     15  C   UNL     1     103.596 127.619  80.148  0.00  0.00    +0.000 C 
ATOM     16  N   UNL     1     103.839 127.035  81.468  0.00  0.00    +0.000 N 
ATOM     17  C   UNL     1     105.031 127.556  82.140  0.00  0.00    +0.000 C 
ENDBRANCH   1  16
TORSDOF 3
ENDMDL
