MODEL 1
REMARK VINA RESULT:      -4.7      0.000      0.000
REMARK  Name = *****
REMARK  4 active torsions:
REMARK  status: ('A' for Active; 'I' for Inactive)
REMARK    1  A    between atoms: C_1  and  C_2
REMARK    2  A    between atoms: C_5  and  C_8
REMARK    3  A    between atoms: C_8  and  S_10
REMARK    4  A    between atoms: S_10  and  C_11
REMARK                            x       y       z     vdW  Elec       q    Type
REMARK                         _______ _______ _______ _____ _____    ______ ____
ROOT
ATOM      1  C   UNL     1      87.748  70.738  85.697  0.00  0.00    +0.000 C 
ATOM      2  O   UNL     1      87.795  70.496  84.497  0.00  0.00    +0.000 OA
ENDROOT
BRANCH   1   7
ATOM      3  C   UNL     1      83.075  73.012  88.311  0.00  0.00    +0.000 C 
ATOM      4  C   UNL     1      84.286  72.457  87.621  0.00  0.00    +0.000 A 
ATOM      5  C   UNL     1      84.376  72.475  86.225  0.00  0.00    +0.000 A 
ATOM      6  C   UNL     1      85.488  71.928  85.574  0.00  0.00    +0.000 A 
ATOM      7  C   UNL     1      86.526  71.342  86.311  0.00  0.00    +0.000 A 
ATOM      8  C   UNL     1      86.424  71.315  87.711  0.00  0.00    +0.000 A 
ATOM      9  C   UNL     1      85.312  71.861  88.359  0.00  0.00    +0.000 A 
ENDBRANCH   1   7
BRANCH   1  10
ATOM     10  S   UNL     1      89.137  70.402  86.725  0.00  0.00    +0.000 S 
BRANCH  10  11
ATOM     11  C   UNL     1      89.089  68.620  86.761  0.00  0.00    +0.000 A 
ATOM     12  C   UNL     1      90.120  67.896  86.154  0.00  0.00    +0.000 A 
ATOM     13  C   UNL     1      90.088  66.502  86.162  0.00  0.00    +0.000 A 
ATOM     14  C   UNL     1      89.034  65.818  86.765  0.00  0.00    +0.000 A 
ATOM     15  C   UNL     1      87.998  66.536  87.363  0.00  0.00    +0.000 A 
ATOM     16  C   UNL     1      88.025  67.933  87.357  0.00  0.00    +0.000 A 
ATOM     17 CL   UNL     1      91.363  65.616  85.420  0.00  0.00    +0.000 Cl
ENDBRANCH  10  11
ENDBRANCH   1  10
TORSDOF 3
ENDMDL
