MODEL 1
REMARK VINA RESULT:      -4.9      0.000      0.000
REMARK  Name = *****
REMARK  6 active torsions:
REMARK  status: ('A' for Active; 'I' for Inactive)
REMARK    1  A    between atoms: C_1  and  C_2
REMARK    2  A    between atoms: C_7  and  C_8
REMARK    3  A    between atoms: C_8  and  O_10
REMARK    4  A    between atoms: O_10  and  C_11
REMARK    5  A    between atoms: C_13  and  C_18
REMARK    6  A    between atoms: C_15  and  C_17
REMARK                            x       y       z     vdW  Elec       q    Type
REMARK                         _______ _______ _______ _____ _____    ______ ____
ROOT
ATOM      1  C   UNL     1      88.566  70.441  86.102  0.00  0.00    +0.000 C 
ATOM      2  O   UNL     1      89.684  70.874  86.332  0.00  0.00    +0.000 OA
ENDROOT
BRANCH   1   9
ATOM      3  C   UNL     1      88.102  70.390  89.115  0.00  0.00    +0.000 C 
ATOM      4  C   UNL     1      87.121  70.971  88.136  0.00  0.00    +0.000 A 
ATOM      5  C   UNL     1      85.935  71.542  88.629  0.00  0.00    +0.000 A 
ATOM      6  C   UNL     1      84.978  72.074  87.761  0.00  0.00    +0.000 A 
ATOM      7  C   UNL     1      85.189  72.044  86.386  0.00  0.00    +0.000 A 
ATOM      8  C   UNL     1      86.366  71.497  85.877  0.00  0.00    +0.000 A 
ATOM      9  C   UNL     1      87.342  70.981  86.744  0.00  0.00    +0.000 A 
ENDBRANCH   1   9
BRANCH   1  10
ATOM     10  O   UNL     1      88.215  69.349  85.335  0.00  0.00    +0.000 OA
BRANCH  10  11
ATOM     11  C   UNL     1      88.599  68.123  85.885  0.00  0.00    +0.000 A 
ATOM     12  C   UNL     1      87.804  67.503  86.848  0.00  0.00    +0.000 A 
ATOM     13  C   UNL     1      88.183  66.257  87.357  0.00  0.00    +0.000 A 
ATOM     14  C   UNL     1      89.333  65.632  86.851  0.00  0.00    +0.000 A 
ATOM     15  C   UNL     1      90.111  66.242  85.853  0.00  0.00    +0.000 A 
ATOM     16  C   UNL     1      89.739  67.502  85.376  0.00  0.00    +0.000 A 
ATOM     17  C   UNL     1      91.357  65.577  85.349  0.00  0.00    +0.000 C 
ATOM     18  C   UNL     1      87.338  65.572  88.389  0.00  0.00    +0.000 C 
ENDBRANCH  10  11
ENDBRANCH   1  10
TORSDOF 3
ENDMDL
