MODEL 1
REMARK VINA RESULT:      -4.4      0.000      0.000
REMARK  Name = *****
REMARK  3 active torsions:
REMARK  status: ('A' for Active; 'I' for Inactive)
REMARK    1  A    between atoms: C_7  and  O_8
REMARK    2  A    between atoms: O_8  and  C_9
REMARK    3  A    between atoms: C_9  and  C_11
REMARK                            x       y       z     vdW  Elec       q    Type
REMARK                         _______ _______ _______ _____ _____    ______ ____
ROOT
ATOM      1  C   UNL     1     102.195 125.613  83.341  0.00  0.00    +0.000 C 
ATOM      2  O   UNL     1     102.389 125.171  84.463  0.00  0.00    +0.000 OA
ENDROOT
BRANCH   1   3
ATOM      3  C   UNL     1     103.111 125.370  82.193  0.00  0.00    +0.000 A 
ATOM      4  C   UNL     1     103.151 126.325  81.165  0.00  0.00    +0.000 A 
ATOM      5  C   UNL     1     103.994 126.142  80.064  0.00  0.00    +0.000 A 
ATOM      6  C   UNL     1     104.798 125.006  79.990  0.00  0.00    +0.000 A 
ATOM      7  C   UNL     1     104.767 124.051  81.004  0.00  0.00    +0.000 A 
ATOM      8  C   UNL     1     103.925 124.231  82.106  0.00  0.00    +0.000 A 
ATOM      9 CL   UNL     1     105.835 124.781  78.636  0.00  0.00    +0.000 Cl
ENDBRANCH   1   3
BRANCH   1  10
ATOM     10  O   UNL     1     101.144 126.379  82.957  0.00  0.00    +0.000 OA
BRANCH  10  17
ATOM     11  C   UNL     1      98.810 129.394  84.828  0.00  0.00    +0.000 C 
ATOM     12  C   UNL     1      98.543 127.923  85.179  0.00  0.00    +0.000 C 
ATOM     13  C   UNL     1      99.090 127.173  83.954  0.00  0.00    +0.000 C 
ATOM     14  C   UNL     1      98.717 128.127  82.816  0.00  0.00    +0.000 C 
ATOM     15  C   UNL     1      99.461 129.305  83.437  0.00  0.00    +0.000 C 
ATOM     16  C   UNL     1     100.885 128.737  83.584  0.00  0.00    +0.000 C 
ATOM     17  C   UNL     1     100.632 127.264  83.964  0.00  0.00    +0.000 C 
ENDBRANCH  10  17
ENDBRANCH   1  10
TORSDOF 3
ENDMDL
