MODEL 1
REMARK VINA RESULT:      -4.8      0.000      0.000
REMARK  Name = *****
REMARK  4 active torsions:
REMARK  status: ('A' for Active; 'I' for Inactive)
REMARK    1  A    between atoms: C_4  and  C_7
REMARK    2  A    between atoms: C_7  and  O_8
REMARK    3  A    between atoms: O_8  and  C_9
REMARK    4  A    between atoms: C_13  and  C_15
REMARK                            x       y       z     vdW  Elec       q    Type
REMARK                         _______ _______ _______ _____ _____    ______ ____
ROOT
ATOM      1  C   UNL     1     101.287 127.344  82.805  0.00  0.00    +0.000 A 
ATOM      2  C   UNL     1     100.205 126.584  82.362  0.00  0.00    +0.000 A 
ATOM      3  C   UNL     1      98.904 127.075  82.491  0.00  0.00    +0.000 A 
ATOM      4  C   UNL     1      98.675 128.326  83.063  0.00  0.00    +0.000 A 
ATOM      5  C   UNL     1      99.751 129.104  83.512  0.00  0.00    +0.000 A 
ATOM      6  C   UNL     1     101.054 128.600  83.372  0.00  0.00    +0.000 A 
ENDROOT
BRANCH   5   7
ATOM      7  C   UNL     1      99.534 130.461  84.132  0.00  0.00    +0.000 C 
ATOM      8  F   UNL     1     100.592 130.895  84.875  0.00  0.00    +0.000 F 
ATOM      9  F   UNL     1      99.314 131.432  83.201  0.00  0.00    +0.000 F 
ATOM     10  F   UNL     1      98.458 130.490  84.964  0.00  0.00    +0.000 F 
ENDBRANCH   5   7
BRANCH   1  11
ATOM     11  O   UNL     1     102.605 126.987  82.738  0.00  0.00    +0.000 OA
BRANCH  11  12
ATOM     12  C   UNL     1     103.102 126.563  81.468  0.00  0.00    +0.000 C 
BRANCH  12  16
ATOM     13  C   UNL     1     104.842 122.621  81.809  0.00  0.00    +0.000 A 
ATOM     14  C   UNL     1     104.797 123.252  80.567  0.00  0.00    +0.000 A 
ATOM     15  C   UNL     1     104.227 124.521  80.447  0.00  0.00    +0.000 A 
ATOM     16  C   UNL     1     103.682 125.169  81.566  0.00  0.00    +0.000 A 
ATOM     17  C   UNL     1     103.749 124.528  82.813  0.00  0.00    +0.000 A 
ATOM     18  C   UNL     1     104.320 123.259  82.931  0.00  0.00    +0.000 A 
ENDBRANCH  12  16
ENDBRANCH  11  12
ENDBRANCH   1  11
TORSDOF 4
ENDMDL
