REMARK  Name = *****
REMARK  5 active torsions:
REMARK  status: ('A' for Active; 'I' for Inactive)
REMARK    1  A    between atoms: C_1  and  N_2
REMARK    2  A    between atoms: N_2  and  S_3
REMARK    3  A    between atoms: S_3  and  C_5
REMARK    4  A    between atoms: S_3  and  C_13
REMARK    5  A    between atoms: C_5  and  C_6
REMARK                            x       y       z     vdW  Elec       q    Type
REMARK                         _______ _______ _______ _____ _____    ______ ____
ROOT
ATOM      1  S   UNL     1       3.268  -1.438  -0.506  0.00  0.00    +0.000 S 
ATOM      2  O   UNL     1       4.617  -0.923  -0.676  0.00  0.00    +0.000 OA
ENDROOT
BRANCH   1   3
ATOM      3  C   UNL     1       2.274  -0.044   0.010  0.00  0.00    +0.000 A 
ATOM      4  C   UNL     1       1.113  -0.246   0.761  0.00  0.00    +0.000 A 
ATOM      5  C   UNL     1       0.344   0.852   1.148  0.00  0.00    +0.000 A 
ATOM      6  C   UNL     1       0.740   2.143   0.794  0.00  0.00    +0.000 A 
ATOM      7  C   UNL     1       1.909   2.342   0.058  0.00  0.00    +0.000 A 
ATOM      8  C   UNL     1       2.683   1.249  -0.334  0.00  0.00    +0.000 A 
ENDBRANCH   1   3
BRANCH   1  10
ATOM      9  C   UNL     1       4.044  -3.088   1.308  0.00  0.00    +0.000 C 
ATOM     10  N   UNL     1       2.959  -2.607   0.465  0.00  0.00    +0.000 NA
ENDBRANCH   1  10
BRANCH   1  11
ATOM     11  C   UNL     1       2.654  -1.826  -2.146  0.00  0.00    +0.000 C 
BRANCH  11  12
ATOM     12  C   UNL     1       1.166  -2.116  -2.178  0.00  0.00    +0.000 C 
ATOM     13  C   UNL     1       0.305  -1.205  -2.672  0.00  0.00    +0.000 C 
ATOM     14  C   UNL     1      -1.187  -1.335  -2.733  0.00  0.00    +0.000 C 
ATOM     15  C   UNL     1      -1.686  -2.529  -3.541  0.00  0.00    +0.000 C 
ATOM     16  C   UNL     1      -1.517  -3.867  -2.829  0.00  0.00    +0.000 C 
ATOM     17  C   UNL     1      -0.068  -4.311  -2.655  0.00  0.00    +0.000 C 
ATOM     18  C   UNL     1       0.737  -3.470  -1.662  0.00  0.00    +0.000 C 
ENDBRANCH  11  12
ENDBRANCH   1  11
TORSDOF 4
