MODEL 1
REMARK VINA RESULT:      -4.5      0.000      0.000
REMARK  Name = *****
REMARK  4 active torsions:
REMARK  status: ('A' for Active; 'I' for Inactive)
REMARK    1  A    between atoms: C_1  and  C_2
REMARK    2  A    between atoms: C_2  and  C_13
REMARK    3  A    between atoms: C_3  and  C_6
REMARK    4  A    between atoms: C_3  and  C_7
REMARK                            x       y       z     vdW  Elec       q    Type
REMARK                         _______ _______ _______ _____ _____    ______ ____
ROOT
ATOM      1  C   UNL     1      87.948  66.995  87.303  0.00  0.00    +0.000 C 
ATOM      2  C   UNL     1      88.527  68.342  86.932  0.00  0.00    +0.000 C 
ATOM      3  C   UNL     1      88.976  68.631  85.465  0.00  0.00    +0.000 C 
ATOM      4  N   UNL     1      89.942  68.407  86.547  0.00  0.00    +0.000 NA
ATOM      5  F   UNL     1      90.527  67.167  86.482  0.00  0.00    +0.000 F 
ATOM      6  C   UNL     1      88.836  67.566  84.400  0.00  0.00    +0.000 C 
ENDROOT
BRANCH   3   7
ATOM      7  C   UNL     1      88.907  70.059  84.915  0.00  0.00    +0.000 A 
ATOM      8  C   UNL     1      90.050  70.873  84.800  0.00  0.00    +0.000 A 
ATOM      9  C   UNL     1      89.980  72.168  84.278  0.00  0.00    +0.000 A 
ATOM     10  C   UNL     1      88.762  72.681  83.848  0.00  0.00    +0.000 A 
ATOM     11  C   UNL     1      87.614  71.897  83.935  0.00  0.00    +0.000 A 
ATOM     12  C   UNL     1      87.692  70.603  84.458  0.00  0.00    +0.000 A 
ENDBRANCH   3   7
BRANCH   2  13
ATOM     13  C   UNL     1      88.018  69.490  87.810  0.00  0.00    +0.000 A 
ATOM     14  C   UNL     1      88.881  70.256  88.619  0.00  0.00    +0.000 A 
ATOM     15  C   UNL     1      88.403  71.287  89.431  0.00  0.00    +0.000 A 
ATOM     16  C   UNL     1      87.042  71.576  89.462  0.00  0.00    +0.000 A 
ATOM     17  C   UNL     1      86.162  70.830  88.685  0.00  0.00    +0.000 A 
ATOM     18  C   UNL     1      86.646  69.799  87.875  0.00  0.00    +0.000 A 
ENDBRANCH   2  13
TORSDOF 2
ENDMDL
