REMARK  Name = *****
REMARK  3 active torsions:
REMARK  status: ('A' for Active; 'I' for Inactive)
REMARK    1  A    between atoms: C_10  and  O_11
REMARK    2  A    between atoms: O_11  and  C_12
REMARK    3  A    between atoms: C_12  and  C_13
REMARK                            x       y       z     vdW  Elec       q    Type
REMARK                         _______ _______ _______ _____ _____    ______ ____
ROOT
ATOM      1  C   UNL     1      -0.614  -1.115   0.702  0.00  0.00    +0.000 C 
ATOM      2  C   UNL     1       0.046  -0.803  -0.645  0.00  0.00    +0.000 C 
ATOM      3  C   UNL     1       1.411  -1.522  -0.638  0.00  0.00    +0.000 C 
ATOM      4  C   UNL     1       2.342  -0.745   0.307  0.00  0.00    +0.000 C 
ATOM      5  C   UNL     1       2.631   0.559  -0.409  0.00  0.00    +0.000 C 
ATOM      6  C   UNL     1       1.601   1.245  -0.928  0.00  0.00    +0.000 C 
ATOM      7  C   UNL     1       0.205   0.764  -0.628  0.00  0.00    +0.000 C 
ATOM      8  C   UNL     1      -0.089   1.159   0.838  0.00  0.00    +0.000 C 
ATOM      9  C   UNL     1       0.139  -0.146   1.611  0.00  0.00    +0.000 C 
ATOM     10  C   UNL     1       1.648  -0.562   1.704  0.00  0.00    +0.000 C 
ENDROOT
BRANCH  10  11
ATOM     11  O   UNL     1       2.432   0.347   2.483  0.00  0.00    +0.000 OA
BRANCH  11  12
ATOM     12  C   UNL     1       2.084   0.391   3.864  0.00  0.00    +0.000 C 
BRANCH  12  13
ATOM     13  C   UNL     1       3.139   1.141   4.641  0.00  0.00    +0.000 A 
ATOM     14  C   UNL     1       3.798   2.249   4.089  0.00  0.00    +0.000 A 
ATOM     15  C   UNL     1       4.742   2.960   4.832  0.00  0.00    +0.000 A 
ATOM     16  C   UNL     1       5.031   2.579   6.140  0.00  0.00    +0.000 A 
ATOM     17  C   UNL     1       4.374   1.489   6.707  0.00  0.00    +0.000 A 
ATOM     18  C   UNL     1       3.430   0.777   5.965  0.00  0.00    +0.000 A 
ENDBRANCH  12  13
ENDBRANCH  11  12
ENDBRANCH  10  11
TORSDOF 3
