REMARK  Name = *****
REMARK  6 active torsions:
REMARK  status: ('A' for Active; 'I' for Inactive)
REMARK    1  A    between atoms: C_1  and  C_2
REMARK    2  A    between atoms: C_4  and  C_8
REMARK    3  A    between atoms: C_9  and  C_10
REMARK    4  A    between atoms: C_15  and  N_16
REMARK    5  A    between atoms: N_16  and  C_17
REMARK    6  A    between atoms: N_16  and  C_18
REMARK                            x       y       z     vdW  Elec       q    Type
REMARK                         _______ _______ _______ _____ _____    ______ ____
ROOT
ATOM      1  C   UNL     1       5.306   2.607  -0.437  0.00  0.00    +0.000 C 
ATOM      2  C   UNL     1       5.881   3.637  -0.665  0.00  0.00    +0.000 C 
ENDROOT
BRANCH   1   6
ATOM      3  C   UNL     1       1.086   0.070   0.235  0.00  0.00    +0.000 C 
ATOM      4  C   UNL     1       2.584   0.120   0.173  0.00  0.00    +0.000 A 
ATOM      5  C   UNL     1       3.244   1.329  -0.086  0.00  0.00    +0.000 A 
ATOM      6  C   UNL     1       4.638   1.370  -0.176  0.00  0.00    +0.000 A 
ATOM      7  C   UNL     1       5.381   0.199  -0.019  0.00  0.00    +0.000 A 
ATOM      8  C   UNL     1       4.731  -1.011   0.224  0.00  0.00    +0.000 A 
ATOM      9  C   UNL     1       3.339  -1.051   0.314  0.00  0.00    +0.000 A 
ENDBRANCH   1   6
BRANCH   2  10
ATOM     10  C   UNL     1       6.576   4.862  -0.947  0.00  0.00    +0.000 A 
ATOM     11  C   UNL     1       5.951   6.065  -0.588  0.00  0.00    +0.000 A 
ATOM     12  C   UNL     1       6.585   7.284  -0.812  0.00  0.00    +0.000 A 
ATOM     13  C   UNL     1       7.847   7.307  -1.395  0.00  0.00    +0.000 A 
ATOM     14  C   UNL     1       8.477   6.111  -1.755  0.00  0.00    +0.000 A 
ATOM     15  C   UNL     1       7.862   4.864  -1.541  0.00  0.00    +0.000 A 
BRANCH  15  16
ATOM     16  N   UNL     1       8.485   3.651  -1.919  0.00  0.00    +0.000 N 
ATOM     17  C   UNL     1       9.936   3.587  -1.755  0.00  0.00    +0.000 C 
ATOM     18  C   UNL     1       8.001   3.181  -3.220  0.00  0.00    +0.000 C 
ENDBRANCH  15  16
ENDBRANCH   2  10
TORSDOF 3
