REMARK  Name = *****
REMARK  3 active torsions:
REMARK  status: ('A' for Active; 'I' for Inactive)
REMARK    1  A    between atoms: C_6  and  C_7
REMARK    2  A    between atoms: C_7  and  N_8
REMARK    3  A    between atoms: C_9  and  C_10
REMARK                            x       y       z     vdW  Elec       q    Type
REMARK                         _______ _______ _______ _____ _____    ______ ____
ROOT
ATOM      1  N   UNL     1      -1.287  -0.321  -2.511  0.00  0.00    +0.000 NA
ATOM      2  C   UNL     1      -1.587  -0.677  -3.712  0.00  0.00    +0.000 C 
ATOM      3 CL   UNL     1      -0.786   0.233  -4.952  0.00  0.00    +0.000 Cl
ENDROOT
BRANCH   2   4
ATOM      4  C   UNL     1      -2.528  -1.749  -4.106  0.00  0.00    +0.000 A 
ATOM      5  C   UNL     1      -3.880  -1.654  -3.759  0.00  0.00    +0.000 A 
ATOM      6  C   UNL     1      -4.762  -2.661  -4.148  0.00  0.00    +0.000 A 
ATOM      7  C   UNL     1      -4.296  -3.751  -4.884  0.00  0.00    +0.000 A 
ATOM      8  C   UNL     1      -2.948  -3.837  -5.239  0.00  0.00    +0.000 A 
ATOM      9  C   UNL     1      -2.060  -2.833  -4.854  0.00  0.00    +0.000 A 
ENDBRANCH   2   4
BRANCH   1  10
ATOM     10  C   UNL     1      -1.821  -1.057  -1.357  0.00  0.00    +0.000 C 
BRANCH  10  16
ATOM     11  C   UNL     1      -0.725   0.586   0.303  0.00  0.00    +0.000 C 
ATOM     12  C   UNL     1      -1.770   1.080   1.275  0.00  0.00    +0.000 C 
ATOM     13  C   UNL     1      -2.454   0.235   2.060  0.00  0.00    +0.000 C 
ATOM     14  C   UNL     1      -2.203  -1.185   2.018  0.00  0.00    +0.000 C 
ATOM     15  C   UNL     1      -1.493  -1.736   1.021  0.00  0.00    +0.000 C 
ATOM     16  C   UNL     1      -0.903  -0.904  -0.110  0.00  0.00    +0.000 C 
ATOM     17 CL   UNL     1       0.725  -1.605  -0.487  0.00  0.00    +0.000 Cl
ENDBRANCH  10  16
ENDBRANCH   1  10
TORSDOF 3
