REMARK  Name = *****
REMARK  2 active torsions:
REMARK  status: ('A' for Active; 'I' for Inactive)
REMARK    1  A    between atoms: C_4  and  N_8
REMARK    2  A    between atoms: C_9  and  C_10
REMARK                            x       y       z     vdW  Elec       q    Type
REMARK                         _______ _______ _______ _____ _____    ______ ____
ROOT
ATOM      1  N   UNL     1       1.198   2.539  -0.601  0.00  0.00    +0.000 NA
ATOM      2  C   UNL     1       1.151   3.466   0.302  0.00  0.00    +0.000 C 
ENDROOT
BRANCH   1   6
ATOM      3  C   UNL     1      -0.756  -1.134   0.109  0.00  0.00    +0.000 A 
ATOM      4  C   UNL     1       0.153  -0.660   1.052  0.00  0.00    +0.000 A 
ATOM      5  C   UNL     1       0.798   0.557   0.830  0.00  0.00    +0.000 A 
ATOM      6  C   UNL     1       0.545   1.324  -0.321  0.00  0.00    +0.000 A 
ATOM      7  C   UNL     1      -0.357   0.827  -1.263  0.00  0.00    +0.000 A 
ATOM      8  C   UNL     1      -1.001  -0.387  -1.039  0.00  0.00    +0.000 A 
ATOM      9  F   UNL     1      -1.870  -0.848  -1.948  0.00  0.00    +0.000 F 
ATOM     10  F   UNL     1       1.671   0.993   1.753  0.00  0.00    +0.000 F 
ENDBRANCH   1   6
BRANCH   2  11
ATOM     11  C   UNL     1       1.818   4.767   0.109  0.00  0.00    +0.000 A 
ATOM     12  C   UNL     1       2.543   5.034  -1.056  0.00  0.00    +0.000 A 
ATOM     13  C   UNL     1       3.159   6.272  -1.204  0.00  0.00    +0.000 A 
ATOM     14  C   UNL     1       3.066   7.244  -0.216  0.00  0.00    +0.000 A 
ATOM     15  C   UNL     1       2.343   6.962   0.936  0.00  0.00    +0.000 A 
ATOM     16  C   UNL     1       1.716   5.732   1.113  0.00  0.00    +0.000 A 
ATOM     17  F   UNL     1       2.246   7.891   1.896  0.00  0.00    +0.000 F 
ATOM     18  F   UNL     1       3.854   6.533  -2.318  0.00  0.00    +0.000 F 
ENDBRANCH   2  11
TORSDOF 2
