MODEL 1
REMARK VINA RESULT:      -4.6      0.000      0.000
REMARK  Name = *****
REMARK  1 active torsions:
REMARK  status: ('A' for Active; 'I' for Inactive)
REMARK    1  A    between atoms: P_10  and  C_12
REMARK                            x       y       z     vdW  Elec       q    Type
REMARK                         _______ _______ _______ _____ _____    ______ ____
ROOT
ATOM      1  C   UNL     1      87.580  65.735  88.200  0.00  0.00    +0.000 C 
ATOM      2  C   UNL     1      87.667  66.667  87.237  0.00  0.00    +0.000 C 
ATOM      3  C   UNL     1      87.410  66.334  85.787  0.00  0.00    +0.000 C 
ATOM      4  C   UNL     1      88.678  66.270  84.937  0.00  0.00    +0.000 C 
ATOM      5  C   UNL     1      89.368  67.620  84.744  0.00  0.00    +0.000 C 
ATOM      6  C   UNL     1      89.964  68.205  86.024  0.00  0.00    +0.000 C 
ATOM      7  C   UNL     1      88.950  68.758  86.994  0.00  0.00    +0.000 C 
ATOM      8  C   UNL     1      87.948  68.059  87.551  0.00  0.00    +0.000 C 
ATOM      9  C   UNL     1      87.047  68.745  88.531  0.00  0.00    +0.000 C 
ATOM     10  P   UNL     1      87.651  70.461  88.414  0.00  0.00    +0.000 P 
ATOM     11  C   UNL     1      89.127  70.189  87.388  0.00  0.00    +0.000 C 
ENDROOT
BRANCH  10  12
ATOM     12  C   UNL     1      86.477  71.229  87.250  0.00  0.00    +0.000 A 
ATOM     13  C   UNL     1      85.307  71.797  87.779  0.00  0.00    +0.000 A 
ATOM     14  C   UNL     1      84.362  72.403  86.947  0.00  0.00    +0.000 A 
ATOM     15  C   UNL     1      84.573  72.451  85.573  0.00  0.00    +0.000 A 
ATOM     16  C   UNL     1      85.728  71.893  85.031  0.00  0.00    +0.000 A 
ATOM     17  C   UNL     1      86.673  71.287  85.864  0.00  0.00    +0.000 A 
ENDBRANCH  10  12
TORSDOF 1
ENDMDL
