REMARK  Name = *****
REMARK  2 active torsions:
REMARK  status: ('A' for Active; 'I' for Inactive)
REMARK    1  A    between atoms: C_1  and  C_2
REMARK    2  A    between atoms: C_9  and  C_11
REMARK                            x       y       z     vdW  Elec       q    Type
REMARK                         _______ _______ _______ _____ _____    ______ ____
ROOT
ATOM      1  C   UNL     1       1.664   1.576   0.448  0.00  0.00    +0.000 C 
ATOM      2  C   UNL     1       2.669   0.464   0.353  0.00  0.00    +0.000 A 
ATOM      3  C   UNL     1       4.049   0.750   0.360  0.00  0.00    +0.000 A 
ATOM      4  C   UNL     1       4.955  -0.315   0.271  0.00  0.00    +0.000 A 
ATOM      5  C   UNL     1       4.465  -1.606   0.179  0.00  0.00    +0.000 A 
ATOM      6  C   UNL     1       3.118  -1.943   0.168  0.00  0.00    +0.000 A 
ATOM      7  C   UNL     1       2.223  -0.868   0.258  0.00  0.00    +0.000 A 
ATOM      8  O   UNL     1       5.530  -2.454   0.106  0.00  0.00    +0.000 OA
ATOM      9  C   UNL     1       6.617  -1.619   0.158  0.00  0.00    +0.000 A 
ATOM     10  N   UNL     1       6.327  -0.335   0.255  0.00  0.00    +0.000 NA
ENDROOT
BRANCH   9  11
ATOM     11  C   UNL     1       7.958  -2.273   0.097  0.00  0.00    +0.000 C 
ATOM     12  C   UNL     1       8.783  -1.938   1.347  0.00  0.00    +0.000 C 
ATOM     13  C   UNL     1      10.178  -2.555   1.282  0.00  0.00    +0.000 C 
ATOM     14  C   UNL     1      10.913  -2.150   0.008  0.00  0.00    +0.000 C 
ATOM     15  C   UNL     1      10.099  -2.478  -1.240  0.00  0.00    +0.000 C 
ATOM     16  C   UNL     1       8.703  -1.860  -1.180  0.00  0.00    +0.000 C 
ENDBRANCH   9  11
TORSDOF 1
