REMARK  Name = *****
REMARK  3 active torsions:
REMARK  status: ('A' for Active; 'I' for Inactive)
REMARK    1  A    between atoms: C_4  and  C_7
REMARK    2  A    between atoms: C_7  and  O_8
REMARK    3  A    between atoms: O_8  and  C_9
REMARK                            x       y       z     vdW  Elec       q    Type
REMARK                         _______ _______ _______ _____ _____    ______ ____
ROOT
ATOM      1  O   UNL     1      -3.572  -0.741  -0.125  0.00  0.00    +0.000 OA
ENDROOT
BRANCH   1   2
ATOM      2  C   UNL     1      -4.925  -0.707  -0.336  0.00  0.00    +0.000 A 
ATOM      3  C   UNL     1      -5.709   0.446  -0.453  0.00  0.00    +0.000 A 
ATOM      4  C   UNL     1      -7.088   0.371  -0.662  0.00  0.00    +0.000 A 
ATOM      5  C   UNL     1      -7.715  -0.868  -0.755  0.00  0.00    +0.000 A 
ATOM      6  C   UNL     1      -6.956  -2.030  -0.638  0.00  0.00    +0.000 A 
ATOM      7  C   UNL     1      -5.573  -1.949  -0.429  0.00  0.00    +0.000 A 
ATOM      8 CL   UNL     1      -4.695  -3.436  -0.300  0.00  0.00    +0.000 Cl
ATOM      9  F   UNL     1      -5.171   1.671  -0.366  0.00  0.00    +0.000 F 
ENDBRANCH   1   2
BRANCH   1  10
ATOM     10  C   UNL     1      -2.853   0.491  -0.164  0.00  0.00    +0.000 C 
BRANCH  10  14
ATOM     11  C   UNL     1       1.409  -0.172   0.136  0.00  0.00    +0.000 A 
ATOM     12  C   UNL     1       0.601  -1.133  -0.468  0.00  0.00    +0.000 A 
ATOM     13  C   UNL     1      -0.778  -0.931  -0.560  0.00  0.00    +0.000 A 
ATOM     14  C   UNL     1      -1.367   0.230  -0.037  0.00  0.00    +0.000 A 
ATOM     15  C   UNL     1      -0.539   1.196   0.555  0.00  0.00    +0.000 A 
ATOM     16  C   UNL     1       0.840   0.993   0.645  0.00  0.00    +0.000 A 
ENDBRANCH  10  14
ENDBRANCH   1  10
TORSDOF 3
