REMARK  Name = *****
REMARK  1 active torsions:
REMARK  status: ('A' for Active; 'I' for Inactive)
REMARK    1  A    between atoms: C_4  and  C_7
REMARK                            x       y       z     vdW  Elec       q    Type
REMARK                         _______ _______ _______ _____ _____    ______ ____
ROOT
ATOM      1  C   UNL     1      -3.211  -0.021  -0.616  0.00  0.00    +0.000 A 
ATOM      2  C   UNL     1      -4.192   0.685  -1.285  0.00  0.00    +0.000 A 
ATOM      3  C   UNL     1      -5.526   0.312  -0.908  0.00  0.00    +0.000 A 
ATOM      4  C   UNL     1      -6.779   0.790  -1.362  0.00  0.00    +0.000 A 
ATOM      5  C   UNL     1      -7.967   0.268  -0.841  0.00  0.00    +0.000 A 
ATOM      6  C   UNL     1      -7.929  -0.726   0.128  0.00  0.00    +0.000 A 
ATOM      7  C   UNL     1      -6.707  -1.216   0.594  0.00  0.00    +0.000 A 
ATOM      8  C   UNL     1      -5.513  -0.686   0.066  0.00  0.00    +0.000 A 
ATOM      9  S   UNL     1      -3.906  -1.129   0.487  0.00  0.00    +0.000 S 
ENDROOT
BRANCH   1  13
ATOM     10  C   UNL     1       1.036   0.398  -0.985  0.00  0.00    +0.000 A 
ATOM     11  C   UNL     1       0.220   1.525  -0.928  0.00  0.00    +0.000 A 
ATOM     12  C   UNL     1      -1.164   1.381  -0.805  0.00  0.00    +0.000 A 
ATOM     13  C   UNL     1      -1.751   0.108  -0.732  0.00  0.00    +0.000 A 
ATOM     14  C   UNL     1      -0.915  -1.017  -0.796  0.00  0.00    +0.000 A 
ATOM     15  C   UNL     1       0.469  -0.873  -0.919  0.00  0.00    +0.000 A 
ENDBRANCH   1  13
TORSDOF 1
