REMARK  Name = *****
REMARK  4 active torsions:
REMARK  status: ('A' for Active; 'I' for Inactive)
REMARK    1  A    between atoms: C_1  and  O_2
REMARK    2  A    between atoms: O_2  and  C_3
REMARK    3  A    between atoms: C_3  and  C_11
REMARK    4  A    between atoms: C_12  and  C_13
REMARK                            x       y       z     vdW  Elec       q    Type
REMARK                         _______ _______ _______ _____ _____    ______ ____
ROOT
ATOM      1  C   UNL     1       2.988   1.078  -0.364  0.00  0.00    +0.000 C 
ATOM      2  C   UNL     1       2.494   2.492  -0.076  0.00  0.00    +0.000 C 
ATOM      3  C   UNL     1       2.193   1.856  -1.402  0.00  0.00    +0.000 C 
ATOM      4  C   UNL     1       2.672   2.899  -2.412  0.00  0.00    +0.000 C 
ATOM      5  C   UNL     1       1.655   4.070  -2.355  0.00  0.00    +0.000 C 
ATOM      6  C   UNL     1       1.973   4.724  -0.984  0.00  0.00    +0.000 C 
ATOM      7  C   UNL     1       3.122   3.833  -0.448  0.00  0.00    +0.000 C 
ATOM      8  C   UNL     1       3.876   3.579  -1.756  0.00  0.00    +0.000 C 
ENDROOT
BRANCH   1  10
ATOM      9  C   UNL     1       2.229  -1.212  -0.179  0.00  0.00    +0.000 C 
ATOM     10  O   UNL     1       2.188   0.100   0.367  0.00  0.00    +0.000 OA
ENDBRANCH   1  10
BRANCH   1  11
ATOM     11  C   UNL     1       4.437   0.849  -0.488  0.00  0.00    +0.000 C 
ATOM     12  C   UNL     1       5.062   0.259  -1.522  0.00  0.00    +0.000 C 
BRANCH  12  13
ATOM     13  C   UNL     1       6.505  -0.017  -1.612  0.00  0.00    +0.000 A 
ATOM     14  C   UNL     1       6.952  -0.946  -2.563  0.00  0.00    +0.000 A 
ATOM     15  C   UNL     1       8.311  -1.245  -2.692  0.00  0.00    +0.000 A 
ATOM     16  C   UNL     1       9.245  -0.613  -1.874  0.00  0.00    +0.000 A 
ATOM     17  C   UNL     1       8.820   0.324  -0.937  0.00  0.00    +0.000 A 
ATOM     18  C   UNL     1       7.460   0.626  -0.812  0.00  0.00    +0.000 A 
ENDBRANCH  12  13
ENDBRANCH   1  11
TORSDOF 3
