MODEL 1
REMARK VINA RESULT:      -4.6      0.000      0.000
REMARK  Name = *****
REMARK  3 active torsions:
REMARK  status: ('A' for Active; 'I' for Inactive)
REMARK    1  A    between atoms: C_4  and  S_7
REMARK    2  A    between atoms: S_7  and  N_9
REMARK    3  A    between atoms: N_9  and  C_10
REMARK                            x       y       z     vdW  Elec       q    Type
REMARK                         _______ _______ _______ _____ _____    ______ ____
ROOT
ATOM      1  N   UNL     1     101.619 126.854  81.888  0.00  0.00    +0.000 N 
ATOM      2  H   UNL     1     101.720 127.649  81.319  0.00  0.00    +0.000 HD
ENDROOT
BRANCH   1   3
ATOM      3  C   UNL     1     102.635 125.880  81.831  0.00  0.00    +0.000 A 
ATOM      4  C   UNL     1     103.061 125.128  82.934  0.00  0.00    +0.000 A 
ATOM      5  C   UNL     1     104.052 124.147  82.804  0.00  0.00    +0.000 A 
ATOM      6  C   UNL     1     104.620 123.895  81.560  0.00  0.00    +0.000 A 
ATOM      7  C   UNL     1     104.198 124.608  80.444  0.00  0.00    +0.000 A 
ATOM      8  C   UNL     1     103.207 125.586  80.580  0.00  0.00    +0.000 A 
ATOM      9 CL   UNL     1     105.837 122.691  81.399  0.00  0.00    +0.000 Cl
ENDBRANCH   1   3
BRANCH   1  10
ATOM     10  S   UNL     1     100.259 126.759  82.847  0.00  0.00    +0.000 S 
ATOM     11  O   UNL     1      99.022 126.746  82.001  0.00  0.00    +0.000 OA
BRANCH  10  15
ATOM     12  C   UNL     1     100.708 131.047  84.462  0.00  0.00    +0.000 A 
ATOM     13  C   UNL     1     101.795 130.174  84.505  0.00  0.00    +0.000 A 
ATOM     14  C   UNL     1     101.666 128.874  84.013  0.00  0.00    +0.000 A 
ATOM     15  C   UNL     1     100.448 128.441  83.478  0.00  0.00    +0.000 A 
ATOM     16  C   UNL     1      99.361 129.323  83.434  0.00  0.00    +0.000 A 
ATOM     17  C   UNL     1      99.492 130.623  83.926  0.00  0.00    +0.000 A 
ENDBRANCH  10  15
ENDBRANCH   1  10
TORSDOF 3
ENDMDL
