MODEL 1
REMARK VINA RESULT:      -3.7      0.000      0.000
REMARK  Name = *****
REMARK  4 active torsions:
REMARK  status: ('A' for Active; 'I' for Inactive)
REMARK    1  A    between atoms: C_4  and  C_6
REMARK    2  A    between atoms: C_6  and  C_8
REMARK    3  A    between atoms: C_8  and  S_9
REMARK    4  A    between atoms: S_9  and  C_10
REMARK                            x       y       z     vdW  Elec       q    Type
REMARK                         _______ _______ _______ _____ _____    ______ ____
ROOT
ATOM      1  C   UNL     1      89.037  68.069  85.146  0.00  0.00    +0.000 C 
ENDROOT
BRANCH   1   2
ATOM      2  C   UNL     1      89.537  67.130  86.245  0.00  0.00    +0.000 C 
ATOM      3  O   UNL     1      90.737  66.926  86.436  0.00  0.00    +0.000 OA
BRANCH   2   7
ATOM      4  C   UNL     1      86.667  66.181  88.469  0.00  0.00    +0.000 A 
ATOM      5  C   UNL     1      87.136  64.891  88.374  0.00  0.00    +0.000 A 
ATOM      6  S   UNL     1      88.532  64.788  87.396  0.00  0.00    +0.000 S 
ATOM      7  C   UNL     1      88.532  66.473  87.084  0.00  0.00    +0.000 A 
ATOM      8  C   UNL     1      87.471  67.091  87.725  0.00  0.00    +0.000 A 
ENDBRANCH   2   7
ENDBRANCH   1   2
BRANCH   1   9
ATOM      9  S   UNL     1      89.692  69.764  85.315  0.00  0.00    +0.000 S 
BRANCH   9  10
ATOM     10  C   UNL     1      88.639  70.371  86.618  0.00  0.00    +0.000 A 
ATOM     11  C   UNL     1      87.341  70.786  86.304  0.00  0.00    +0.000 A 
ATOM     12  C   UNL     1      86.488  71.260  87.306  0.00  0.00    +0.000 A 
ATOM     13  C   UNL     1      86.933  71.311  88.624  0.00  0.00    +0.000 A 
ATOM     14  C   UNL     1      88.219  70.887  88.951  0.00  0.00    +0.000 A 
ATOM     15  C   UNL     1      89.071  70.413  87.948  0.00  0.00    +0.000 A 
ATOM     16 CL   UNL     1      85.886  71.894  89.858  0.00  0.00    +0.000 Cl
ENDBRANCH   9  10
ENDBRANCH   1   9
TORSDOF 4
ENDMDL
