MODEL 1
REMARK VINA RESULT:      -5.1      0.000      0.000
REMARK  Name = *****
REMARK  5 active torsions:
REMARK  status: ('A' for Active; 'I' for Inactive)
REMARK    1  A    between atoms: C_1  and  C_2
REMARK    2  A    between atoms: C_7  and  C_8
REMARK    3  A    between atoms: C_9  and  C_10
REMARK    4  A    between atoms: C_13  and  C_16
REMARK    5  A    between atoms: C_16  and  C_18
REMARK                            x       y       z     vdW  Elec       q    Type
REMARK                         _______ _______ _______ _____ _____    ______ ____
ROOT
ATOM      1  C   UNL     1     101.990 126.173  82.305  0.00  0.00    +0.000 C 
ATOM      2  C   UNL     1     102.853 125.385  82.027  0.00  0.00    +0.000 C 
ENDROOT
BRANCH   1   9
ATOM      3  C   UNL     1     102.680 128.702  83.647  0.00  0.00    +0.000 C 
ATOM      4  C   UNL     1     101.266 128.320  83.309  0.00  0.00    +0.000 A 
ATOM      5  C   UNL     1     100.215 129.189  83.646  0.00  0.00    +0.000 A 
ATOM      6  C   UNL     1      98.892 128.860  83.344  0.00  0.00    +0.000 A 
ATOM      7  C   UNL     1      98.601 127.660  82.699  0.00  0.00    +0.000 A 
ATOM      8  C   UNL     1      99.634 126.787  82.359  0.00  0.00    +0.000 A 
ATOM      9  C   UNL     1     100.964 127.109  82.661  0.00  0.00    +0.000 A 
ENDBRANCH   1   9
BRANCH   2  10
ATOM     10  C   UNL     1     103.884 124.444  81.719  0.00  0.00    +0.000 A 
ATOM     11  C   UNL     1     104.381 123.598  82.710  0.00  0.00    +0.000 A 
ATOM     12  C   UNL     1     105.401 122.691  82.409  0.00  0.00    +0.000 A 
ATOM     13  C   UNL     1     105.934 122.624  81.114  0.00  0.00    +0.000 A 
ATOM     14  C   UNL     1     105.431 123.475  80.121  0.00  0.00    +0.000 A 
ATOM     15  C   UNL     1     104.408 124.381  80.426  0.00  0.00    +0.000 A 
BRANCH  13  16
ATOM     16  C   UNL     1     107.029 121.644  80.844  0.00  0.00    +0.000 C 
ATOM     17  O   UNL     1     106.898 120.470  81.189  0.00  0.00    +0.000 OA
ATOM     18  C   UNL     1     108.285 122.119  80.164  0.00  0.00    +0.000 C 
ENDBRANCH  13  16
ENDBRANCH   2  10
TORSDOF 3
ENDMDL
