REMARK  Name = *****
REMARK  6 active torsions:
REMARK  status: ('A' for Active; 'I' for Inactive)
REMARK    1  A    between atoms: C_1  and  C_2
REMARK    2  A    between atoms: C_2  and  N_3
REMARK    3  A    between atoms: N_3  and  C_4
REMARK    4  A    between atoms: C_8  and  C_10
REMARK    5  A    between atoms: C_11  and  C_13
REMARK    6  A    between atoms: C_17  and  C_19
REMARK                            x       y       z     vdW  Elec       q    Type
REMARK                         _______ _______ _______ _____ _____    ______ ____
ROOT
ATOM      1  N   UNL     1       3.186   1.303  -0.862  0.00  0.00    +0.000 N 
ATOM      2  C   UNL     1       4.481   1.202  -1.418  0.00  0.00    +0.000 C 
ATOM      3  O   UNL     1       4.906   1.815  -2.395  0.00  0.00    +0.000 OA
ENDROOT
BRANCH   1   4
ATOM      4  C   UNL     1       2.111   1.935  -1.601  0.00  0.00    +0.000 A 
ATOM      5  C   UNL     1       0.966   2.440  -0.962  0.00  0.00    +0.000 A 
ATOM      6  C   UNL     1      -0.082   3.020  -1.686  0.00  0.00    +0.000 A 
ATOM      7  C   UNL     1      -0.015   3.106  -3.072  0.00  0.00    +0.000 A 
ATOM      8  C   UNL     1       1.105   2.618  -3.743  0.00  0.00    +0.000 A 
ATOM      9  C   UNL     1       2.145   2.024  -3.004  0.00  0.00    +0.000 A 
ATOM     10  C   UNL     1       1.178   2.663  -5.241  0.00  0.00    +0.000 C 
ENDBRANCH   1   4
BRANCH   2  11
ATOM     11  C   UNL     1       5.455   0.293  -0.774  0.00  0.00    +0.000 A 
ATOM     12  C   UNL     1       5.239  -1.088  -0.789  0.00  0.00    +0.000 A 
ATOM     13  C   UNL     1       6.182  -1.936  -0.210  0.00  0.00    +0.000 A 
ATOM     14  C   UNL     1       7.339  -1.405   0.367  0.00  0.00    +0.000 A 
ATOM     15  C   UNL     1       7.567  -0.021   0.373  0.00  0.00    +0.000 A 
ATOM     16  C   UNL     1       6.625   0.826  -0.223  0.00  0.00    +0.000 A 
ATOM     17  C   UNL     1       8.838   0.538   0.941  0.00  0.00    +0.000 C 
ENDBRANCH   2  11
BRANCH   1  19
ATOM     18  C   UNL     1       3.365   2.052   1.508  0.00  0.00    +0.000 C 
ATOM     19  C   UNL     1       2.950   0.943   0.548  0.00  0.00    +0.000 C 
ENDBRANCH   1  19
TORSDOF 3
