REMARK  Name = *****
REMARK  3 active torsions:
REMARK  status: ('A' for Active; 'I' for Inactive)
REMARK    1  A    between atoms: C_4  and  C_7
REMARK    2  A    between atoms: C_7  and  O_8
REMARK    3  A    between atoms: O_8  and  C_9
REMARK                            x       y       z     vdW  Elec       q    Type
REMARK                         _______ _______ _______ _____ _____    ______ ____
ROOT
ATOM      1  C   UNL     1      -2.882   0.407  -0.317  0.00  0.00    +0.000 C 
ENDROOT
BRANCH   1   5
ATOM      2  C   UNL     1       1.369  -0.177   0.131  0.00  0.00    +0.000 A 
ATOM      3  C   UNL     1       0.519  -1.278   0.050  0.00  0.00    +0.000 A 
ATOM      4  C   UNL     1      -0.856  -1.090  -0.098  0.00  0.00    +0.000 A 
ATOM      5  C   UNL     1      -1.392   0.203  -0.176  0.00  0.00    +0.000 A 
ATOM      6  C   UNL     1      -0.529   1.304  -0.078  0.00  0.00    +0.000 A 
ATOM      7  C   UNL     1       0.846   1.113   0.070  0.00  0.00    +0.000 A 
ENDBRANCH   1   5
BRANCH   1   8
ATOM      8  O   UNL     1      -3.443   0.419   0.993  0.00  0.00    +0.000 OA
BRANCH   8   9
ATOM      9  C   UNL     1      -4.789   0.585   1.036  0.00  0.00    +0.000 A 
ATOM     10  N   UNL     1      -5.474   0.730  -0.098  0.00  0.00    +0.000 NA
ATOM     11  S   UNL     1      -7.082   0.911   0.278  0.00  0.00    +0.000 S 
ATOM     12  C   UNL     1      -6.887   0.799   1.976  0.00  0.00    +0.000 A 
ATOM     13  C   UNL     1      -5.550   0.618   2.236  0.00  0.00    +0.000 A 
ATOM     14  I   UNL     1      -4.789   0.426   4.118  0.00  0.00    +0.000 I 
ENDBRANCH   8   9
ENDBRANCH   1   8
TORSDOF 3
