MODEL 1
REMARK VINA RESULT:      -4.4      0.000      0.000
REMARK  Name = *****
REMARK  4 active torsions:
REMARK  status: ('A' for Active; 'I' for Inactive)
REMARK    1  A    between atoms: C_1  and  N_2
REMARK    2  A    between atoms: N_2  and  C_3
REMARK    3  A    between atoms: N_2  and  C_11
REMARK    4  A    between atoms: C_4  and  C_5
REMARK                            x       y       z     vdW  Elec       q    Type
REMARK                         _______ _______ _______ _____ _____    ______ ____
ROOT
ATOM      1  C   UNL     1      88.651  63.837  86.303  0.00  0.00    +0.000 C 
ATOM      2  N   UNL     1      88.359  65.027  87.107  0.00  0.00    +0.000 N 
ENDROOT
BRANCH   2   3
ATOM      3  C   UNL     1      88.062  64.777  88.475  0.00  0.00    +0.000 A 
ATOM      4  C   UNL     1      86.884  65.248  89.082  0.00  0.00    +0.000 A 
ATOM      5  C   UNL     1      86.605  64.991  90.430  0.00  0.00    +0.000 A 
ATOM      6  C   UNL     1      87.499  64.253  91.201  0.00  0.00    +0.000 A 
ATOM      7  C   UNL     1      88.670  63.773  90.624  0.00  0.00    +0.000 A 
ATOM      8  C   UNL     1      88.944  64.032  89.278  0.00  0.00    +0.000 A 
ENDBRANCH   2   3
BRANCH   2   9
ATOM      9  C   UNL     1      88.554  66.319  86.628  0.00  0.00    +0.000 C 
ATOM     10  C   UNL     1      89.692  67.017  86.490  0.00  0.00    +0.000 C 
BRANCH  10  11
ATOM     11  C   UNL     1      89.742  68.392  85.976  0.00  0.00    +0.000 A 
ATOM     12  C   UNL     1      89.603  69.504  86.818  0.00  0.00    +0.000 A 
ATOM     13  C   UNL     1      89.687  70.799  86.301  0.00  0.00    +0.000 A 
ATOM     14  C   UNL     1      89.921  70.996  84.940  0.00  0.00    +0.000 A 
ATOM     15  C   UNL     1      90.075  69.896  84.098  0.00  0.00    +0.000 A 
ATOM     16  C   UNL     1      89.993  68.601  84.614  0.00  0.00    +0.000 A 
ENDBRANCH  10  11
ENDBRANCH   2   9
TORSDOF 3
ENDMDL
