MODEL 1
REMARK VINA RESULT:      -4.0      0.000      0.000
REMARK  Name = *****
REMARK  6 active torsions:
REMARK  status: ('A' for Active; 'I' for Inactive)
REMARK    1  A    between atoms: C_1  and  C_2
REMARK    2  A    between atoms: C_2  and  C_3
REMARK    3  A    between atoms: C_2  and  N_9
REMARK    4  A    between atoms: N_9  and  C_10
REMARK    5  A    between atoms: N_9  and  C_11
REMARK    6  A    between atoms: C_11  and  C_13
REMARK                            x       y       z     vdW  Elec       q    Type
REMARK                         _______ _______ _______ _____ _____    ______ ____
ROOT
ATOM      1  N   UNL     1      87.046  63.880  86.751  0.00  0.00    +0.000 N 
ATOM      2  C   UNL     1      88.130  63.468  85.849  0.00  0.00    +0.000 C 
ENDROOT
BRANCH   1   4
ATOM      3  C   UNL     1      86.194  66.150  87.281  0.00  0.00    +0.000 C 
ATOM      4  C   UNL     1      87.293  65.113  87.553  0.00  0.00    +0.000 C 
BRANCH   4   5
ATOM      5  C   UNL     1      87.552  64.789  89.023  0.00  0.00    +0.000 A 
ATOM      6  C   UNL     1      86.583  65.157  89.975  0.00  0.00    +0.000 A 
ATOM      7  C   UNL     1      86.767  64.889  91.333  0.00  0.00    +0.000 A 
ATOM      8  C   UNL     1      87.925  64.249  91.764  0.00  0.00    +0.000 A 
ATOM      9  C   UNL     1      88.898  63.879  90.838  0.00  0.00    +0.000 A 
ATOM     10  C   UNL     1      88.714  64.148  89.478  0.00  0.00    +0.000 A 
ENDBRANCH   4   5
ENDBRANCH   1   4
BRANCH   1  11
ATOM     11  C   UNL     1      85.796  63.222  86.722  0.00  0.00    +0.000 C 
ATOM     12  S   UNL     1      84.798  63.101  85.362  0.00  0.00    +0.000 S 
BRANCH  11  13
ATOM     13  C   UNL     1      85.333  62.575  87.978  0.00  0.00    +0.000 A 
ATOM     14  C   UNL     1      84.052  62.845  88.474  0.00  0.00    +0.000 A 
ATOM     15  C   UNL     1      83.634  62.241  89.659  0.00  0.00    +0.000 A 
ATOM     16  C   UNL     1      84.487  61.369  90.338  0.00  0.00    +0.000 A 
ATOM     17  C   UNL     1      85.761  61.095  89.834  0.00  0.00    +0.000 A 
ATOM     18  C   UNL     1      86.187  61.696  88.651  0.00  0.00    +0.000 A 
ENDBRANCH  11  13
ENDBRANCH   1  11
TORSDOF 4
ENDMDL
