REMARK  Name = *****
REMARK  4 active torsions:
REMARK  status: ('A' for Active; 'I' for Inactive)
REMARK    1  A    between atoms: C_3  and  C_8
REMARK    2  A    between atoms: C_8  and  O_9
REMARK    3  A    between atoms: O_9  and  C_10
REMARK    4  A    between atoms: C_10  and  C_11
REMARK                            x       y       z     vdW  Elec       q    Type
REMARK                         _______ _______ _______ _____ _____    ______ ____
ROOT
ATOM      1  O   UNL     1      -1.091   3.578  -0.027  0.00  0.00    +0.000 OA
ENDROOT
BRANCH   1   2
ATOM      2  C   UNL     1      -2.008   2.491   0.035  0.00  0.00    +0.000 C 
BRANCH   2   5
ATOM      3  C   UNL     1       0.345  -0.270  -1.150  0.00  0.00    +0.000 A 
ATOM      4  C   UNL     1      -0.365   0.932  -1.087  0.00  0.00    +0.000 A 
ATOM      5  C   UNL     1      -1.235   1.199  -0.016  0.00  0.00    +0.000 A 
ATOM      6  C   UNL     1      -1.383   0.235   0.989  0.00  0.00    +0.000 A 
ATOM      7  C   UNL     1      -0.670  -0.959   0.917  0.00  0.00    +0.000 A 
ATOM      8  C   UNL     1       0.191  -1.220  -0.142  0.00  0.00    +0.000 A 
ATOM      9  F   UNL     1      -0.818  -1.872   1.886  0.00  0.00    +0.000 F 
ENDBRANCH   2   5
ENDBRANCH   1   2
BRANCH   1  10
ATOM     10  C   UNL     1      -1.759   4.835   0.047  0.00  0.00    +0.000 C 
BRANCH  10  11
ATOM     11  C   UNL     1      -0.757   5.962   0.007  0.00  0.00    +0.000 A 
ATOM     12  C   UNL     1      -1.104   7.189  -0.575  0.00  0.00    +0.000 A 
ATOM     13  C   UNL     1      -0.195   8.243  -0.576  0.00  0.00    +0.000 A 
ATOM     14  C   UNL     1       1.061   8.110   0.003  0.00  0.00    +0.000 A 
ATOM     15  C   UNL     1       1.414   6.901   0.598  0.00  0.00    +0.000 A 
ATOM     16  C   UNL     1       0.508   5.836   0.605  0.00  0.00    +0.000 A 
ATOM     17  F   UNL     1      -0.540   9.408  -1.141  0.00  0.00    +0.000 F 
ENDBRANCH  10  11
ENDBRANCH   1  10
TORSDOF 4
