MODEL 1
REMARK VINA RESULT:      -4.5      0.000      0.000
REMARK  Name = *****
REMARK  4 active torsions:
REMARK  status: ('A' for Active; 'I' for Inactive)
REMARK    1  A    between atoms: C_4  and  C_7
REMARK    2  A    between atoms: C_7  and  O_8
REMARK    3  A    between atoms: O_8  and  C_9
REMARK    4  A    between atoms: C_9  and  C_11
REMARK                            x       y       z     vdW  Elec       q    Type
REMARK                         _______ _______ _______ _____ _____    ______ ____
ROOT
ATOM      1  O   UNL     1     103.428 125.152  80.105  0.00  0.00    +0.000 OA
ENDROOT
BRANCH   1   2
ATOM      2  C   UNL     1     104.600 124.473  80.094  0.00  0.00    +0.000 C 
ATOM      3  O   UNL     1     105.553 124.703  79.367  0.00  0.00    +0.000 OA
BRANCH   2   4
ATOM      4  C   UNL     1     104.574 123.374  81.098  0.00  0.00    +0.000 A 
ATOM      5  C   UNL     1     104.695 122.055  80.638  0.00  0.00    +0.000 A 
ATOM      6  C   UNL     1     104.676 120.990  81.541  0.00  0.00    +0.000 A 
ATOM      7  C   UNL     1     104.538 121.236  82.906  0.00  0.00    +0.000 A 
ATOM      8  C   UNL     1     104.420 122.545  83.372  0.00  0.00    +0.000 A 
ATOM      9  C   UNL     1     104.437 123.614  82.472  0.00  0.00    +0.000 A 
ENDBRANCH   2   4
ENDBRANCH   1   2
BRANCH   1  10
ATOM     10  C   UNL     1     103.577 126.562  80.299  0.00  0.00    +0.000 C 
BRANCH  10  14
ATOM     11  C   UNL     1     101.247 127.989  83.723  0.00  0.00    +0.000 C 
ATOM     12  C   UNL     1     102.727 128.345  83.667  0.00  0.00    +0.000 C 
ATOM     13  C   UNL     1     103.278 128.199  82.245  0.00  0.00    +0.000 C 
ATOM     14  C   UNL     1     102.818 126.941  81.547  0.00  0.00    +0.000 C 
ATOM     15  C   UNL     1     101.802 126.197  82.024  0.00  0.00    +0.000 C 
ATOM     16  C   UNL     1     101.007 126.556  83.247  0.00  0.00    +0.000 C 
ENDBRANCH  10  14
ENDBRANCH   1  10
TORSDOF 4
ENDMDL
