MODEL 1
REMARK VINA RESULT:      -4.4      0.000      0.000
REMARK  Name = *****
REMARK  3 active torsions:
REMARK  status: ('A' for Active; 'I' for Inactive)
REMARK    1  A    between atoms: C_3  and  N_4
REMARK    2  A    between atoms: N_4  and  C_5
REMARK    3  A    between atoms: C_11  and  C_13
REMARK                            x       y       z     vdW  Elec       q    Type
REMARK                         _______ _______ _______ _____ _____    ______ ____
ROOT
ATOM      1  N   UNL     1     103.225 125.779  81.912  0.00  0.00    +0.000 N 
ATOM      2  C   UNL     1     103.709 124.644  82.607  0.00  0.00    +0.000 C 
ATOM      3  O   UNL     1     103.319 124.202  83.685  0.00  0.00    +0.000 OA
ENDROOT
BRANCH   2   4
ATOM      4  C   UNL     1     104.847 123.899  82.016  0.00  0.00    +0.000 A 
ATOM      5  C   UNL     1     106.161 124.173  82.418  0.00  0.00    +0.000 A 
ATOM      6  C   UNL     1     107.215 123.438  81.875  0.00  0.00    +0.000 A 
ATOM      7  C   UNL     1     106.945 122.427  80.956  0.00  0.00    +0.000 A 
ATOM      8  C   UNL     1     105.640 122.129  80.575  0.00  0.00    +0.000 A 
ATOM      9  C   UNL     1     104.582 122.860  81.114  0.00  0.00    +0.000 A 
ATOM     10  F   UNL     1     107.960 121.723  80.438  0.00  0.00    +0.000 F 
ENDBRANCH   2   4
BRANCH   1  11
ATOM     11  C   UNL     1     102.307 126.711  82.532  0.00  0.00    +0.000 A 
ATOM     12  C   UNL     1     102.734 127.808  83.293  0.00  0.00    +0.000 A 
ATOM     13  C   UNL     1     101.819 128.695  83.878  0.00  0.00    +0.000 A 
ATOM     14  C   UNL     1     100.453 128.504  83.713  0.00  0.00    +0.000 A 
ATOM     15  C   UNL     1      99.999 127.426  82.964  0.00  0.00    +0.000 A 
ATOM     16  C   UNL     1     100.917 126.541  82.384  0.00  0.00    +0.000 A 
ENDBRANCH   1  11
BRANCH   1  19
ATOM     17  C   UNL     1     104.905 126.937  80.299  0.00  0.00    +0.000 C 
ATOM     18  C   UNL     1     103.552 127.460  79.954  0.00  0.00    +0.000 C 
ATOM     19  C   UNL     1     103.683 126.077  80.558  0.00  0.00    +0.000 C 
ENDBRANCH   1  19
TORSDOF 3
ENDMDL
