MODEL 1
REMARK VINA RESULT:      -4.4      0.000      0.000
REMARK  Name = *****
REMARK  3 active torsions:
REMARK  status: ('A' for Active; 'I' for Inactive)
REMARK    1  A    between atoms: C_4  and  C_7
REMARK    2  A    between atoms: C_7  and  S_9
REMARK    3  A    between atoms: S_9  and  C_10
REMARK                            x       y       z     vdW  Elec       q    Type
REMARK                         _______ _______ _______ _____ _____    ______ ____
ROOT
ATOM      1  C   UNL     1      88.078  70.741  88.475  0.00  0.00    +0.000 C 
ATOM      2  O   UNL     1      88.358  70.477  89.638  0.00  0.00    +0.000 OA
ENDROOT
BRANCH   1   6
ATOM      3  C   UNL     1      84.266  72.349  87.338  0.00  0.00    +0.000 A 
ATOM      4  C   UNL     1      84.576  72.231  88.692  0.00  0.00    +0.000 A 
ATOM      5  C   UNL     1      85.812  71.713  89.085  0.00  0.00    +0.000 A 
ATOM      6  C   UNL     1      86.749  71.313  88.121  0.00  0.00    +0.000 A 
ATOM      7  C   UNL     1      86.420  71.420  86.763  0.00  0.00    +0.000 A 
ATOM      8  C   UNL     1      85.185  71.942  86.373  0.00  0.00    +0.000 A 
ENDBRANCH   1   6
BRANCH   1   9
ATOM      9  S   UNL     1      89.192  70.398  87.158  0.00  0.00    +0.000 S 
BRANCH   9  10
ATOM     10  C   UNL     1      88.999  68.642  86.919  0.00  0.00    +0.000 A 
ATOM     11  C   UNL     1      90.051  67.935  86.323  0.00  0.00    +0.000 A 
ATOM     12  C   UNL     1      89.980  66.548  86.167  0.00  0.00    +0.000 A 
ATOM     13  C   UNL     1      88.855  65.860  86.613  0.00  0.00    +0.000 A 
ATOM     14  C   UNL     1      87.802  66.548  87.211  0.00  0.00    +0.000 A 
ATOM     15  C   UNL     1      87.877  67.935  87.368  0.00  0.00    +0.000 A 
ATOM     16 BR   UNL     1      88.760  63.983  86.416  0.00  0.00    +0.000 Br
ENDBRANCH   9  10
ENDBRANCH   1   9
TORSDOF 3
ENDMDL
