MODEL 1
REMARK VINA RESULT:      -4.6      0.000      0.000
REMARK  Name = *****
REMARK  5 active torsions:
REMARK  status: ('A' for Active; 'I' for Inactive)
REMARK    1  A    between atoms: C_4  and  C_7
REMARK    2  A    between atoms: C_7  and  C_8
REMARK    3  A    between atoms: C_7  and  O_10
REMARK    4  A    between atoms: O_10  and  C_11
REMARK    5  A    between atoms: C_11  and  C_13
REMARK                            x       y       z     vdW  Elec       q    Type
REMARK                         _______ _______ _______ _____ _____    ______ ____
ROOT
ATOM      1  C   UNL     1     101.310 126.248  82.488  0.00  0.00    +0.000 C 
ENDROOT
BRANCH   1   5
ATOM      2  C   UNL     1     104.891 126.267  80.057  0.00  0.00    +0.000 A 
ATOM      3  C   UNL     1     104.266 127.465  80.393  0.00  0.00    +0.000 A 
ATOM      4  C   UNL     1     103.113 127.456  81.181  0.00  0.00    +0.000 A 
ATOM      5  C   UNL     1     102.570 126.246  81.641  0.00  0.00    +0.000 A 
ATOM      6  C   UNL     1     103.208 125.047  81.289  0.00  0.00    +0.000 A 
ATOM      7  C   UNL     1     104.362 125.058  80.504  0.00  0.00    +0.000 A 
ENDBRANCH   1   5
BRANCH   1   8
ATOM      8  C   UNL     1     101.621 126.092  83.982  0.00  0.00    +0.000 C 
ATOM      9  F   UNL     1     102.085 127.267  84.497  0.00  0.00    +0.000 F 
ENDBRANCH   1   8
BRANCH   1  10
ATOM     10  O   UNL     1     100.599 127.477  82.237  0.00  0.00    +0.000 OA
BRANCH  10  11
ATOM     11  C   UNL     1      99.292 127.475  82.586  0.00  0.00    +0.000 C 
ATOM     12  O   UNL     1      98.434 126.738  82.125  0.00  0.00    +0.000 OA
BRANCH  11  13
ATOM     13  C   UNL     1      99.023 128.517  83.611  0.00  0.00    +0.000 A 
ATOM     14  C   UNL     1      98.292 128.154  84.750  0.00  0.00    +0.000 A 
ATOM     15  C   UNL     1      98.022 129.098  85.743  0.00  0.00    +0.000 A 
ATOM     16  C   UNL     1      98.485 130.406  85.605  0.00  0.00    +0.000 A 
ATOM     17  C   UNL     1      99.217 130.773  84.476  0.00  0.00    +0.000 A 
ATOM     18  C   UNL     1      99.487 129.833  83.480  0.00  0.00    +0.000 A 
ENDBRANCH  11  13
ENDBRANCH  10  11
ENDBRANCH   1  10
TORSDOF 5
ENDMDL
