MODEL 1
REMARK VINA RESULT:      -4.5      0.000      0.000
REMARK  Name = *****
REMARK  2 active torsions:
REMARK  status: ('A' for Active; 'I' for Inactive)
REMARK    1  A    between atoms: C_1  and  C_2
REMARK    2  A    between atoms: C_5  and  C_8
REMARK                            x       y       z     vdW  Elec       q    Type
REMARK                         _______ _______ _______ _____ _____    ______ ____
ROOT
ATOM      1  C   UNL     1     103.177 125.792  82.183  0.00  0.00    +0.000 C 
ATOM      2  C   UNL     1     103.383 125.598  80.872  0.00  0.00    +0.000 C 
ATOM      3  S   UNL     1     104.567 124.542  80.188  0.00  0.00    +0.000 S 
ATOM      4  C   UNL     1     104.581 123.301  81.402  0.00  0.00    +0.000 A 
ATOM      5  C   UNL     1     104.374 123.498  82.719  0.00  0.00    +0.000 A 
ATOM      6  S   UNL     1     104.055 125.032  83.464  0.00  0.00    +0.000 S 
ATOM      7  S   UNL     1     104.478 122.094  83.751  0.00  0.00    +0.000 S 
ATOM      8  C   UNL     1     104.838 120.944  82.485  0.00  0.00    +0.000 A 
ATOM      9  O   UNL     1     105.007 119.751  82.689  0.00  0.00    +0.000 OA
ATOM     10  S   UNL     1     104.927 121.666  80.896  0.00  0.00    +0.000 S 
ENDROOT
BRANCH   1  15
ATOM     11  C   UNL     1      99.163 129.578  83.923  0.00  0.00    +0.000 C 
ATOM     12  C   UNL     1     100.204 128.586  83.496  0.00  0.00    +0.000 A 
ATOM     13  C   UNL     1     101.564 128.859  83.679  0.00  0.00    +0.000 A 
ATOM     14  C   UNL     1     102.534 127.949  83.249  0.00  0.00    +0.000 A 
ATOM     15  C   UNL     1     102.157 126.759  82.614  0.00  0.00    +0.000 A 
ATOM     16  C   UNL     1     100.796 126.490  82.421  0.00  0.00    +0.000 A 
ATOM     17  C   UNL     1      99.827 127.400  82.852  0.00  0.00    +0.000 A 
ENDBRANCH   1  15
TORSDOF 1
ENDMDL
