REMARK  Name = *****
REMARK  4 active torsions:
REMARK  status: ('A' for Active; 'I' for Inactive)
REMARK    1  A    between atoms: C_4  and  S_7
REMARK    2  A    between atoms: S_7  and  C_8
REMARK    3  A    between atoms: C_8  and  C_9
REMARK    4  A    between atoms: C_9  and  C_11
REMARK                            x       y       z     vdW  Elec       q    Type
REMARK                         _______ _______ _______ _____ _____    ______ ____
ROOT
ATOM      1  C   UNL     1      -5.491  -0.630  -0.535  0.00  0.00    +0.000 C 
ATOM      2  O   UNL     1      -5.970   0.379  -1.050  0.00  0.00    +0.000 OA
ENDROOT
BRANCH   1   3
ATOM      3  C   UNL     1      -6.429  -1.730  -0.141  0.00  0.00    +0.000 A 
ATOM      4  C   UNL     1      -6.015  -2.844   0.603  0.00  0.00    +0.000 A 
ATOM      5  C   UNL     1      -6.935  -3.843   0.944  0.00  0.00    +0.000 A 
ATOM      6  C   UNL     1      -8.267  -3.732   0.548  0.00  0.00    +0.000 A 
ATOM      7  C   UNL     1      -8.691  -2.628  -0.186  0.00  0.00    +0.000 A 
ATOM      8  C   UNL     1      -7.774  -1.630  -0.529  0.00  0.00    +0.000 A 
ATOM      9 CL   UNL     1      -9.390  -4.963   0.971  0.00  0.00    +0.000 Cl
ENDBRANCH   1   3
BRANCH   1  10
ATOM     10  C   UNL     1      -4.009  -0.823  -0.250  0.00  0.00    +0.000 C 
BRANCH  10  11
ATOM     11  S   UNL     1      -2.982   0.464  -1.030  0.00  0.00    +0.000 S 
BRANCH  11  15
ATOM     12  C   UNL     1       1.064  -0.471   0.907  0.00  0.00    +0.000 A 
ATOM     13  C   UNL     1       0.454  -1.424   0.093  0.00  0.00    +0.000 A 
ATOM     14  C   UNL     1      -0.779  -1.149  -0.504  0.00  0.00    +0.000 A 
ATOM     15  C   UNL     1      -1.411   0.079  -0.282  0.00  0.00    +0.000 A 
ATOM     16  C   UNL     1      -0.786   1.036   0.524  0.00  0.00    +0.000 A 
ATOM     17  C   UNL     1       0.446   0.760   1.120  0.00  0.00    +0.000 A 
ENDBRANCH  11  15
ENDBRANCH  10  11
ENDBRANCH   1  10
TORSDOF 4
