REMARK  Name = *****
REMARK  3 active torsions:
REMARK  status: ('A' for Active; 'I' for Inactive)
REMARK    1  A    between atoms: C_6  and  C_7
REMARK    2  A    between atoms: C_7  and  O_9
REMARK    3  A    between atoms: O_9  and  C_10
REMARK                            x       y       z     vdW  Elec       q    Type
REMARK                         _______ _______ _______ _____ _____    ______ ____
ROOT
ATOM      1  C   UNL     1      -3.353   0.036  -0.999  0.00  0.00    +0.000 C 
ATOM      2  O   UNL     1      -3.553  -0.280  -2.162  0.00  0.00    +0.000 OA
ENDROOT
BRANCH   1   8
ATOM      3  C   UNL     1      -1.769   0.514   0.928  0.00  0.00    +0.000 A 
ATOM      4  C   UNL     1      -0.465   0.586   1.429  0.00  0.00    +0.000 A 
ATOM      5  C   UNL     1       0.609   0.277   0.602  0.00  0.00    +0.000 A 
ATOM      6  C   UNL     1       0.408  -0.103  -0.719  0.00  0.00    +0.000 A 
ATOM      7  C   UNL     1      -0.892  -0.177  -1.224  0.00  0.00    +0.000 A 
ATOM      8  C   UNL     1      -1.990   0.131  -0.404  0.00  0.00    +0.000 A 
ATOM      9  F   UNL     1       1.855   0.349   1.086  0.00  0.00    +0.000 F 
ENDBRANCH   1   8
BRANCH   1  10
ATOM     10  O   UNL     1      -4.305   0.353  -0.048  0.00  0.00    +0.000 OA
BRANCH  10  11
ATOM     11  C   UNL     1      -5.611   0.284  -0.536  0.00  0.00    +0.000 A 
ATOM     12  C   UNL     1      -6.266  -0.944  -0.595  0.00  0.00    +0.000 A 
ATOM     13  C   UNL     1      -7.582  -0.977  -1.041  0.00  0.00    +0.000 A 
ATOM     14  C   UNL     1      -8.248   0.187  -1.409  0.00  0.00    +0.000 A 
ATOM     15  C   UNL     1      -7.577   1.402  -1.321  0.00  0.00    +0.000 A 
ATOM     16  C   UNL     1      -6.260   1.468  -0.880  0.00  0.00    +0.000 A 
ATOM     17  F   UNL     1      -8.213   2.530  -1.661  0.00  0.00    +0.000 F 
ATOM     18  F   UNL     1      -8.224  -2.150  -1.110  0.00  0.00    +0.000 F 
ENDBRANCH  10  11
ENDBRANCH   1  10
TORSDOF 3
