REMARK  Name = *****
REMARK  3 active torsions:
REMARK  status: ('A' for Active; 'I' for Inactive)
REMARK    1  A    between atoms: C_4  and  N_7
REMARK    2  A    between atoms: N_7  and  S_8
REMARK    3  A    between atoms: S_8  and  C_10
REMARK                            x       y       z     vdW  Elec       q    Type
REMARK                         _______ _______ _______ _____ _____    ______ ____
ROOT
ATOM      1  S   UNL     1       4.204   0.373   0.318  0.00  0.00    +0.000 S 
ATOM      2  O   UNL     1       4.195   0.259   1.812  0.00  0.00    +0.000 OA
ENDROOT
BRANCH   1   3
ATOM      3  C   UNL     1       5.349  -0.900  -0.274  0.00  0.00    +0.000 A 
ATOM      4  C   UNL     1       5.898  -0.797  -1.559  0.00  0.00    +0.000 A 
ATOM      5  C   UNL     1       6.786  -1.772  -2.023  0.00  0.00    +0.000 A 
ATOM      6  C   UNL     1       7.127  -2.846  -1.203  0.00  0.00    +0.000 A 
ATOM      7  C   UNL     1       6.591  -2.955   0.079  0.00  0.00    +0.000 A 
ATOM      8  C   UNL     1       5.704  -1.981   0.543  0.00  0.00    +0.000 A 
ATOM      9 CL   UNL     1       8.220  -4.044  -1.778  0.00  0.00    +0.000 Cl
ENDBRANCH   1   3
BRANCH   1  10
ATOM     10  N   UNL     1       2.894  -0.374  -0.385  0.00  0.00    +0.000 NA
ATOM     11  H   UNL     1       2.854  -0.048  -1.350  0.00  0.00    +0.000 HD
BRANCH  10  15
ATOM     12  C   UNL     1      -1.361   0.190  -0.197  0.00  0.00    +0.000 C 
ATOM     13  C   UNL     1      -0.783  -1.175   0.164  0.00  0.00    +0.000 C 
ATOM     14  C   UNL     1       0.651  -1.329  -0.339  0.00  0.00    +0.000 C 
ATOM     15  C   UNL     1       1.553  -0.196   0.176  0.00  0.00    +0.000 C 
ATOM     16  C   UNL     1       0.968   1.172  -0.206  0.00  0.00    +0.000 C 
ATOM     17  C   UNL     1      -0.468   1.325   0.294  0.00  0.00    +0.000 C 
ENDBRANCH  10  15
ENDBRANCH   1  10
TORSDOF 3
