MODEL 1
REMARK VINA RESULT:      -4.6      0.000      0.000
REMARK  Name = *****
REMARK  2 active torsions:
REMARK  status: ('A' for Active; 'I' for Inactive)
REMARK    1  A    between atoms: C_4  and  O_7
REMARK    2  A    between atoms: O_7  and  N_8
REMARK                            x       y       z     vdW  Elec       q    Type
REMARK                         _______ _______ _______ _____ _____    ______ ____
ROOT
ATOM      1  N   UNL     1     103.287 126.913  82.117  0.00  0.00    +0.000 N 
ATOM      2  C   UNL     1     103.423 127.737  81.034  0.00  0.00    +0.000 A 
ATOM      3  C   UNL     1     104.047 127.018  80.040  0.00  0.00    +0.000 A 
ATOM      4  C   UNL     1     104.255 125.696  80.528  0.00  0.00    +0.000 A 
ATOM      5  C   UNL     1     104.816 124.527  79.977  0.00  0.00    +0.000 A 
ATOM      6  C   UNL     1     104.850 123.355  80.741  0.00  0.00    +0.000 A 
ATOM      7  C   UNL     1     104.335 123.333  82.035  0.00  0.00    +0.000 A 
ATOM      8  C   UNL     1     103.773 124.478  82.605  0.00  0.00    +0.000 A 
ATOM      9  C   UNL     1     103.749 125.648  81.830  0.00  0.00    +0.000 A 
ENDROOT
BRANCH   1  10
ATOM     10  O   UNL     1     102.624 127.279  83.292  0.00  0.00    +0.000 OA
BRANCH  10  14
ATOM     11  C   UNL     1      98.579 128.242  82.918  0.00  0.00    +0.000 A 
ATOM     12  C   UNL     1      99.007 127.003  82.444  0.00  0.00    +0.000 A 
ATOM     13  C   UNL     1     100.352 126.636  82.547  0.00  0.00    +0.000 A 
ATOM     14  C   UNL     1     101.275 127.513  83.120  0.00  0.00    +0.000 A 
ATOM     15  C   UNL     1     100.836 128.751  83.603  0.00  0.00    +0.000 A 
ATOM     16  C   UNL     1      99.493 129.117  83.499  0.00  0.00    +0.000 A 
ENDBRANCH  10  14
ENDBRANCH   1  10
TORSDOF 2
ENDMDL
