MODEL 1
REMARK VINA RESULT:      -4.4      0.000      0.000
REMARK  Name = *****
REMARK  4 active torsions:
REMARK  status: ('A' for Active; 'I' for Inactive)
REMARK    1  A    between atoms: C_2  and  C_3
REMARK    2  A    between atoms: C_3  and  O_10
REMARK    3  A    between atoms: O_10  and  S_11
REMARK    4  A    between atoms: S_11  and  C_12
REMARK                            x       y       z     vdW  Elec       q    Type
REMARK                         _______ _______ _______ _____ _____    ______ ____
ROOT
ATOM      1  C   UNL     1     103.867 126.027  81.020  0.00  0.00    +0.000 C 
ATOM      2  C   UNL     1     105.107 126.121  81.994  0.00  0.00    +0.000 C 
ATOM      3  C   UNL     1     106.104 125.088  81.418  0.00  0.00    +0.000 C 
ATOM      4  C   UNL     1     105.847 125.205  79.914  0.00  0.00    +0.000 C 
ATOM      5  C   UNL     1     104.354 124.884  80.052  0.00  0.00    +0.000 C 
ATOM      6  C   UNL     1     104.480 123.583  80.828  0.00  0.00    +0.000 C 
ATOM      7  C   UNL     1     105.529 123.712  81.652  0.00  0.00    +0.000 C 
ENDROOT
BRANCH   1   9
ATOM      8  C   UNL     1     104.307 128.504  80.423  0.00  0.00    +0.000 C 
ATOM      9  C   UNL     1     103.604 127.366  80.333  0.00  0.00    +0.000 C 
ENDBRANCH   1   9
BRANCH   1  10
ATOM     10  O   UNL     1     102.654 125.563  81.643  0.00  0.00    +0.000 OA
BRANCH  10  11
ATOM     11  S   UNL     1     102.431 125.843  83.272  0.00  0.00    +0.000 S 
BRANCH  11  12
ATOM     12  C   UNL     1     101.108 127.044  83.212  0.00  0.00    +0.000 A 
ATOM     13  C   UNL     1      99.919 126.691  82.561  0.00  0.00    +0.000 A 
ATOM     14  C   UNL     1      98.860 127.598  82.472  0.00  0.00    +0.000 A 
ATOM     15  C   UNL     1      98.979 128.866  83.036  0.00  0.00    +0.000 A 
ATOM     16  C   UNL     1     100.159 129.230  83.682  0.00  0.00    +0.000 A 
ATOM     17  C   UNL     1     101.220 128.325  83.766  0.00  0.00    +0.000 A 
ENDBRANCH  11  12
ENDBRANCH  10  11
ENDBRANCH   1  10
TORSDOF 4
ENDMDL
