MODEL 1
REMARK VINA RESULT:      -5.0      0.000      0.000
REMARK  Name = *****
REMARK  3 active torsions:
REMARK  status: ('A' for Active; 'I' for Inactive)
REMARK    1  A    between atoms: C_1  and  C_2
REMARK    2  A    between atoms: C_5  and  C_8
REMARK    3  A    between atoms: C_9  and  C_10
REMARK                            x       y       z     vdW  Elec       q    Type
REMARK                         _______ _______ _______ _____ _____    ______ ____
ROOT
ATOM      1  C   UNL     1     102.678 126.073  81.622  0.00  0.00    +0.000 C 
ATOM      2  C   UNL     1     101.886 126.181  82.701  0.00  0.00    +0.000 C 
ENDROOT
BRANCH   1   7
ATOM      3  C   UNL     1     106.485 121.760  80.957  0.00  0.00    +0.000 C 
ATOM      4  C   UNL     1     105.476 122.859  81.107  0.00  0.00    +0.000 A 
ATOM      5  C   UNL     1     105.186 123.711  80.037  0.00  0.00    +0.000 A 
ATOM      6  C   UNL     1     104.268 124.756  80.188  0.00  0.00    +0.000 A 
ATOM      7  C   UNL     1     103.623 124.966  81.413  0.00  0.00    +0.000 A 
ATOM      8  C   UNL     1     103.939 124.133  82.491  0.00  0.00    +0.000 A 
ATOM      9  C   UNL     1     104.856 123.088  82.341  0.00  0.00    +0.000 A 
ENDBRANCH   1   7
BRANCH   2  10
ATOM     10  C   UNL     1     100.926 127.273  82.933  0.00  0.00    +0.000 A 
ATOM     11  C   UNL     1     101.268 128.447  83.619  0.00  0.00    +0.000 A 
ATOM     12  C   UNL     1     100.315 129.447  83.843  0.00  0.00    +0.000 A 
ATOM     13  C   UNL     1      99.005 129.283  83.394  0.00  0.00    +0.000 A 
ATOM     14  C   UNL     1      98.645 128.115  82.728  0.00  0.00    +0.000 A 
ATOM     15  C   UNL     1      99.598 127.122  82.508  0.00  0.00    +0.000 A 
ATOM     16  F   UNL     1      99.216 126.005  81.868  0.00  0.00    +0.000 F 
ENDBRANCH   2  10
TORSDOF 2
ENDMDL
