MODEL 1
REMARK VINA RESULT:      -3.9      0.000      0.000
REMARK  Name = *****
REMARK  5 active torsions:
REMARK  status: ('A' for Active; 'I' for Inactive)
REMARK    1  A    between atoms: C_3  and  O_8
REMARK    2  A    between atoms: O_8  and  C_9
REMARK    3  A    between atoms: C_9  and  O_11
REMARK    4  A    between atoms: O_11  and  C_12
REMARK    5  A    between atoms: C_12  and  C_13
REMARK                            x       y       z     vdW  Elec       q    Type
REMARK                         _______ _______ _______ _____ _____    ______ ____
ROOT
ATOM      1  O   UNL     1     103.055 126.656  82.305  0.00  0.00    +0.000 OA
ENDROOT
BRANCH   1   4
ATOM      2  C   UNL     1     100.498 128.955  83.624  0.00  0.00    +0.000 A 
ATOM      3  C   UNL     1     101.746 128.412  83.313  0.00  0.00    +0.000 A 
ATOM      4  C   UNL     1     101.811 127.181  82.657  0.00  0.00    +0.000 A 
ATOM      5  C   UNL     1     100.659 126.500  82.276  0.00  0.00    +0.000 A 
ATOM      6  C   UNL     1      99.426 127.055  82.595  0.00  0.00    +0.000 A 
ATOM      7  C   UNL     1      99.335 128.272  83.267  0.00  0.00    +0.000 A 
ATOM      8  F   UNL     1      98.304 126.411  82.245  0.00  0.00    +0.000 F 
ENDBRANCH   1   4
BRANCH   1   9
ATOM      9  C   UNL     1     103.267 126.652  80.939  0.00  0.00    +0.000 C 
ATOM     10  O   UNL     1     103.403 127.622  80.208  0.00  0.00    +0.000 OA
BRANCH   9  11
ATOM     11  O   UNL     1     103.296 125.357  80.526  0.00  0.00    +0.000 OA
BRANCH  11  12
ATOM     12  C   UNL     1     104.000 124.431  81.383  0.00  0.00    +0.000 C 
BRANCH  12  13
ATOM     13  C   UNL     1     105.218 123.786  80.696  0.00  0.00    +0.000 C 
ATOM     14 CL   UNL     1     104.905 122.049  80.372  0.00  0.00    +0.000 Cl
ATOM     15 CL   UNL     1     105.615 124.589  79.149  0.00  0.00    +0.000 Cl
ATOM     16 CL   UNL     1     106.642 123.905  81.781  0.00  0.00    +0.000 Cl
ENDBRANCH  12  13
ENDBRANCH  11  12
ENDBRANCH   9  11
ENDBRANCH   1   9
TORSDOF 5
ENDMDL
