MODEL 1
REMARK VINA RESULT:      -4.5      0.000      0.000
REMARK  Name = *****
REMARK  4 active torsions:
REMARK  status: ('A' for Active; 'I' for Inactive)
REMARK    1  A    between atoms: C_1  and  C_2
REMARK    2  A    between atoms: C_2  and  C_15
REMARK    3  A    between atoms: C_5  and  C_7
REMARK    4  A    between atoms: C_8  and  C_9
REMARK                            x       y       z     vdW  Elec       q    Type
REMARK                         _______ _______ _______ _____ _____    ______ ____
ROOT
ATOM      1  C   UNL     1     101.426 126.166  82.430  0.00  0.00    +0.000 C 
ATOM      2  C   UNL     1     102.678 126.613  82.241  0.00  0.00    +0.000 C 
ENDROOT
BRANCH   1   7
ATOM      3  C   UNL     1      98.329 128.452  85.180  0.00  0.00    +0.000 C 
ATOM      4  C   UNL     1      99.001 128.475  83.811  0.00  0.00    +0.000 C 
ATOM      5  C   UNL     1      98.216 127.679  82.775  0.00  0.00    +0.000 C 
ATOM      6  O   UNL     1      99.217 126.974  82.051  0.00  0.00    +0.000 OA
ATOM      7  C   UNL     1     100.309 127.021  82.848  0.00  0.00    +0.000 C 
ATOM      8  N   UNL     1     100.303 127.785  83.891  0.00  0.00    +0.000 NA
ATOM      9  C   UNL     1      99.249 129.917  83.358  0.00  0.00    +0.000 C 
ENDBRANCH   1   7
BRANCH   2  10
ATOM     10  C   UNL     1     103.820 125.728  81.803  0.00  0.00    +0.000 C 
ATOM     11  C   UNL     1     103.759 125.484  80.288  0.00  0.00    +0.000 C 
ATOM     12  C   UNL     1     104.866 124.539  79.826  0.00  0.00    +0.000 C 
ATOM     13  C   UNL     1     104.842 123.223  80.599  0.00  0.00    +0.000 C 
ATOM     14  C   UNL     1     104.897 123.456  82.106  0.00  0.00    +0.000 C 
ATOM     15  C   UNL     1     103.789 124.398  82.571  0.00  0.00    +0.000 C 
ENDBRANCH   2  10
TORSDOF 2
ENDMDL
