REMARK  Name = *****
REMARK  4 active torsions:
REMARK  status: ('A' for Active; 'I' for Inactive)
REMARK    1  A    between atoms: C_2  and  C_3
REMARK    2  A    between atoms: C_8  and  C_9
REMARK    3  A    between atoms: C_9  and  C_10
REMARK    4  A    between atoms: C_10  and  C_11
REMARK                            x       y       z     vdW  Elec       q    Type
REMARK                         _______ _______ _______ _____ _____    ______ ____
ROOT
ATOM      1  C   UNL     1       2.970   1.016  -2.425  0.00  0.00    +0.000 A 
ATOM      2  C   UNL     1       2.691   2.373  -2.195  0.00  0.00    +0.000 A 
ATOM      3  C   UNL     1       3.542   3.158  -1.417  0.00  0.00    +0.000 A 
ATOM      4  C   UNL     1       4.687   2.597  -0.861  0.00  0.00    +0.000 A 
ATOM      5  C   UNL     1       4.981   1.252  -1.085  0.00  0.00    +0.000 A 
ATOM      6  C   UNL     1       4.137   0.448  -1.872  0.00  0.00    +0.000 A 
ENDROOT
BRANCH   1   8
ATOM      7  C   UNL     1       0.754   0.083  -2.977  0.00  0.00    +0.000 C 
ATOM      8  C   UNL     1       2.052   0.235  -3.266  0.00  0.00    +0.000 C 
ENDBRANCH   1   8
BRANCH   6   9
ATOM      9  C   UNL     1       4.494  -1.013  -2.048  0.00  0.00    +0.000 C 
BRANCH   9  10
ATOM     10  C   UNL     1       3.798  -1.896  -1.008  0.00  0.00    +0.000 C 
BRANCH  10  11
ATOM     11  C   UNL     1       4.128  -3.355  -1.208  0.00  0.00    +0.000 A 
ATOM     12  C   UNL     1       5.249  -3.923  -0.588  0.00  0.00    +0.000 A 
ATOM     13  C   UNL     1       5.563  -5.268  -0.793  0.00  0.00    +0.000 A 
ATOM     14  C   UNL     1       4.764  -6.053  -1.621  0.00  0.00    +0.000 A 
ATOM     15  C   UNL     1       3.650  -5.496  -2.247  0.00  0.00    +0.000 A 
ATOM     16  C   UNL     1       3.334  -4.152  -2.044  0.00  0.00    +0.000 A 
ENDBRANCH  10  11
ENDBRANCH   9  10
ENDBRANCH   6   9
TORSDOF 4
