MODEL 1
REMARK VINA RESULT:      -4.3      0.000      0.000
REMARK  Name = *****
REMARK  5 active torsions:
REMARK  status: ('A' for Active; 'I' for Inactive)
REMARK    1  A    between atoms: C_1  and  C_2
REMARK    2  A    between atoms: C_2  and  C_3
REMARK    3  A    between atoms: C_2  and  N_11
REMARK    4  A    between atoms: C_3  and  C_4
REMARK    5  A    between atoms: C_3  and  S_10
REMARK                            x       y       z     vdW  Elec       q    Type
REMARK                         _______ _______ _______ _____ _____    ______ ____
ROOT
ATOM      1  C   UNL     1      89.739  70.842  86.553  0.00  0.00    +0.000 C 
ATOM      2  C   UNL     1      88.385  70.216  86.916  0.00  0.00    +0.000 C 
ENDROOT
BRANCH   2   3
ATOM      3  N   UNL     1      88.515  68.711  87.005  0.00  0.00    +0.000 N 
ATOM      4  C   UNL     1      87.495  68.008  87.648  0.00  0.00    +0.000 C 
ATOM      5  C   UNL     1      87.303  66.706  87.890  0.00  0.00    +0.000 C 
ATOM      6  C   UNL     1      88.156  65.601  87.542  0.00  0.00    +0.000 C 
ATOM      7  C   UNL     1      89.303  65.637  86.857  0.00  0.00    +0.000 C 
ATOM      8  C   UNL     1      89.962  66.791  86.304  0.00  0.00    +0.000 C 
ATOM      9  C   UNL     1      89.596  68.076  86.394  0.00  0.00    +0.000 C 
ENDBRANCH   2   3
BRANCH   2  10
ATOM     10  C   UNL     1      87.150  70.626  86.039  0.00  0.00    +0.000 C 
BRANCH  10  11
ATOM     11  C   UNL     1      86.073  71.342  86.853  0.00  0.00    +0.000 A 
ATOM     12  C   UNL     1      86.095  71.387  88.256  0.00  0.00    +0.000 A 
ATOM     13  C   UNL     1      85.085  72.040  88.966  0.00  0.00    +0.000 A 
ATOM     14  C   UNL     1      84.037  72.656  88.286  0.00  0.00    +0.000 A 
ATOM     15  C   UNL     1      84.000  72.623  86.895  0.00  0.00    +0.000 A 
ATOM     16  C   UNL     1      85.010  71.972  86.183  0.00  0.00    +0.000 A 
ENDBRANCH  10  11
BRANCH  10  17
ATOM     17  S   UNL     1      87.504  71.574  84.495  0.00  0.00    +0.000 S 
ATOM     18  H   UNL     1      87.814  70.709  83.492  0.00  0.00    +0.000 HD
ENDBRANCH  10  17
ENDBRANCH   2  10
TORSDOF 4
ENDMDL
