MODEL 1
REMARK VINA RESULT:      -4.3      0.000      0.000
REMARK  Name = *****
REMARK  4 active torsions:
REMARK  status: ('A' for Active; 'I' for Inactive)
REMARK    1  A    between atoms: C_1  and  C_2
REMARK    2  A    between atoms: C_5  and  S_8
REMARK    3  A    between atoms: S_8  and  O_10
REMARK    4  A    between atoms: O_10  and  C_11
REMARK                            x       y       z     vdW  Elec       q    Type
REMARK                         _______ _______ _______ _____ _____    ______ ____
ROOT
ATOM      1  S   UNL     1      89.205  67.192  85.958  0.00  0.00    +0.000 S 
ATOM      2  O   UNL     1      90.597  66.867  86.415  0.00  0.00    +0.000 OA
ENDROOT
BRANCH   1   7
ATOM      3  C   UNL     1      87.206  71.568  89.751  0.00  0.00    +0.000 C 
ATOM      4  C   UNL     1      87.705  70.485  88.838  0.00  0.00    +0.000 A 
ATOM      5  C   UNL     1      86.927  69.347  88.600  0.00  0.00    +0.000 A 
ATOM      6  C   UNL     1      87.375  68.353  87.725  0.00  0.00    +0.000 A 
ATOM      7  C   UNL     1      88.600  68.491  87.064  0.00  0.00    +0.000 A 
ATOM      8  C   UNL     1      89.375  69.635  87.296  0.00  0.00    +0.000 A 
ATOM      9  C   UNL     1      88.926  70.629  88.169  0.00  0.00    +0.000 A 
ENDBRANCH   1   7
BRANCH   1  10
ATOM     10  O   UNL     1      88.206  66.083  86.567  0.00  0.00    +0.000 OA
BRANCH  10  11
ATOM     11  C   UNL     1      88.820  64.954  87.194  0.00  0.00    +0.000 C 
ATOM     12  C   UNL     1      88.366  63.690  86.441  0.00  0.00    +0.000 C 
ATOM     13  C   UNL     1      87.041  63.125  86.972  0.00  0.00    +0.000 C 
ATOM     14  C   UNL     1      86.936  63.347  88.484  0.00  0.00    +0.000 C 
ATOM     15  C   UNL     1      86.816  64.858  88.830  0.00  0.00    +0.000 C 
ATOM     16  C   UNL     1      88.366  64.877  88.661  0.00  0.00    +0.000 C 
ATOM     17  C   UNL     1      88.306  63.423  89.233  0.00  0.00    +0.000 C 
ENDBRANCH  10  11
ENDBRANCH   1  10
TORSDOF 3
ENDMDL
