REMARK  Name = *****
REMARK  4 active torsions:
REMARK  status: ('A' for Active; 'I' for Inactive)
REMARK    1  A    between atoms: C_1  and  C_2
REMARK    2  A    between atoms: C_5  and  C_8
REMARK    3  A    between atoms: C_8  and  O_10
REMARK    4  A    between atoms: O_10  and  C_11
REMARK                            x       y       z     vdW  Elec       q    Type
REMARK                         _______ _______ _______ _____ _____    ______ ____
ROOT
ATOM      1  C   UNL     1      -3.237   0.207   0.649  0.00  0.00    +0.000 C 
ATOM      2  O   UNL     1      -3.828  -0.701   1.212  0.00  0.00    +0.000 OA
ENDROOT
BRANCH   1   7
ATOM      3  C   UNL     1       2.551   0.599   0.705  0.00  0.00    +0.000 C 
ATOM      4  C   UNL     1       1.055   0.495   0.659  0.00  0.00    +0.000 A 
ATOM      5  C   UNL     1       0.298   1.448  -0.033  0.00  0.00    +0.000 A 
ATOM      6  C   UNL     1      -1.098   1.370  -0.051  0.00  0.00    +0.000 A 
ATOM      7  C   UNL     1      -1.755   0.341   0.636  0.00  0.00    +0.000 A 
ATOM      8  C   UNL     1      -0.999  -0.604   1.341  0.00  0.00    +0.000 A 
ATOM      9  C   UNL     1       0.396  -0.524   1.357  0.00  0.00    +0.000 A 
ENDBRANCH   1   7
BRANCH   1  10
ATOM     10  O   UNL     1      -3.814   1.220  -0.045  0.00  0.00    +0.000 OA
BRANCH  10  11
ATOM     11  C   UNL     1      -5.248   1.185  -0.106  0.00  0.00    +0.000 C 
ATOM     12  C   UNL     1      -5.730   0.206  -1.222  0.00  0.00    +0.000 C 
ATOM     13  C   UNL     1      -5.923   1.177  -2.362  0.00  0.00    +0.000 C 
ATOM     14  C   UNL     1      -7.010   1.372  -3.392  0.00  0.00    +0.000 C 
ATOM     15  C   UNL     1      -7.121   2.674  -2.971  0.00  0.00    +0.000 C 
ATOM     16  C   UNL     1      -6.793   2.204  -1.574  0.00  0.00    +0.000 C 
ATOM     17  C   UNL     1      -5.744   2.590  -0.564  0.00  0.00    +0.000 C 
ENDBRANCH  10  11
ENDBRANCH   1  10
TORSDOF 3
