REMARK  Name = *****
REMARK  5 active torsions:
REMARK  status: ('A' for Active; 'I' for Inactive)
REMARK    1  A    between atoms: C_1  and  C_2
REMARK    2  A    between atoms: C_4  and  C_9
REMARK    3  A    between atoms: C_5  and  C_8
REMARK    4  A    between atoms: C_9  and  S_10
REMARK    5  A    between atoms: S_10  and  C_11
REMARK                            x       y       z     vdW  Elec       q    Type
REMARK                         _______ _______ _______ _____ _____    ______ ____
ROOT
ATOM      1  C   UNL     1      -1.587   2.435  -0.053  0.00  0.00    +0.000 C 
ENDROOT
BRANCH   1   5
ATOM      2  C   UNL     1       2.909   0.180  -0.014  0.00  0.00    +0.000 C 
ATOM      3  C   UNL     1       1.414   0.076  -0.072  0.00  0.00    +0.000 A 
ATOM      4  C   UNL     1       0.619   1.228  -0.046  0.00  0.00    +0.000 A 
ATOM      5  C   UNL     1      -0.787   1.150  -0.068  0.00  0.00    +0.000 A 
ATOM      6  C   UNL     1      -1.403  -0.118  -0.127  0.00  0.00    +0.000 A 
ATOM      7  C   UNL     1      -0.600  -1.269  -0.129  0.00  0.00    +0.000 A 
ATOM      8  C   UNL     1       0.792  -1.174  -0.097  0.00  0.00    +0.000 A 
ATOM      9  C   UNL     1      -2.900  -0.275  -0.163  0.00  0.00    +0.000 C 
ENDBRANCH   1   5
BRANCH   1  10
ATOM     10  S   UNL     1      -1.837   3.079  -1.741  0.00  0.00    +0.000 S 
BRANCH  10  11
ATOM     11  C   UNL     1      -2.609   4.658  -1.347  0.00  0.00    +0.000 A 
ATOM     12  C   UNL     1      -2.020   5.880  -1.734  0.00  0.00    +0.000 A 
ATOM     13  C   UNL     1      -2.642   7.101  -1.455  0.00  0.00    +0.000 A 
ATOM     14  C   UNL     1      -3.859   7.128  -0.793  0.00  0.00    +0.000 A 
ATOM     15  C   UNL     1      -4.441   5.926  -0.415  0.00  0.00    +0.000 A 
ATOM     16  N   UNL     1      -3.843   4.696  -0.680  0.00  0.00    +0.000 N 
ATOM     17  O   UNL     1      -4.451   3.643  -0.290  0.00  0.00    +0.000 OA
ATOM     18 CL   UNL     1      -0.497   5.961  -2.557  0.00  0.00    +0.000 Cl
ENDBRANCH  10  11
ENDBRANCH   1  10
TORSDOF 3
