MODEL 1
REMARK VINA RESULT:      -3.5      0.000      0.000
REMARK  Name = *****
REMARK  4 active torsions:
REMARK  status: ('A' for Active; 'I' for Inactive)
REMARK    1  A    between atoms: C_1  and  C_2
REMARK    2  A    between atoms: C_2  and  C_3
REMARK    3  A    between atoms: C_2  and  C_9
REMARK    4  A    between atoms: C_3  and  C_4
REMARK                            x       y       z     vdW  Elec       q    Type
REMARK                         _______ _______ _______ _____ _____    ______ ____
ROOT
ATOM      1  C   UNL     1     105.678 124.688  79.280  0.00  0.00    +0.000 C 
ATOM      2  C   UNL     1     104.869 124.755  80.582  0.00  0.00    +0.000 C 
ENDROOT
BRANCH   2   3
ATOM      3  C   UNL     1     104.775 123.376  81.210  0.00  0.00    +0.000 A 
ATOM      4  C   UNL     1     104.813 122.137  80.596  0.00  0.00    +0.000 A 
ATOM      5  C   UNL     1     104.688 121.065  81.526  0.00  0.00    +0.000 A 
ATOM      6  C   UNL     1     104.555 121.517  82.819  0.00  0.00    +0.000 A 
ATOM      7  S   UNL     1     104.583 123.223  82.909  0.00  0.00    +0.000 S 
ENDBRANCH   2   3
BRANCH   2   8
ATOM      8  C   UNL     1     103.453 125.331  80.366  0.00  0.00    +0.000 C 
BRANCH   8   9
ATOM      9  C   UNL     1     103.083 126.393  81.365  0.00  0.00    +0.000 A 
ATOM     10  C   UNL     1     103.729 127.588  81.619  0.00  0.00    +0.000 A 
ATOM     11  C   UNL     1     103.081 128.348  82.636  0.00  0.00    +0.000 A 
ATOM     12  C   UNL     1     101.958 127.714  83.116  0.00  0.00    +0.000 A 
ATOM     13  S   UNL     1     101.687 126.214  82.343  0.00  0.00    +0.000 S 
ENDBRANCH   8   9
ENDBRANCH   2   8
TORSDOF 3
ENDMDL
