MODEL 1
REMARK VINA RESULT:      -4.1      0.000      0.000
REMARK  Name = *****
REMARK  4 active torsions:
REMARK  status: ('A' for Active; 'I' for Inactive)
REMARK    1  A    between atoms: C_4  and  C_7
REMARK    2  A    between atoms: C_7  and  S_11
REMARK    3  A    between atoms: C_8  and  C_9
REMARK    4  A    between atoms: S_11  and  C_12
REMARK                            x       y       z     vdW  Elec       q    Type
REMARK                         _______ _______ _______ _____ _____    ______ ____
ROOT
ATOM      1  C   UNL     1     100.952 126.519  83.277  0.00  0.00    +0.000 C 
ATOM      2  C   UNL     1     101.097 126.050  84.528  0.00  0.00    +0.000 C 
ENDROOT
BRANCH   1   6
ATOM      3  C   UNL     1     104.195 127.140  80.556  0.00  0.00    +0.000 A 
ATOM      4  C   UNL     1     103.809 128.160  81.424  0.00  0.00    +0.000 A 
ATOM      5  C   UNL     1     102.752 127.956  82.314  0.00  0.00    +0.000 A 
ATOM      6  C   UNL     1     102.074 126.729  82.345  0.00  0.00    +0.000 A 
ATOM      7  C   UNL     1     102.470 125.712  81.464  0.00  0.00    +0.000 A 
ATOM      8  C   UNL     1     103.527 125.917  80.575  0.00  0.00    +0.000 A 
ENDBRANCH   1   6
BRANCH   2   9
ATOM      9  C   UNL     1     102.341 125.678  85.102  0.00  0.00    +0.000 C 
ATOM     10  N   UNL     1     103.373 125.395  85.552  0.00  0.00    +0.000 NA
ENDBRANCH   2   9
BRANCH   1  11
ATOM     11  S   UNL     1      99.383 126.988  82.673  0.00  0.00    +0.000 S 
BRANCH  11  12
ATOM     12  C   UNL     1      99.076 128.381  83.745  0.00  0.00    +0.000 A 
ATOM     13  C   UNL     1      98.305 128.216  84.900  0.00  0.00    +0.000 A 
ATOM     14  C   UNL     1      98.064 129.300  85.746  0.00  0.00    +0.000 A 
ATOM     15  C   UNL     1      98.597 130.553  85.444  0.00  0.00    +0.000 A 
ATOM     16  C   UNL     1      99.377 130.721  84.300  0.00  0.00    +0.000 A 
ATOM     17  C   UNL     1      99.621 129.637  83.456  0.00  0.00    +0.000 A 
ENDBRANCH  11  12
ENDBRANCH   1  11
TORSDOF 4
ENDMDL
