MODEL 1
REMARK VINA RESULT:      -4.3      0.000      0.000
REMARK  Name = *****
REMARK  7 active torsions:
REMARK  status: ('A' for Active; 'I' for Inactive)
REMARK    1  A    between atoms: C_1  and  O_2
REMARK    2  A    between atoms: O_2  and  P_3
REMARK    3  A    between atoms: P_3  and  C_5
REMARK    4  A    between atoms: P_3  and  O_11
REMARK    5  A    between atoms: O_11  and  C_12
REMARK    6  A    between atoms: C_15  and  S_18
REMARK    7  A    between atoms: S_18  and  C_19
REMARK                            x       y       z     vdW  Elec       q    Type
REMARK                         _______ _______ _______ _____ _____    ______ ____
ROOT
ATOM      1  P   UNL     1      89.426  69.501  85.632  0.00  0.00    +0.000 P 
ATOM      2  S   UNL     1      88.557  67.956  84.558  0.00  0.00    +0.000 S 
ENDROOT
BRANCH   1   3
ATOM      3  C   UNL     1      88.324  70.064  87.071  0.00  0.00    +0.000 A 
ATOM      4  C   UNL     1      87.073  70.638  86.781  0.00  0.00    +0.000 A 
ATOM      5  C   UNL     1      86.390  71.363  87.760  0.00  0.00    +0.000 A 
ATOM      6  C   UNL     1      86.938  71.510  89.034  0.00  0.00    +0.000 A 
ATOM      7  C   UNL     1      88.156  70.906  89.344  0.00  0.00    +0.000 A 
ATOM      8  C   UNL     1      88.846  70.180  88.371  0.00  0.00    +0.000 A 
ENDBRANCH   1   3
BRANCH   1  10
ATOM      9  C   UNL     1      90.022  66.956  86.287  0.00  0.00    +0.000 C 
ATOM     10  O   UNL     1      90.058  68.304  86.707  0.00  0.00    +0.000 OA
ENDBRANCH   1  10
BRANCH   1  11
ATOM     11  O   UNL     1      88.793  70.698  84.555  0.00  0.00    +0.000 OA
BRANCH  11  12
ATOM     12  C   UNL     1      89.648  71.599  83.938  0.00  0.00    +0.000 A 
ATOM     13  C   UNL     1      89.278  72.884  83.530  0.00  0.00    +0.000 A 
ATOM     14  C   UNL     1      90.241  73.779  83.043  0.00  0.00    +0.000 A 
ATOM     15  C   UNL     1      91.573  73.389  82.916  0.00  0.00    +0.000 A 
ATOM     16  C   UNL     1      91.924  72.082  83.263  0.00  0.00    +0.000 A 
ATOM     17  C   UNL     1      90.967  71.193  83.776  0.00  0.00    +0.000 A 
BRANCH  15  18
ATOM     18  S   UNL     1      92.810  74.500  82.273  0.00  0.00    +0.000 S 
ATOM     19  C   UNL     1      93.871  74.711  83.732  0.00  0.00    +0.000 C 
ENDBRANCH  15  18
ENDBRANCH  11  12
ENDBRANCH   1  11
TORSDOF 5
ENDMDL
