MODEL 1
REMARK VINA RESULT:      -4.2      0.000      0.000
REMARK  Name = *****
REMARK  4 active torsions:
REMARK  status: ('A' for Active; 'I' for Inactive)
REMARK    1  A    between atoms: C_1  and  C_2
REMARK    2  A    between atoms: C_5  and  C_8
REMARK    3  A    between atoms: C_8  and  N_9
REMARK    4  A    between atoms: N_9  and  C_10
REMARK                            x       y       z     vdW  Elec       q    Type
REMARK                         _______ _______ _______ _____ _____    ______ ____
ROOT
ATOM      1  C   UNL     1     102.776 125.425  82.149  0.00  0.00    +0.000 C 
ENDROOT
BRANCH   1   6
ATOM      2  C   UNL     1     106.900 121.648  80.869  0.00  0.00    +0.000 C 
ATOM      3  C   UNL     1     105.802 122.617  81.196  0.00  0.00    +0.000 A 
ATOM      4  C   UNL     1     105.303 123.483  80.215  0.00  0.00    +0.000 A 
ATOM      5  C   UNL     1     104.302 124.407  80.528  0.00  0.00    +0.000 A 
ATOM      6  C   UNL     1     103.800 124.479  81.828  0.00  0.00    +0.000 A 
ATOM      7  C   UNL     1     104.301 123.630  82.814  0.00  0.00    +0.000 A 
ATOM      8  C   UNL     1     105.302 122.705  82.501  0.00  0.00    +0.000 A 
ENDBRANCH   1   6
BRANCH   1   9
ATOM      9  N   UNL     1     101.979 126.162  82.399  0.00  0.00    +0.000 NA
BRANCH   9  10
ATOM     10  C   UNL     1     100.988 127.078  82.711  0.00  0.00    +0.000 A 
ATOM     11  C   UNL     1      99.669 126.790  82.374  0.00  0.00    +0.000 A 
ATOM     12  C   UNL     1      98.674 127.714  82.689  0.00  0.00    +0.000 A 
ATOM     13  C   UNL     1      99.008 128.907  83.334  0.00  0.00    +0.000 A 
ATOM     14  C   UNL     1     100.338 129.181  83.665  0.00  0.00    +0.000 A 
ATOM     15  C   UNL     1     101.338 128.262  83.352  0.00  0.00    +0.000 A 
ENDBRANCH   9  10
ENDBRANCH   1   9
TORSDOF 3
ENDMDL
