MODEL 1
REMARK VINA RESULT:      -4.4      0.000      0.000
REMARK  Name = *****
REMARK  5 active torsions:
REMARK  status: ('A' for Active; 'I' for Inactive)
REMARK    1  A    between atoms: C_1  and  O_2
REMARK    2  A    between atoms: O_2  and  C_3
REMARK    3  A    between atoms: C_6  and  S_9
REMARK    4  A    between atoms: S_9  and  S_10
REMARK    5  A    between atoms: S_10  and  C_12
REMARK                            x       y       z     vdW  Elec       q    Type
REMARK                         _______ _______ _______ _____ _____    ______ ____
ROOT
ATOM      1  S   UNL     1     103.011 127.751  82.833  0.00  0.00    +0.000 S 
ENDROOT
BRANCH   1   5
ATOM      2  C   UNL     1      98.420 127.571  82.939  0.00  0.00    +0.000 A 
ATOM      3  C   UNL     1      99.099 128.659  83.486  0.00  0.00    +0.000 A 
ATOM      4  C   UNL     1     100.499 128.703  83.454  0.00  0.00    +0.000 A 
ATOM      5  C   UNL     1     101.231 127.659  82.880  0.00  0.00    +0.000 A 
ATOM      6  C   UNL     1     100.548 126.577  82.323  0.00  0.00    +0.000 A 
ATOM      7  C   UNL     1      99.152 126.533  82.358  0.00  0.00    +0.000 A 
BRANCH   2   9
ATOM      8  C   UNL     1      96.460 126.800  84.042  0.00  0.00    +0.000 C 
ATOM      9  O   UNL     1      97.063 127.403  82.905  0.00  0.00    +0.000 OA
ENDBRANCH   2   9
ENDBRANCH   1   5
BRANCH   1  10
ATOM     10  S   UNL     1     103.412 127.072  80.963  0.00  0.00    +0.000 S 
ATOM     11  O   UNL     1     104.683 127.825  80.689  0.00  0.00    +0.000 OA
BRANCH  10  12
ATOM     12  C   UNL     1     103.914 125.374  81.336  0.00  0.00    +0.000 A 
ATOM     13  C   UNL     1     104.390 124.551  80.308  0.00  0.00    +0.000 A 
ATOM     14  C   UNL     1     104.793 123.243  80.583  0.00  0.00    +0.000 A 
ATOM     15  C   UNL     1     104.729 122.752  81.886  0.00  0.00    +0.000 A 
ATOM     16  C   UNL     1     104.263 123.569  82.916  0.00  0.00    +0.000 A 
ATOM     17  C   UNL     1     103.858 124.876  82.643  0.00  0.00    +0.000 A 
ENDBRANCH  10  12
ENDBRANCH   1  10
TORSDOF 4
ENDMDL
