MODEL 1
REMARK VINA RESULT:      -5.2      0.000      0.000
REMARK  Name = *****
REMARK  4 active torsions:
REMARK  status: ('A' for Active; 'I' for Inactive)
REMARK    1  A    between atoms: C_4  and  N_7
REMARK    2  A    between atoms: N_7  and  N_8
REMARK    3  A    between atoms: N_8  and  C_10
REMARK    4  A    between atoms: C_13  and  C_16
REMARK                            x       y       z     vdW  Elec       q    Type
REMARK                         _______ _______ _______ _____ _____    ______ ____
ROOT
ATOM      1  N   UNL     1      88.922  64.607  86.763  0.00  0.00    +0.000 N 
ATOM      2  O   UNL     1      88.827  64.090  85.667  0.00  0.00    +0.000 OA
ENDROOT
BRANCH   1   3
ATOM      3  C   UNL     1      88.924  66.055  86.832  0.00  0.00    +0.000 A 
ATOM      4  C   UNL     1      87.863  66.732  87.442  0.00  0.00    +0.000 A 
ATOM      5  C   UNL     1      87.877  68.128  87.496  0.00  0.00    +0.000 A 
ATOM      6  C   UNL     1      88.945  68.856  86.944  0.00  0.00    +0.000 A 
ATOM      7  C   UNL     1      90.011  68.159  86.352  0.00  0.00    +0.000 A 
ATOM      8  C   UNL     1      90.003  66.765  86.296  0.00  0.00    +0.000 A 
BRANCH   6   9
ATOM      9  C   UNL     1      88.972  70.364  87.025  0.00  0.00    +0.000 C 
ATOM     10  F   UNL     1      90.007  70.917  86.331  0.00  0.00    +0.000 F 
ATOM     11  F   UNL     1      87.840  70.931  86.525  0.00  0.00    +0.000 F 
ATOM     12  F   UNL     1      89.093  70.826  88.300  0.00  0.00    +0.000 F 
ENDBRANCH   6   9
ENDBRANCH   1   3
BRANCH   1  13
ATOM     13  N   UNL     1      88.981  63.848  87.960  0.00  0.00    +0.000 N 
ATOM     14  H   UNL     1      89.891  63.603  88.247  0.00  0.00    +0.000 HD
BRANCH  13  18
ATOM     15  C   UNL     1      85.838  62.403  90.388  0.00  0.00    +0.000 A 
ATOM     16  C   UNL     1      86.654  63.426  90.861  0.00  0.00    +0.000 A 
ATOM     17  C   UNL     1      87.702  63.914  90.071  0.00  0.00    +0.000 A 
ATOM     18  C   UNL     1      87.956  63.388  88.802  0.00  0.00    +0.000 A 
ATOM     19  C   UNL     1      87.115  62.363  88.340  0.00  0.00    +0.000 A 
ATOM     20  C   UNL     1      86.067  61.871  89.124  0.00  0.00    +0.000 A 
ENDBRANCH  13  18
ENDBRANCH   1  13
TORSDOF 4
ENDMDL
