MODEL 1
REMARK VINA RESULT:      -4.4      0.000      0.000
REMARK  Name = *****
REMARK  2 active torsions:
REMARK  status: ('A' for Active; 'I' for Inactive)
REMARK    1  A    between atoms: C_4  and  C_6
REMARK    2  A    between atoms: C_7  and  C_8
REMARK                            x       y       z     vdW  Elec       q    Type
REMARK                         _______ _______ _______ _____ _____    ______ ____
ROOT
ATOM      1  C   UNL     1     101.734 125.987  83.025  0.00  0.00    +0.000 C 
ATOM      2  C   UNL     1     102.359 126.104  81.842  0.00  0.00    +0.000 C 
ENDROOT
BRANCH   2   3
ATOM      3  C   UNL     1     103.454 125.231  81.400  0.00  0.00    +0.000 A 
ATOM      4  C   UNL     1     103.913 124.157  82.178  0.00  0.00    +0.000 A 
ATOM      5  C   UNL     1     104.935 123.329  81.710  0.00  0.00    +0.000 A 
ATOM      6  C   UNL     1     105.493 123.568  80.461  0.00  0.00    +0.000 A 
ATOM      7  C   UNL     1     105.044 124.616  79.667  0.00  0.00    +0.000 A 
ATOM      8  C   UNL     1     104.020 125.443  80.135  0.00  0.00    +0.000 A 
ATOM      9  F   UNL     1     106.473 122.773  80.011  0.00  0.00    +0.000 F 
ENDBRANCH   2   3
BRANCH   1  13
ATOM     10  C   UNL     1      99.708 129.137  83.417  0.00  0.00    +0.000 C 
ATOM     11  C   UNL     1      98.662 128.148  82.901  0.00  0.00    +0.000 C 
ATOM     12  C   UNL     1      99.436 126.897  82.505  0.00  0.00    +0.000 C 
ATOM     13  C   UNL     1     100.622 126.895  83.467  0.00  0.00    +0.000 C 
ATOM     14  C   UNL     1     101.028 128.369  83.489  0.00  0.00    +0.000 C 
ENDBRANCH   1  13
TORSDOF 2
ENDMDL
