REMARK  Name = *****
REMARK  5 active torsions:
REMARK  status: ('A' for Active; 'I' for Inactive)
REMARK    1  A    between atoms: C_1  and  C_2
REMARK    2  A    between atoms: C_2  and  C_14
REMARK    3  A    between atoms: C_5  and  C_6
REMARK    4  A    between atoms: C_6  and  S_7
REMARK    5  A    between atoms: S_7  and  C_8
REMARK                            x       y       z     vdW  Elec       q    Type
REMARK                         _______ _______ _______ _____ _____    ______ ____
ROOT
ATOM      1  C   UNL     1      -0.610  -0.586  -2.415  0.00  0.00    +0.000 C 
ENDROOT
BRANCH   1   6
ATOM      2  C   UNL     1       1.050  -1.450   0.096  0.00  0.00    +0.000 C 
ATOM      3  C   UNL     1       0.473  -0.036   0.003  0.00  0.00    +0.000 C 
ATOM      4  C   UNL     1      -0.687   0.214   1.014  0.00  0.00    +0.000 C 
ATOM      5  C   UNL     1      -1.680  -0.150  -0.105  0.00  0.00    +0.000 C 
ATOM      6  C   UNL     1      -0.588   0.240  -1.136  0.00  0.00    +0.000 C 
ATOM      7  C   UNL     1       1.579   1.014   0.088  0.00  0.00    +0.000 C 
ENDBRANCH   1   6
BRANCH   1   8
ATOM      8  S   UNL     1       0.772  -0.090  -3.489  0.00  0.00    +0.000 S 
BRANCH   8   9
ATOM      9  C   UNL     1       0.451  -1.140  -4.893  0.00  0.00    +0.000 A 
ATOM     10  C   UNL     1       0.179  -0.559  -6.135  0.00  0.00    +0.000 A 
ATOM     11  C   UNL     1      -0.066  -1.363  -7.251  0.00  0.00    +0.000 A 
ATOM     12  C   UNL     1      -0.031  -2.751  -7.132  0.00  0.00    +0.000 A 
ATOM     13  C   UNL     1       0.254  -3.337  -5.900  0.00  0.00    +0.000 A 
ATOM     14  C   UNL     1       0.498  -2.534  -4.784  0.00  0.00    +0.000 A 
ENDBRANCH   8   9
ENDBRANCH   1   8
TORSDOF 3
