MODEL 1
REMARK VINA RESULT:      -4.6      0.000      0.000
REMARK  Name = *****
REMARK  3 active torsions:
REMARK  status: ('A' for Active; 'I' for Inactive)
REMARK    1  A    between atoms: C_1  and  C_2
REMARK    2  A    between atoms: C_7  and  C_8
REMARK    3  A    between atoms: N_9  and  C_10
REMARK                            x       y       z     vdW  Elec       q    Type
REMARK                         _______ _______ _______ _____ _____    ______ ____
ROOT
ATOM      1  C   UNL     1     102.019 125.996  82.520  0.00  0.00    +0.000 C 
ATOM      2  N   UNL     1     102.712 125.975  81.422  0.00  0.00    +0.000 NA
ENDROOT
BRANCH   1   9
ATOM      3  C   UNL     1     102.662 128.608  83.814  0.00  0.00    +0.000 C 
ATOM      4  C   UNL     1     101.272 128.243  83.377  0.00  0.00    +0.000 A 
ATOM      5  C   UNL     1     100.231 129.164  83.583  0.00  0.00    +0.000 A 
ATOM      6  C   UNL     1      98.923 128.869  83.195  0.00  0.00    +0.000 A 
ATOM      7  C   UNL     1      98.632 127.648  82.595  0.00  0.00    +0.000 A 
ATOM      8  C   UNL     1      99.651 126.721  82.381  0.00  0.00    +0.000 A 
ATOM      9  C   UNL     1     100.967 127.010  82.767  0.00  0.00    +0.000 A 
ENDBRANCH   1   9
BRANCH   2  10
ATOM     10  C   UNL     1     103.673 124.960  81.325  0.00  0.00    +0.000 A 
ATOM     11  C   UNL     1     104.360 124.744  80.127  0.00  0.00    +0.000 A 
ATOM     12  C   UNL     1     105.325 123.739  80.036  0.00  0.00    +0.000 A 
ATOM     13  C   UNL     1     105.616 122.952  81.149  0.00  0.00    +0.000 A 
ATOM     14  C   UNL     1     104.948 123.172  82.353  0.00  0.00    +0.000 A 
ATOM     15  C   UNL     1     103.983 124.177  82.440  0.00  0.00    +0.000 A 
ENDBRANCH   2  10
TORSDOF 2
ENDMDL
