MODEL 1
REMARK VINA RESULT:      -4.7      0.000      0.000
REMARK  Name = *****
REMARK  3 active torsions:
REMARK  status: ('A' for Active; 'I' for Inactive)
REMARK    1  A    between atoms: C_4  and  N_7
REMARK    2  A    between atoms: N_7  and  C_8
REMARK    3  A    between atoms: C_8  and  C_9
REMARK                            x       y       z     vdW  Elec       q    Type
REMARK                         _______ _______ _______ _____ _____    ______ ____
ROOT
ATOM      1  C   UNL     1     100.465 127.178  83.370  0.00  0.00    +0.000 C 
ATOM      2  F   UNL     1      99.871 126.986  82.155  0.00  0.00    +0.000 F 
ATOM      3  F   UNL     1      99.734 126.434  84.252  0.00  0.00    +0.000 F 
ENDROOT
BRANCH   1   4
ATOM      4  C   UNL     1     100.455 128.656  83.727  0.00  0.00    +0.000 A 
ATOM      5  C   UNL     1     101.545 129.234  84.400  0.00  0.00    +0.000 A 
ATOM      6  C   UNL     1     101.535 130.589  84.735  0.00  0.00    +0.000 A 
ATOM      7  C   UNL     1     100.436 131.380  84.407  0.00  0.00    +0.000 A 
ATOM      8  C   UNL     1      99.346 130.820  83.745  0.00  0.00    +0.000 A 
ATOM      9  C   UNL     1      99.353 129.466  83.406  0.00  0.00    +0.000 A 
ENDBRANCH   1   4
BRANCH   1  10
ATOM     10  N   UNL     1     101.831 126.638  83.318  0.00  0.00    +0.000 NA
ATOM     11  F   UNL     1     101.898 125.431  83.983  0.00  0.00    +0.000 F 
BRANCH  10  15
ATOM     12  C   UNL     1     104.630 126.090  80.057  0.00  0.00    +0.000 C 
ATOM     13  C   UNL     1     103.800 124.910  80.544  0.00  0.00    +0.000 C 
ATOM     14  C   UNL     1     103.196 125.182  81.919  0.00  0.00    +0.000 C 
ATOM     15  C   UNL     1     102.349 126.473  81.946  0.00  0.00    +0.000 C 
ATOM     16  C   UNL     1     103.191 127.654  81.427  0.00  0.00    +0.000 C 
ATOM     17  C   UNL     1     103.810 127.373  80.058  0.00  0.00    +0.000 C 
ENDBRANCH  10  15
ENDBRANCH   1  10
TORSDOF 3
ENDMDL
