MODEL 1
REMARK VINA RESULT:      -4.7      0.000      0.000
REMARK  Name = *****
REMARK  6 active torsions:
REMARK  status: ('A' for Active; 'I' for Inactive)
REMARK    1  A    between atoms: C_1  and  C_2
REMARK    2  A    between atoms: C_4  and  C_18
REMARK    3  A    between atoms: C_5  and  C_9
REMARK    4  A    between atoms: C_6  and  C_8
REMARK    5  A    between atoms: C_9  and  O_11
REMARK    6  A    between atoms: O_11  and  C_12
REMARK                            x       y       z     vdW  Elec       q    Type
REMARK                         _______ _______ _______ _____ _____    ______ ____
ROOT
ATOM      1  C   UNL     1      84.176  72.306  88.804  0.00  0.00    +0.000 C 
ATOM      2  C   UNL     1      85.311  71.899  87.910  0.00  0.00    +0.000 A 
ATOM      3  C   UNL     1      86.468  71.329  88.453  0.00  0.00    +0.000 A 
ATOM      4  C   UNL     1      87.521  70.899  87.630  0.00  0.00    +0.000 A 
ATOM      5  C   UNL     1      87.406  71.075  86.234  0.00  0.00    +0.000 A 
ATOM      6  C   UNL     1      86.239  71.631  85.669  0.00  0.00    +0.000 A 
ATOM      7  C   UNL     1      85.196  72.025  86.521  0.00  0.00    +0.000 A 
ATOM      8  C   UNL     1      86.072  71.786  84.182  0.00  0.00    +0.000 C 
ATOM      9  C   UNL     1      88.741  70.290  88.265  0.00  0.00    +0.000 C 
ENDROOT
BRANCH   5  10
ATOM     10  C   UNL     1      88.504  70.649  85.336  0.00  0.00    +0.000 C 
ATOM     11  O   UNL     1      89.548  71.265  85.205  0.00  0.00    +0.000 OA
BRANCH  10  12
ATOM     12  O   UNL     1      88.141  69.455  84.787  0.00  0.00    +0.000 OA
BRANCH  12  13
ATOM     13  C   UNL     1      88.486  68.256  85.456  0.00  0.00    +0.000 C 
ATOM     14  C   UNL     1      89.781  67.916  85.536  0.00  0.00    +0.000 C 
ATOM     15  C   UNL     1      90.277  66.715  86.286  0.00  0.00    +0.000 C 
ATOM     16  C   UNL     1      89.158  65.784  86.757  0.00  0.00    +0.000 C 
ATOM     17  C   UNL     1      87.955  66.576  87.267  0.00  0.00    +0.000 C 
ATOM     18  C   UNL     1      87.401  67.490  86.171  0.00  0.00    +0.000 C 
ENDBRANCH  12  13
ENDBRANCH  10  12
ENDBRANCH   5  10
TORSDOF 3
ENDMDL
