MODEL 1
REMARK VINA RESULT:      -4.4      0.000      0.000
REMARK  Name = *****
REMARK  5 active torsions:
REMARK  status: ('A' for Active; 'I' for Inactive)
REMARK    1  A    between atoms: C_1  and  C_2
REMARK    2  A    between atoms: C_2  and  O_3
REMARK    3  A    between atoms: O_3  and  C_4
REMARK    4  A    between atoms: C_4  and  C_12
REMARK    5  A    between atoms: C_12  and  C_13
REMARK                            x       y       z     vdW  Elec       q    Type
REMARK                         _______ _______ _______ _____ _____    ______ ____
ROOT
ATOM      1  C   UNL     1      89.225  68.696  86.033  0.00  0.00    +0.000 C 
ATOM      2  C   UNL     1      89.246  69.529  85.003  0.00  0.00    +0.000 C 
ATOM      3  C   UNL     1      88.475  70.435  84.240  0.00  0.00    +0.000 C 
ATOM      4  C   UNL     1      89.970  70.101  83.937  0.00  0.00    +0.000 C 
ATOM      5  C   UNL     1      90.915  71.246  84.115  0.00  0.00    +0.000 C 
ATOM      6  C   UNL     1      90.366  72.493  83.416  0.00  0.00    +0.000 C 
ATOM      7  C   UNL     1      88.909  72.843  83.779  0.00  0.00    +0.000 C 
ATOM      8  C   UNL     1      88.213  71.834  84.698  0.00  0.00    +0.000 C 
ENDROOT
BRANCH   1   9
ATOM      9  O   UNL     1      90.277  67.912  86.463  0.00  0.00    +0.000 OA
BRANCH   9  11
ATOM     10  C   UNL     1      91.027  65.957  85.330  0.00  0.00    +0.000 C 
ATOM     11  C   UNL     1      90.117  66.496  86.418  0.00  0.00    +0.000 C 
ENDBRANCH   9  11
ENDBRANCH   1   9
BRANCH   1  12
ATOM     12  C   UNL     1      87.958  68.485  86.830  0.00  0.00    +0.000 C 
BRANCH  12  13
ATOM     13  C   UNL     1      87.615  69.651  87.732  0.00  0.00    +0.000 A 
ATOM     14  C   UNL     1      86.379  70.303  87.618  0.00  0.00    +0.000 A 
ATOM     15  C   UNL     1      86.068  71.381  88.448  0.00  0.00    +0.000 A 
ATOM     16  C   UNL     1      86.989  71.821  89.397  0.00  0.00    +0.000 A 
ATOM     17  C   UNL     1      88.224  71.186  89.514  0.00  0.00    +0.000 A 
ATOM     18  C   UNL     1      88.536  70.108  88.686  0.00  0.00    +0.000 A 
ENDBRANCH  12  13
ENDBRANCH   1  12
TORSDOF 4
ENDMDL
