REMARK  Name = *****
REMARK  3 active torsions:
REMARK  status: ('A' for Active; 'I' for Inactive)
REMARK    1  A    between atoms: C_6  and  C_7
REMARK    2  A    between atoms: C_7  and  N_8
REMARK    3  A    between atoms: N_8  and  C_9
REMARK                            x       y       z     vdW  Elec       q    Type
REMARK                         _______ _______ _______ _____ _____    ______ ____
ROOT
ATOM      1  N   UNL     1      -4.149   1.347   0.159  0.00  0.00    +0.000 N 
ATOM      2  O   UNL     1      -3.666   2.511   0.337  0.00  0.00    +0.000 OA
ENDROOT
BRANCH   1   3
ATOM      3  C   UNL     1      -5.596   1.189   0.106  0.00  0.00    +0.000 A 
ATOM      4  C   UNL     1      -6.247   0.269   0.938  0.00  0.00    +0.000 A 
ATOM      5  C   UNL     1      -7.637   0.152   0.875  0.00  0.00    +0.000 A 
ATOM      6  C   UNL     1      -8.364   0.957  -0.004  0.00  0.00    +0.000 A 
ATOM      7  C   UNL     1      -7.716   1.886  -0.819  0.00  0.00    +0.000 A 
ATOM      8  C   UNL     1      -6.326   2.008  -0.762  0.00  0.00    +0.000 A 
ATOM      9 CL   UNL     1     -10.077   0.808  -0.076  0.00  0.00    +0.000 Cl
ENDBRANCH   1   3
BRANCH   1  10
ATOM     10  C   UNL     1      -3.418   0.265   0.005  0.00  0.00    +0.000 C 
BRANCH  10  16
ATOM     11  C   UNL     1      -1.102   1.295  -0.197  0.00  0.00    +0.000 A 
ATOM     12  C   UNL     1       0.285   1.123  -0.186  0.00  0.00    +0.000 A 
ATOM     13  C   UNL     1       0.822  -0.140   0.031  0.00  0.00    +0.000 A 
ATOM     14  C   UNL     1      -0.003  -1.240   0.233  0.00  0.00    +0.000 A 
ATOM     15  C   UNL     1      -1.389  -1.071   0.222  0.00  0.00    +0.000 A 
ATOM     16  C   UNL     1      -1.946   0.201   0.018  0.00  0.00    +0.000 A 
ATOM     17  F   UNL     1       2.151  -0.302   0.040  0.00  0.00    +0.000 F 
ENDBRANCH  10  16
ENDBRANCH   1  10
TORSDOF 3
