MODEL 1
REMARK VINA RESULT:      -4.4      0.000      0.000
REMARK  Name = *****
REMARK  3 active torsions:
REMARK  status: ('A' for Active; 'I' for Inactive)
REMARK    1  A    between atoms: C_3  and  N_4
REMARK    2  A    between atoms: N_4  and  C_5
REMARK    3  A    between atoms: C_12  and  C_14
REMARK                            x       y       z     vdW  Elec       q    Type
REMARK                         _______ _______ _______ _____ _____    ______ ____
ROOT
ATOM      1  N   UNL     1      86.957  63.636  87.207  0.00  0.00    +0.000 N 
ATOM      2  C   UNL     1      87.039  62.796  88.337  0.00  0.00    +0.000 C 
ATOM      3  O   UNL     1      86.643  61.628  88.350  0.00  0.00    +0.000 OA
ENDROOT
BRANCH   1   4
ATOM      4  C   UNL     1      87.699  64.849  87.030  0.00  0.00    +0.000 A 
ATOM      5  C   UNL     1      87.213  66.082  87.497  0.00  0.00    +0.000 A 
ATOM      6  C   UNL     1      87.956  67.255  87.330  0.00  0.00    +0.000 A 
ATOM      7  C   UNL     1      89.194  67.199  86.706  0.00  0.00    +0.000 A 
ATOM      8  C   UNL     1      89.710  65.993  86.255  0.00  0.00    +0.000 A 
ATOM      9  C   UNL     1      88.968  64.820  86.424  0.00  0.00    +0.000 A 
ATOM     10  F   UNL     1      89.906  68.323  86.548  0.00  0.00    +0.000 F 
ENDBRANCH   1   4
BRANCH   2  11
ATOM     11  C   UNL     1      87.523  63.331  89.636  0.00  0.00    +0.000 A 
ATOM     12  C   UNL     1      88.891  63.453  89.909  0.00  0.00    +0.000 A 
ATOM     13  C   UNL     1      89.310  63.984  91.130  0.00  0.00    +0.000 A 
ATOM     14  C   UNL     1      88.368  64.413  92.066  0.00  0.00    +0.000 A 
ATOM     15  C   UNL     1      87.005  64.323  91.782  0.00  0.00    +0.000 A 
ATOM     16  C   UNL     1      86.580  63.790  90.565  0.00  0.00    +0.000 A 
ENDBRANCH   2  11
BRANCH   1  19
ATOM     17  C   UNL     1      85.474  64.227  85.168  0.00  0.00    +0.000 C 
ATOM     18  C   UNL     1      84.572  63.557  86.153  0.00  0.00    +0.000 C 
ATOM     19  C   UNL     1      86.049  63.226  86.143  0.00  0.00    +0.000 C 
ENDBRANCH   1  19
TORSDOF 3
ENDMDL
