MODEL 1
REMARK VINA RESULT:      -4.9      0.000      0.000
REMARK  Name = *****
REMARK  4 active torsions:
REMARK  status: ('A' for Active; 'I' for Inactive)
REMARK    1  A    between atoms: C_1  and  C_2
REMARK    2  A    between atoms: C_4  and  N_8
REMARK    3  A    between atoms: C_9  and  C_10
REMARK    4  A    between atoms: C_13  and  C_16
REMARK                            x       y       z     vdW  Elec       q    Type
REMARK                         _______ _______ _______ _____ _____    ______ ____
ROOT
ATOM      1  C   UNL     1     101.712 126.783  82.637  0.00  0.00    +0.000 A 
ATOM      2  C   UNL     1     100.316 126.818  82.597  0.00  0.00    +0.000 A 
ATOM      3  C   UNL     1      99.634 127.932  83.092  0.00  0.00    +0.000 A 
ATOM      4  C   UNL     1     100.340 129.017  83.638  0.00  0.00    +0.000 A 
ATOM      5  C   UNL     1     101.744 128.971  83.661  0.00  0.00    +0.000 A 
ATOM      6  C   UNL     1     102.429 127.857  83.168  0.00  0.00    +0.000 A 
ENDROOT
BRANCH   4   7
ATOM      7  C   UNL     1      99.600 130.231  84.150  0.00  0.00    +0.000 C 
ATOM      8  F   UNL     1     100.333 130.974  85.024  0.00  0.00    +0.000 F 
ATOM      9  F   UNL     1      99.226 131.086  83.157  0.00  0.00    +0.000 F 
ATOM     10  F   UNL     1      98.455 129.899  84.807  0.00  0.00    +0.000 F 
ENDBRANCH   4   7
BRANCH   1  12
ATOM     11  N   UNL     1     103.491 125.138  82.734  0.00  0.00    +0.000 NA
ATOM     12  C   UNL     1     102.454 125.617  82.119  0.00  0.00    +0.000 C 
BRANCH  11  16
ATOM     13  C   UNL     1     105.301 120.547  83.093  0.00  0.00    +0.000 C 
ATOM     14  C   UNL     1     104.981 121.764  82.278  0.00  0.00    +0.000 A 
ATOM     15  C   UNL     1     104.373 122.876  82.875  0.00  0.00    +0.000 A 
ATOM     16  C   UNL     1     104.097 124.028  82.130  0.00  0.00    +0.000 A 
ATOM     17  C   UNL     1     104.468 124.079  80.786  0.00  0.00    +0.000 A 
ATOM     18  C   UNL     1     105.089 122.984  80.184  0.00  0.00    +0.000 A 
ATOM     19  C   UNL     1     105.346 121.831  80.928  0.00  0.00    +0.000 A 
ENDBRANCH  11  16
ENDBRANCH   1  12
TORSDOF 3
ENDMDL
