MODEL 1
REMARK VINA RESULT:      -4.5      0.000      0.000
REMARK  Name = *****
REMARK  6 active torsions:
REMARK  status: ('A' for Active; 'I' for Inactive)
REMARK    1  A    between atoms: C_1  and  C_2
REMARK    2  A    between atoms: C_5  and  C_8
REMARK    3  A    between atoms: C_9  and  C_10
REMARK    4  A    between atoms: C_15  and  N_16
REMARK    5  A    between atoms: N_16  and  C_17
REMARK    6  A    between atoms: N_16  and  C_18
REMARK                            x       y       z     vdW  Elec       q    Type
REMARK                         _______ _______ _______ _____ _____    ______ ____
ROOT
ATOM      1  C   UNL     1      88.866  66.959  86.632  0.00  0.00    +0.000 C 
ATOM      2  C   UNL     1      88.477  65.959  87.174  0.00  0.00    +0.000 C 
ENDROOT
BRANCH   1   7
ATOM      3  C   UNL     1      90.596  71.763  84.020  0.00  0.00    +0.000 C 
ATOM      4  C   UNL     1      90.173  70.501  84.708  0.00  0.00    +0.000 A 
ATOM      5  C   UNL     1      90.048  69.306  83.986  0.00  0.00    +0.000 A 
ATOM      6  C   UNL     1      89.622  68.136  84.621  0.00  0.00    +0.000 A 
ATOM      7  C   UNL     1      89.306  68.152  85.979  0.00  0.00    +0.000 A 
ATOM      8  C   UNL     1      89.415  69.341  86.703  0.00  0.00    +0.000 A 
ATOM      9  C   UNL     1      89.840  70.512  86.068  0.00  0.00    +0.000 A 
ENDBRANCH   1   7
BRANCH   2  10
ATOM     10  C   UNL     1      88.002  64.766  87.816  0.00  0.00    +0.000 A 
ATOM     11  C   UNL     1      88.031  64.723  89.217  0.00  0.00    +0.000 A 
ATOM     12  C   UNL     1      87.560  63.602  89.898  0.00  0.00    +0.000 A 
ATOM     13  C   UNL     1      87.059  62.522  89.182  0.00  0.00    +0.000 A 
ATOM     14  C   UNL     1      87.026  62.559  87.783  0.00  0.00    +0.000 A 
ATOM     15  C   UNL     1      87.493  63.677  87.068  0.00  0.00    +0.000 A 
BRANCH  15  16
ATOM     16  N   UNL     1      87.483  63.714  85.654  0.00  0.00    +0.000 N 
ATOM     17  C   UNL     1      86.171  63.661  85.015  0.00  0.00    +0.000 C 
ATOM     18  C   UNL     1      88.473  62.792  85.088  0.00  0.00    +0.000 C 
ENDBRANCH  15  16
ENDBRANCH   2  10
TORSDOF 3
ENDMDL
