REMARK  Name = *****
REMARK  5 active torsions:
REMARK  status: ('A' for Active; 'I' for Inactive)
REMARK    1  A    between atoms: C_1  and  C_2
REMARK    2  A    between atoms: C_4  and  C_8
REMARK    3  A    between atoms: C_9  and  C_10
REMARK    4  A    between atoms: C_11  and  C_17
REMARK    5  A    between atoms: C_15  and  C_16
REMARK                            x       y       z     vdW  Elec       q    Type
REMARK                         _______ _______ _______ _____ _____    ______ ____
ROOT
ATOM      1  C   UNL     1       5.286   2.576  -0.494  0.00  0.00    +0.000 C 
ATOM      2  C   UNL     1       5.868   3.620  -0.619  0.00  0.00    +0.000 C 
ENDROOT
BRANCH   2   3
ATOM      3  C   UNL     1       6.574   4.866  -0.745  0.00  0.00    +0.000 A 
ATOM      4  C   UNL     1       5.871   6.087  -0.696  0.00  0.00    +0.000 A 
ATOM      5  C   UNL     1       6.580   7.290  -0.841  0.00  0.00    +0.000 A 
ATOM      6  C   UNL     1       7.963   7.286  -1.005  0.00  0.00    +0.000 A 
ATOM      7  C   UNL     1       8.657   6.080  -1.038  0.00  0.00    +0.000 A 
ATOM      8  C   UNL     1       7.976   4.859  -0.911  0.00  0.00    +0.000 A 
ATOM      9  C   UNL     1       8.760   3.575  -0.960  0.00  0.00    +0.000 C 
ATOM     10  C   UNL     1       4.373   6.149  -0.558  0.00  0.00    +0.000 C 
ENDBRANCH   2   3
BRANCH   1  14
ATOM     11  C   UNL     1       1.030   0.085   0.137  0.00  0.00    +0.000 C 
ATOM     12  C   UNL     1       2.524   0.111   0.006  0.00  0.00    +0.000 A 
ATOM     13  C   UNL     1       3.206   1.321  -0.182  0.00  0.00    +0.000 A 
ATOM     14  C   UNL     1       4.597   1.335  -0.323  0.00  0.00    +0.000 A 
ATOM     15  C   UNL     1       5.313   0.138  -0.288  0.00  0.00    +0.000 A 
ATOM     16  C   UNL     1       4.640  -1.072  -0.114  0.00  0.00    +0.000 A 
ATOM     17  C   UNL     1       3.252  -1.085   0.029  0.00  0.00    +0.000 A 
ENDBRANCH   1  14
TORSDOF 2
