REMARK  Name = *****
REMARK  4 active torsions:
REMARK  status: ('A' for Active; 'I' for Inactive)
REMARK    1  A    between atoms: C_1  and  C_2
REMARK    2  A    between atoms: C_2  and  S_8
REMARK    3  A    between atoms: S_8  and  C_9
REMARK    4  A    between atoms: C_9  and  C_10
REMARK                            x       y       z     vdW  Elec       q    Type
REMARK                         _______ _______ _______ _____ _____    ______ ____
ROOT
ATOM      1  S   UNL     1       1.018  -0.213   2.268  0.00  0.00    +0.000 S 
ENDROOT
BRANCH   1   3
ATOM      2  C   UNL     1       2.507  -0.168  -0.058  0.00  0.00    +0.000 C 
ATOM      3  C   UNL     1       1.047  -0.072   0.413  0.00  0.00    +0.000 C 
ATOM      4  C   UNL     1       0.407   1.233  -0.108  0.00  0.00    +0.000 C 
ATOM      5  C   UNL     1      -1.097   1.324   0.153  0.00  0.00    +0.000 C 
ATOM      6  C   UNL     1      -1.835   0.120  -0.423  0.00  0.00    +0.000 C 
ATOM      7  C   UNL     1      -1.253  -1.199   0.075  0.00  0.00    +0.000 C 
ATOM      8  C   UNL     1       0.259  -1.279  -0.157  0.00  0.00    +0.000 C 
ENDBRANCH   1   3
BRANCH   1   9
ATOM      9  C   UNL     1       1.758   1.368   2.788  0.00  0.00    +0.000 C 
BRANCH   9  10
ATOM     10  C   UNL     1       1.993   1.393   4.279  0.00  0.00    +0.000 A 
ATOM     11  C   UNL     1       3.197   0.917   4.820  0.00  0.00    +0.000 A 
ATOM     12  C   UNL     1       3.410   0.934   6.199  0.00  0.00    +0.000 A 
ATOM     13  C   UNL     1       2.421   1.421   7.052  0.00  0.00    +0.000 A 
ATOM     14  C   UNL     1       1.216   1.885   6.528  0.00  0.00    +0.000 A 
ATOM     15  C   UNL     1       1.001   1.869   5.149  0.00  0.00    +0.000 A 
ENDBRANCH   9  10
ENDBRANCH   1   9
TORSDOF 3
