REMARK  Name = *****
REMARK  2 active torsions:
REMARK  status: ('A' for Active; 'I' for Inactive)
REMARK    1  A    between atoms: C_5  and  C_7
REMARK    2  A    between atoms: C_8  and  C_9
REMARK                            x       y       z     vdW  Elec       q    Type
REMARK                         _______ _______ _______ _____ _____    ______ ____
ROOT
ATOM      1  C   UNL     1       1.540  -1.600  -1.366  0.00  0.00    +0.000 C 
ATOM      2  C   UNL     1       1.934  -1.968  -2.440  0.00  0.00    +0.000 C 
ENDROOT
BRANCH   2   3
ATOM      3  C   UNL     1       2.403  -2.405  -3.718  0.00  0.00    +0.000 A 
ATOM      4  C   UNL     1       2.515  -1.492  -4.771  0.00  0.00    +0.000 A 
ATOM      5  C   UNL     1       2.974  -1.918  -6.020  0.00  0.00    +0.000 A 
ATOM      6  C   UNL     1       3.320  -3.256  -6.211  0.00  0.00    +0.000 A 
ATOM      7  C   UNL     1       3.210  -4.170  -5.164  0.00  0.00    +0.000 A 
ATOM      8  C   UNL     1       2.751  -3.744  -3.915  0.00  0.00    +0.000 A 
ATOM      9 CL   UNL     1       3.886  -3.781  -7.748  0.00  0.00    +0.000 Cl
ENDBRANCH   2   3
BRANCH   1  14
ATOM     10  C   UNL     1       0.469   1.292  -0.479  0.00  0.00    +0.000 C 
ATOM     11  C   UNL     1      -0.974   1.057  -0.026  0.00  0.00    +0.000 C 
ATOM     12  C   UNL     1      -1.335  -0.396   0.065  0.00  0.00    +0.000 C 
ATOM     13  C   UNL     1      -0.425  -1.382   0.037  0.00  0.00    +0.000 C 
ATOM     14  C   UNL     1       1.061  -1.147  -0.046  0.00  0.00    +0.000 C 
ATOM     15  C   UNL     1       1.436   0.324   0.205  0.00  0.00    +0.000 C 
ENDBRANCH   1  14
TORSDOF 2
