MODEL 1
REMARK VINA RESULT:      -4.6      0.000      0.000
REMARK  Name = *****
REMARK  2 active torsions:
REMARK  status: ('A' for Active; 'I' for Inactive)
REMARK    1  A    between atoms: C_6  and  C_7
REMARK    2  A    between atoms: C_8  and  C_9
REMARK                            x       y       z     vdW  Elec       q    Type
REMARK                         _______ _______ _______ _____ _____    ______ ____
ROOT
ATOM      1  C   UNL     1      86.230  61.430  88.985  0.00  0.00    +0.000 C 
ATOM      2  C   UNL     1      85.718  61.251  90.215  0.00  0.00    +0.000 C 
ENDROOT
BRANCH   1   8
ATOM      3  C   UNL     1      87.688  63.399  89.552  0.00  0.00    +0.000 A 
ATOM      4  C   UNL     1      88.432  64.511  89.150  0.00  0.00    +0.000 A 
ATOM      5  C   UNL     1      88.526  64.820  87.799  0.00  0.00    +0.000 A 
ATOM      6  C   UNL     1      87.887  64.042  86.842  0.00  0.00    +0.000 A 
ATOM      7  C   UNL     1      87.141  62.931  87.245  0.00  0.00    +0.000 A 
ATOM      8  C   UNL     1      87.047  62.590  88.602  0.00  0.00    +0.000 A 
ATOM      9  F   UNL     1      89.239  65.886  87.414  0.00  0.00    +0.000 F 
ENDBRANCH   1   8
BRANCH   2  10
ATOM     10  C   UNL     1      84.905  60.090  90.602  0.00  0.00    +0.000 A 
ATOM     11  C   UNL     1      83.505  60.143  90.663  0.00  0.00    +0.000 A 
ATOM     12  C   UNL     1      82.763  59.007  91.002  0.00  0.00    +0.000 A 
ATOM     13  C   UNL     1      83.419  57.809  91.271  0.00  0.00    +0.000 A 
ATOM     14  C   UNL     1      84.807  57.734  91.200  0.00  0.00    +0.000 A 
ATOM     15  C   UNL     1      85.547  58.870  90.860  0.00  0.00    +0.000 A 
ATOM     16 BR   UNL     1      82.416  56.272  91.728  0.00  0.00    +0.000 Br
ENDBRANCH   2  10
TORSDOF 2
ENDMDL
