MODEL 1
REMARK VINA RESULT:      -4.8      0.000      0.000
REMARK  Name = *****
REMARK  6 active torsions:
REMARK  status: ('A' for Active; 'I' for Inactive)
REMARK    1  A    between atoms: C_1  and  C_2
REMARK    2  A    between atoms: C_5  and  C_8
REMARK    3  A    between atoms: C_9  and  C_10
REMARK    4  A    between atoms: C_9  and  O_16
REMARK    5  A    between atoms: O_16  and  C_17
REMARK    6  A    between atoms: C_17  and  C_19
REMARK                            x       y       z     vdW  Elec       q    Type
REMARK                         _______ _______ _______ _____ _____    ______ ____
ROOT
ATOM      1  C   UNL     1      87.124  63.176  87.329  0.00  0.00    +0.000 C 
ATOM      2  C   UNL     1      87.903  64.199  87.723  0.00  0.00    +0.000 C 
ENDROOT
BRANCH   1   7
ATOM      3  C   UNL     1      82.968  60.948  90.660  0.00  0.00    +0.000 C 
ATOM      4  C   UNL     1      84.053  61.543  89.813  0.00  0.00    +0.000 A 
ATOM      5  C   UNL     1      83.775  62.609  88.949  0.00  0.00    +0.000 A 
ATOM      6  C   UNL     1      84.779  63.141  88.135  0.00  0.00    +0.000 A 
ATOM      7  C   UNL     1      86.070  62.606  88.169  0.00  0.00    +0.000 A 
ATOM      8  C   UNL     1      86.349  61.536  89.021  0.00  0.00    +0.000 A 
ATOM      9  C   UNL     1      85.344  61.003  89.834  0.00  0.00    +0.000 A 
ENDBRANCH   1   7
BRANCH   2  10
ATOM     10  C   UNL     1      89.000  64.720  86.888  0.00  0.00    +0.000 A 
ATOM     11  C   UNL     1      89.298  66.089  86.861  0.00  0.00    +0.000 A 
ATOM     12  C   UNL     1      90.347  66.571  86.074  0.00  0.00    +0.000 A 
ATOM     13  C   UNL     1      91.109  65.690  85.310  0.00  0.00    +0.000 A 
ATOM     14  C   UNL     1      90.828  64.326  85.336  0.00  0.00    +0.000 A 
ATOM     15  C   UNL     1      89.780  63.842  86.123  0.00  0.00    +0.000 A 
ENDBRANCH   2  10
BRANCH   2  16
ATOM     16  O   UNL     1      87.806  64.768  89.002  0.00  0.00    +0.000 OA
BRANCH  16  17
ATOM     17  C   UNL     1      88.470  64.040  89.959  0.00  0.00    +0.000 C 
ATOM     18  O   UNL     1      89.490  63.377  89.815  0.00  0.00    +0.000 OA
ATOM     19  C   UNL     1      87.743  64.176  91.263  0.00  0.00    +0.000 C 
ENDBRANCH  16  17
ENDBRANCH   2  16
TORSDOF 4
ENDMDL
