MODEL 1
REMARK VINA RESULT:      -4.2      0.000      0.000
REMARK  Name = *****
REMARK  5 active torsions:
REMARK  status: ('A' for Active; 'I' for Inactive)
REMARK    1  A    between atoms: C_4  and  O_7
REMARK    2  A    between atoms: O_7  and  C_8
REMARK    3  A    between atoms: C_8  and  O_10
REMARK    4  A    between atoms: O_10  and  O_11
REMARK    5  A    between atoms: O_11  and  C_12
REMARK                            x       y       z     vdW  Elec       q    Type
REMARK                         _______ _______ _______ _____ _____    ______ ____
ROOT
ATOM      1  C   UNL     1      99.702 126.800  82.539  0.00  0.00    +0.000 C 
ATOM      2  O   UNL     1      98.596 126.809  82.019  0.00  0.00    +0.000 OA
ENDROOT
BRANCH   1   3
ATOM      3  O   UNL     1     100.054 127.487  83.660  0.00  0.00    +0.000 OA
BRANCH   3   7
ATOM      4  C   UNL     1      98.836 130.994  85.711  0.00  0.00    +0.000 C 
ATOM      5  C   UNL     1      99.323 131.149  84.273  0.00  0.00    +0.000 C 
ATOM      6  C   UNL     1     100.082 129.913  83.800  0.00  0.00    +0.000 C 
ATOM      7  C   UNL     1      99.251 128.637  83.970  0.00  0.00    +0.000 C 
ATOM      8  C   UNL     1      98.778 128.489  85.418  0.00  0.00    +0.000 C 
ATOM      9  C   UNL     1      98.015 129.721  85.893  0.00  0.00    +0.000 C 
ENDBRANCH   3   7
ENDBRANCH   1   3
BRANCH   1  10
ATOM     10  O   UNL     1     100.808 126.132  82.089  0.00  0.00    +0.000 OA
BRANCH  10  11
ATOM     11  O   UNL     1     101.922 127.086  82.054  0.00  0.00    +0.000 OA
BRANCH  11  12
ATOM     12  C   UNL     1     103.114 126.311  81.901  0.00  0.00    +0.000 C 
ATOM     13  C   UNL     1     103.171 125.820  80.454  0.00  0.00    +0.000 C 
ATOM     14  C   UNL     1     104.350 124.882  80.220  0.00  0.00    +0.000 C 
ATOM     15  C   UNL     1     104.340 123.714  81.203  0.00  0.00    +0.000 C 
ATOM     16  C   UNL     1     104.274 124.193  82.650  0.00  0.00    +0.000 C 
ATOM     17  C   UNL     1     103.094 125.134  82.877  0.00  0.00    +0.000 C 
ENDBRANCH  11  12
ENDBRANCH  10  11
ENDBRANCH   1  10
TORSDOF 5
ENDMDL
