MODEL 1
REMARK VINA RESULT:      -4.9      0.000      0.000
REMARK  Name = *****
REMARK  5 active torsions:
REMARK  status: ('A' for Active; 'I' for Inactive)
REMARK    1  A    between atoms: C_1  and  C_2
REMARK    2  A    between atoms: C_4  and  C_19
REMARK    3  A    between atoms: C_6  and  O_8
REMARK    4  A    between atoms: O_8  and  C_9
REMARK    5  A    between atoms: C_9  and  C_11
REMARK                            x       y       z     vdW  Elec       q    Type
REMARK                         _______ _______ _______ _____ _____    ______ ____
ROOT
ATOM      1  C   UNL     1      89.633  69.118  85.840  0.00  0.00    +0.000 C 
ATOM      2  O   UNL     1      89.856  69.313  84.656  0.00  0.00    +0.000 OA
ENDROOT
BRANCH   1   3
ATOM      3  C   UNL     1      88.602  69.878  86.602  0.00  0.00    +0.000 A 
ATOM      4  C   UNL     1      87.632  70.578  85.870  0.00  0.00    +0.000 A 
ATOM      5  C   UNL     1      86.649  71.300  86.540  0.00  0.00    +0.000 A 
ATOM      6  C   UNL     1      86.619  71.334  87.928  0.00  0.00    +0.000 A 
ATOM      7  C   UNL     1      87.574  70.644  88.669  0.00  0.00    +0.000 A 
ATOM      8  C   UNL     1      88.567  69.915  88.007  0.00  0.00    +0.000 A 
ATOM      9  F   UNL     1      85.670  72.030  88.567  0.00  0.00    +0.000 F 
ATOM     10  F   UNL     1      85.727  71.967  85.831  0.00  0.00    +0.000 F 
ENDBRANCH   1   3
BRANCH   1  11
ATOM     11  O   UNL     1      90.252  68.208  86.677  0.00  0.00    +0.000 OA
BRANCH  11  17
ATOM     12  C   UNL     1      91.908  64.127  84.405  0.00  0.00    +0.000 C 
ATOM     13  C   UNL     1      90.931  64.833  85.297  0.00  0.00    +0.000 A 
ATOM     14  C   UNL     1      89.828  64.145  85.825  0.00  0.00    +0.000 A 
ATOM     15  C   UNL     1      88.891  64.796  86.642  0.00  0.00    +0.000 A 
ATOM     16  C   UNL     1      89.043  66.164  86.894  0.00  0.00    +0.000 A 
ATOM     17  C   UNL     1      90.119  66.854  86.339  0.00  0.00    +0.000 A 
ATOM     18  C   UNL     1      91.072  66.200  85.560  0.00  0.00    +0.000 A 
ATOM     19  C   UNL     1      87.709  64.050  87.184  0.00  0.00    +0.000 C 
ENDBRANCH  11  17
ENDBRANCH   1  11
TORSDOF 3
ENDMDL
