MODEL 1
REMARK VINA RESULT:      -4.2      0.000      0.000
REMARK  Name = *****
REMARK  3 active torsions:
REMARK  status: ('A' for Active; 'I' for Inactive)
REMARK    1  A    between atoms: C_4  and  S_7
REMARK    2  A    between atoms: S_7  and  C_8
REMARK    3  A    between atoms: C_9  and  C_10
REMARK                            x       y       z     vdW  Elec       q    Type
REMARK                         _______ _______ _______ _____ _____    ______ ____
ROOT
ATOM      1  C   UNL     1      89.596  68.921  86.744  0.00  0.00    +0.000 C 
ATOM      2  C   UNL     1      89.798  67.776  86.446  0.00  0.00    +0.000 C 
ENDROOT
BRANCH   2   3
ATOM      3  C   UNL     1      90.043  66.413  86.107  0.00  0.00    +0.000 C 
ATOM      4  C   UNL     1      91.154  66.098  85.416  0.00  0.00    +0.000 C 
ATOM      5  C   UNL     1      91.516  64.697  85.016  0.00  0.00    +0.000 C 
ATOM      6  C   UNL     1      90.677  63.629  85.721  0.00  0.00    +0.000 C 
ATOM      7  C   UNL     1      89.209  64.035  85.781  0.00  0.00    +0.000 C 
ATOM      8  C   UNL     1      89.036  65.366  86.518  0.00  0.00    +0.000 C 
ENDBRANCH   2   3
BRANCH   1   9
ATOM      9  S   UNL     1      89.315  70.534  87.174  0.00  0.00    +0.000 S 
BRANCH   9  13
ATOM     10  C   UNL     1      84.998  72.152  86.665  0.00  0.00    +0.000 C 
ATOM     11  C   UNL     1      85.663  71.531  85.441  0.00  0.00    +0.000 C 
ATOM     12  C   UNL     1      87.174  71.391  85.629  0.00  0.00    +0.000 C 
ATOM     13  C   UNL     1      87.505  70.601  86.901  0.00  0.00    +0.000 C 
ATOM     14  C   UNL     1      86.845  71.242  88.129  0.00  0.00    +0.000 C 
ATOM     15  C   UNL     1      85.335  71.381  87.938  0.00  0.00    +0.000 C 
ENDBRANCH   9  13
ENDBRANCH   1   9
TORSDOF 3
ENDMDL
