REMARK  Name = *****
REMARK  7 active torsions:
REMARK  status: ('A' for Active; 'I' for Inactive)
REMARK    1  A    between atoms: C_1  and  C_2
REMARK    2  A    between atoms: C_2  and  N_3
REMARK    3  A    between atoms: C_4  and  C_9
REMARK    4  A    between atoms: C_6  and  C_8
REMARK    5  A    between atoms: C_9  and  S_11
REMARK    6  A    between atoms: S_11  and  C_12
REMARK    7  A    between atoms: C_15  and  C_18
REMARK                            x       y       z     vdW  Elec       q    Type
REMARK                         _______ _______ _______ _____ _____    ______ ____
ROOT
ATOM      1  C   UNL     1       2.346   2.878  -0.161  0.00  0.00    +0.000 C 
ATOM      2  O   UNL     1       1.720   2.395  -1.097  0.00  0.00    +0.000 OA
ENDROOT
BRANCH   1   4
ATOM      3  N   UNL     1       2.827   0.755   1.071  0.00  0.00    +0.000 N 
ATOM      4  C   UNL     1       2.859   2.130   0.967  0.00  0.00    +0.000 A 
ATOM      5  C   UNL     1       3.457   2.547   2.148  0.00  0.00    +0.000 A 
ATOM      6  C   UNL     1       3.734   1.378   2.885  0.00  0.00    +0.000 A 
ATOM      7  N   UNL     1       3.350   0.286   2.223  0.00  0.00    +0.000 NA
ATOM      8  C   UNL     1       4.363   1.260   4.221  0.00  0.00    +0.000 C 
BRANCH   3  10
ATOM      9  C   UNL     1       0.848  -0.480   0.264  0.00  0.00    +0.000 C 
ATOM     10  C   UNL     1       2.334  -0.215   0.107  0.00  0.00    +0.000 C 
ENDBRANCH   3  10
ENDBRANCH   1   4
BRANCH   1  11
ATOM     11  S   UNL     1       2.663   4.613  -0.104  0.00  0.00    +0.000 S 
BRANCH  11  12
ATOM     12  C   UNL     1       3.691   4.785  -1.548  0.00  0.00    +0.000 A 
ATOM     13  C   UNL     1       3.144   4.714  -2.832  0.00  0.00    +0.000 A 
ATOM     14  C   UNL     1       3.961   4.862  -3.957  0.00  0.00    +0.000 A 
ATOM     15  C   UNL     1       5.335   5.080  -3.812  0.00  0.00    +0.000 A 
ATOM     16  C   UNL     1       5.876   5.175  -2.524  0.00  0.00    +0.000 A 
ATOM     17  C   UNL     1       5.059   5.027  -1.400  0.00  0.00    +0.000 A 
ATOM     18  C   UNL     1       6.205   5.274  -5.018  0.00  0.00    +0.000 C 
ENDBRANCH  11  12
ENDBRANCH   1  11
TORSDOF 4
