MODEL 1
REMARK VINA RESULT:      -4.6      0.000      0.000
REMARK  Name = *****
REMARK  4 active torsions:
REMARK  status: ('A' for Active; 'I' for Inactive)
REMARK    1  A    between atoms: C_4  and  O_7
REMARK    2  A    between atoms: O_7  and  C_8
REMARK    3  A    between atoms: C_8  and  C_10
REMARK    4  A    between atoms: C_12  and  C_16
REMARK                            x       y       z     vdW  Elec       q    Type
REMARK                         _______ _______ _______ _____ _____    ______ ____
ROOT
ATOM      1  C   UNL     1      87.827  66.553  86.902  0.00  0.00    +0.000 A 
ATOM      2  C   UNL     1      87.827  67.859  87.401  0.00  0.00    +0.000 A 
ATOM      3  C   UNL     1      88.877  68.739  87.120  0.00  0.00    +0.000 A 
ATOM      4  C   UNL     1      89.948  68.292  86.330  0.00  0.00    +0.000 A 
ATOM      5  C   UNL     1      89.966  66.988  85.838  0.00  0.00    +0.000 A 
ATOM      6  C   UNL     1      88.911  66.120  86.124  0.00  0.00    +0.000 A 
ATOM      7  F   UNL     1      86.830  68.295  88.185  0.00  0.00    +0.000 F 
ENDROOT
BRANCH   3   8
ATOM      8  C   UNL     1      88.827  70.131  87.674  0.00  0.00    +0.000 C 
ATOM      9  F   UNL     1      88.831  70.159  89.034  0.00  0.00    +0.000 F 
ATOM     10  F   UNL     1      89.873  70.900  87.269  0.00  0.00    +0.000 F 
ATOM     11  F   UNL     1      87.706  70.814  87.298  0.00  0.00    +0.000 F 
ENDBRANCH   3   8
BRANCH   1  12
ATOM     12  C   UNL     1      86.738  65.584  87.172  0.00  0.00    +0.000 C 
ATOM     13  O   UNL     1      85.561  65.860  86.989  0.00  0.00    +0.000 OA
BRANCH  12  14
ATOM     14  O   UNL     1      87.254  64.421  87.706  0.00  0.00    +0.000 OA
BRANCH  14  18
ATOM     15  C   UNL     1      88.221  64.263  91.768  0.00  0.00    +0.000 A 
ATOM     16  C   UNL     1      86.962  64.735  91.388  0.00  0.00    +0.000 A 
ATOM     17  C   UNL     1      86.622  64.808  90.036  0.00  0.00    +0.000 A 
ATOM     18  C   UNL     1      87.558  64.425  89.076  0.00  0.00    +0.000 A 
ATOM     19  C   UNL     1      88.809  63.933  89.447  0.00  0.00    +0.000 A 
ATOM     20  C   UNL     1      89.142  63.860  90.799  0.00  0.00    +0.000 A 
ENDBRANCH  14  18
ENDBRANCH  12  14
ENDBRANCH   1  12
TORSDOF 4
ENDMDL
