REMARK  Name = *****
REMARK  3 active torsions:
REMARK  status: ('A' for Active; 'I' for Inactive)
REMARK    1  A    between atoms: C_2  and  C_13
REMARK    2  A    between atoms: C_3  and  C_4
REMARK    3  A    between atoms: C_4  and  C_6
REMARK                            x       y       z     vdW  Elec       q    Type
REMARK                         _______ _______ _______ _____ _____    ______ ____
ROOT
ATOM      1  C   UNL     1      -0.079   0.747  -0.136  0.00  0.00    +0.000 C 
ATOM      2  C   UNL     1       0.839  -0.450  -0.050  0.00  0.00    +0.000 C 
ATOM      3  C   UNL     1      -0.667  -0.639  -0.125  0.00  0.00    +0.000 C 
ENDROOT
BRANCH   2   4
ATOM      4  C   UNL     1       1.565  -0.768   1.236  0.00  0.00    +0.000 A 
ATOM      5  C   UNL     1       1.561  -2.067   1.771  0.00  0.00    +0.000 A 
ATOM      6  C   UNL     1       2.241  -2.371   2.953  0.00  0.00    +0.000 A 
ATOM      7  C   UNL     1       2.950  -1.379   3.623  0.00  0.00    +0.000 A 
ATOM      8  C   UNL     1       2.981  -0.086   3.108  0.00  0.00    +0.000 A 
ATOM      9  C   UNL     1       2.299   0.211   1.925  0.00  0.00    +0.000 A 
ENDBRANCH   2   4
BRANCH   3  10
ATOM     10  C   UNL     1      -1.274  -1.200  -1.365  0.00  0.00    +0.000 C 
ATOM     11  O   UNL     1      -0.859  -0.906  -2.478  0.00  0.00    +0.000 OA
BRANCH  10  12
ATOM     12  C   UNL     1      -2.373  -2.167  -1.203  0.00  0.00    +0.000 A 
ATOM     13  C   UNL     1      -2.098  -3.383  -0.561  0.00  0.00    +0.000 A 
ATOM     14  C   UNL     1      -3.111  -4.328  -0.401  0.00  0.00    +0.000 A 
ATOM     15  C   UNL     1      -4.393  -4.062  -0.882  0.00  0.00    +0.000 A 
ATOM     16  C   UNL     1      -4.666  -2.850  -1.521  0.00  0.00    +0.000 A 
ATOM     17  C   UNL     1      -3.656  -1.897  -1.685  0.00  0.00    +0.000 A 
ATOM     18 CL   UNL     1      -4.072  -0.400  -2.435  0.00  0.00    +0.000 Cl
ENDBRANCH  10  12
ENDBRANCH   3  10
TORSDOF 3
