MODEL 1
REMARK VINA RESULT:      -4.5      0.000      0.000
REMARK  Name = *****
REMARK  6 active torsions:
REMARK  status: ('A' for Active; 'I' for Inactive)
REMARK    1  A    between atoms: C_1  and  O_2
REMARK    2  A    between atoms: O_2  and  C_3
REMARK    3  A    between atoms: C_6  and  S_9
REMARK    4  A    between atoms: S_9  and  C_10
REMARK    5  A    between atoms: S_9  and  C_11
REMARK    6  A    between atoms: C_11  and  C_12
REMARK                            x       y       z     vdW  Elec       q    Type
REMARK                         _______ _______ _______ _____ _____    ______ ____
ROOT
ATOM      1  S   UNL     1      88.974  70.499  86.673  0.00  0.00    +0.000 S 
ATOM      2  C   UNL     1      90.080  70.655  85.254  0.00  0.00    +0.000 C 
ENDROOT
BRANCH   1   6
ATOM      3  C   UNL     1      88.916  65.896  86.950  0.00  0.00    +0.000 A 
ATOM      4  C   UNL     1      89.978  66.579  86.364  0.00  0.00    +0.000 A 
ATOM      5  C   UNL     1      89.962  67.978  86.298  0.00  0.00    +0.000 A 
ATOM      6  C   UNL     1      88.889  68.710  86.814  0.00  0.00    +0.000 A 
ATOM      7  C   UNL     1      87.826  68.021  87.401  0.00  0.00    +0.000 A 
ATOM      8  C   UNL     1      87.844  66.624  87.468  0.00  0.00    +0.000 A 
BRANCH   3  10
ATOM      9  C   UNL     1      88.514  64.041  88.380  0.00  0.00    +0.000 C 
ATOM     10  O   UNL     1      88.804  64.539  87.081  0.00  0.00    +0.000 OA
ENDBRANCH   3  10
ENDBRANCH   1   6
BRANCH   1  11
ATOM     11  C   UNL     1      87.415  70.813  85.787  0.00  0.00    +0.000 C 
BRANCH  11  12
ATOM     12  C   UNL     1      86.349  71.370  86.698  0.00  0.00    +0.000 A 
ATOM     13  C   UNL     1      86.492  71.300  88.091  0.00  0.00    +0.000 A 
ATOM     14  C   UNL     1      85.505  71.816  88.932  0.00  0.00    +0.000 A 
ATOM     15  C   UNL     1      84.365  72.407  88.391  0.00  0.00    +0.000 A 
ATOM     16  C   UNL     1      84.210  72.482  87.008  0.00  0.00    +0.000 A 
ATOM     17  C   UNL     1      85.197  71.967  86.166  0.00  0.00    +0.000 A 
ENDBRANCH  11  12
ENDBRANCH   1  11
TORSDOF 4
ENDMDL
