MODEL 1
REMARK VINA RESULT:      -4.3      0.000      0.000
REMARK  Name = *****
REMARK  6 active torsions:
REMARK  status: ('A' for Active; 'I' for Inactive)
REMARK    1  A    between atoms: C_1  and  O_2
REMARK    2  A    between atoms: O_2  and  C_3
REMARK    3  A    between atoms: C_3  and  C_5
REMARK    4  A    between atoms: C_6  and  C_10
REMARK    5  A    between atoms: C_10  and  C_11
REMARK    6  A    between atoms: C_11  and  C_12
REMARK                            x       y       z     vdW  Elec       q    Type
REMARK                         _______ _______ _______ _____ _____    ______ ____
ROOT
ATOM      1  C   UNL     1     103.606 125.290  80.365  0.00  0.00    +0.000 C 
ENDROOT
BRANCH   1   3
ATOM      2  C   UNL     1     102.892 127.000  82.228  0.00  0.00    +0.000 A 
ATOM      3  C   UNL     1     103.671 126.581  81.152  0.00  0.00    +0.000 A 
ATOM      4  S   UNL     1     104.836 127.759  80.699  0.00  0.00    +0.000 S 
ATOM      5  C   UNL     1     104.325 128.836  81.914  0.00  0.00    +0.000 A 
ATOM      6  C   UNL     1     103.289 128.318  82.653  0.00  0.00    +0.000 A 
BRANCH   2   7
ATOM      7  C   UNL     1     101.823 126.201  82.836  0.00  0.00    +0.000 C 
ATOM      8  O   UNL     1     101.989 125.468  83.805  0.00  0.00    +0.000 OA
BRANCH   7  10
ATOM      9  C   UNL     1      99.577 126.836  83.062  0.00  0.00    +0.000 C 
ATOM     10  O   UNL     1     100.624 126.375  82.207  0.00  0.00    +0.000 OA
ENDBRANCH   7  10
ENDBRANCH   2   7
ENDBRANCH   1   3
BRANCH   1  11
ATOM     11  C   UNL     1     104.908 124.482  80.464  0.00  0.00    +0.000 C 
ATOM     12  F   UNL     1     105.335 124.207  79.192  0.00  0.00    +0.000 F 
BRANCH  11  13
ATOM     13  C   UNL     1     104.704 123.215  81.270  0.00  0.00    +0.000 A 
ATOM     14  C   UNL     1     104.672 121.964  80.634  0.00  0.00    +0.000 A 
ATOM     15  C   UNL     1     104.473 120.798  81.375  0.00  0.00    +0.000 A 
ATOM     16  C   UNL     1     104.306 120.883  82.752  0.00  0.00    +0.000 A 
ATOM     17  C   UNL     1     104.334 122.110  83.403  0.00  0.00    +0.000 A 
ATOM     18  C   UNL     1     104.533 123.277  82.664  0.00  0.00    +0.000 A 
ATOM     19  F   UNL     1     104.114 119.764  83.463  0.00  0.00    +0.000 F 
ENDBRANCH  11  13
ENDBRANCH   1  11
TORSDOF 5
ENDMDL
