REMARK  Name = *****
REMARK  3 active torsions:
REMARK  status: ('A' for Active; 'I' for Inactive)
REMARK    1  A    between atoms: C_4  and  C_7
REMARK    2  A    between atoms: C_8  and  C_9
REMARK    3  A    between atoms: C_8  and  C_11
REMARK                            x       y       z     vdW  Elec       q    Type
REMARK                         _______ _______ _______ _____ _____    ______ ____
ROOT
ATOM      1  C   UNL     1      -2.785   0.325  -0.297  0.00  0.00    +0.000 C 
ATOM      2  C   UNL     1      -3.748  -0.617  -0.287  0.00  0.00    +0.000 C 
ENDROOT
BRANCH   2   3
ATOM      3  C   UNL     1      -5.144  -0.171  -0.453  0.00  0.00    +0.000 A 
ATOM      4  C   UNL     1      -6.007  -0.129   0.650  0.00  0.00    +0.000 A 
ATOM      5  C   UNL     1      -7.315   0.316   0.485  0.00  0.00    +0.000 A 
ATOM      6  C   UNL     1      -7.787   0.718  -0.759  0.00  0.00    +0.000 A 
ATOM      7  C   UNL     1      -6.936   0.677  -1.863  0.00  0.00    +0.000 A 
ATOM      8  C   UNL     1      -5.619   0.236  -1.711  0.00  0.00    +0.000 A 
ATOM      9  F   UNL     1      -8.132   0.361   1.545  0.00  0.00    +0.000 F 
ENDBRANCH   2   3
BRANCH   1  13
ATOM     10  C   UNL     1       1.441  -0.100   0.213  0.00  0.00    +0.000 A 
ATOM     11  C   UNL     1       0.770  -0.945  -0.669  0.00  0.00    +0.000 A 
ATOM     12  C   UNL     1      -0.611  -0.825  -0.843  0.00  0.00    +0.000 A 
ATOM     13  C   UNL     1      -1.337   0.130  -0.121  0.00  0.00    +0.000 A 
ATOM     14  C   UNL     1      -0.649   0.984   0.752  0.00  0.00    +0.000 A 
ATOM     15  C   UNL     1       0.732   0.867   0.921  0.00  0.00    +0.000 A 
ENDBRANCH   1  13
BRANCH   2  16
ATOM     16  C   UNL     1      -3.498  -2.009  -0.082  0.00  0.00    +0.000 C 
ATOM     17  N   UNL     1      -3.308  -3.144   0.066  0.00  0.00    +0.000 NA
ENDBRANCH   2  16
TORSDOF 3
