MODEL 1
REMARK VINA RESULT:      -4.1      0.000      0.000
REMARK  Name = *****
REMARK  5 active torsions:
REMARK  status: ('A' for Active; 'I' for Inactive)
REMARK    1  A    between atoms: C_1  and  C_2
REMARK    2  A    between atoms: C_2  and  C_7
REMARK    3  A    between atoms: C_8  and  C_9
REMARK    4  A    between atoms: C_12  and  O_15
REMARK    5  A    between atoms: O_15  and  C_16
REMARK                            x       y       z     vdW  Elec       q    Type
REMARK                         _______ _______ _______ _____ _____    ______ ____
ROOT
ATOM      1  C   UNL     1     101.140 126.846  82.646  0.00  0.00    +0.000 C 
ATOM      2  C   UNL     1     102.057 125.974  83.103  0.00  0.00    +0.000 C 
ENDROOT
BRANCH   1   4
ATOM      3  C   UNL     1     100.348 129.094  83.643  0.00  0.00    +0.000 C 
ATOM      4  C   UNL     1     100.107 127.592  83.457  0.00  0.00    +0.000 C 
ATOM      5  S   UNL     1     100.050 126.819  85.126  0.00  0.00    +0.000 S 
ATOM      6  C   UNL     1      98.402 126.080  84.983  0.00  0.00    +0.000 C 
ATOM      7  C   UNL     1      97.545 126.997  84.138  0.00  0.00    +0.000 C 
ATOM      8  S   UNL     1      98.481 127.365  82.637  0.00  0.00    +0.000 S 
ENDBRANCH   1   4
BRANCH   2   9
ATOM      9  C   UNL     1     103.027 125.293  82.235  0.00  0.00    +0.000 A 
ATOM     10  C   UNL     1     103.201 125.743  80.923  0.00  0.00    +0.000 A 
ATOM     11  C   UNL     1     104.137 125.132  80.083  0.00  0.00    +0.000 A 
ATOM     12  C   UNL     1     104.922 124.073  80.542  0.00  0.00    +0.000 A 
ATOM     13  C   UNL     1     104.767 123.632  81.855  0.00  0.00    +0.000 A 
ATOM     14  C   UNL     1     103.829 124.242  82.697  0.00  0.00    +0.000 A 
BRANCH  12  15
ATOM     15  O   UNL     1     105.796 123.567  79.619  0.00  0.00    +0.000 OA
ATOM     16  C   UNL     1     106.225 124.452  78.591  0.00  0.00    +0.000 C 
ENDBRANCH  12  15
ENDBRANCH   2   9
TORSDOF 3
ENDMDL
