MODEL 1
REMARK VINA RESULT:      -5.5      0.000      0.000
REMARK  Name = *****
REMARK  5 active torsions:
REMARK  status: ('A' for Active; 'I' for Inactive)
REMARK    1  A    between atoms: C_1  and  C_2
REMARK    2  A    between atoms: C_3  and  C_21
REMARK    3  A    between atoms: C_5  and  C_8
REMARK    4  A    between atoms: C_16  and  C_20
REMARK    5  A    between atoms: C_17  and  C_19
REMARK                            x       y       z     vdW  Elec       q    Type
REMARK                         _______ _______ _______ _____ _____    ______ ____
ROOT
ATOM      1  C   UNL     1     102.615 125.476  83.629  0.00  0.00    +0.000 C 
ATOM      2  O   UNL     1     102.665 124.850  84.685  0.00  0.00    +0.000 OA
ATOM      3  N   UNL     1     103.305 124.972  82.512  0.00  0.00    +0.000 N 
ATOM      4  C   UNL     1     103.225 125.459  81.223  0.00  0.00    +0.000 A 
ATOM      5  N   UNL     1     103.961 124.783  80.373  0.00  0.00    +0.000 NA
ATOM      6  C   UNL     1     104.540 123.794  81.120  0.00  0.00    +0.000 A 
ATOM      7  C   UNL     1     104.161 123.879  82.455  0.00  0.00    +0.000 A 
ATOM      8  C   UNL     1     104.633 122.975  83.419  0.00  0.00    +0.000 A 
ATOM      9  C   UNL     1     105.506 121.950  83.005  0.00  0.00    +0.000 A 
ATOM     10  C   UNL     1     105.900 121.849  81.655  0.00  0.00    +0.000 A 
ATOM     11  C   UNL     1     105.411 122.773  80.711  0.00  0.00    +0.000 A 
ATOM     12  C   UNL     1     106.817 120.752  81.185  0.00  0.00    +0.000 C 
ATOM     13  C   UNL     1     106.015 120.978  84.039  0.00  0.00    +0.000 C 
ENDROOT
BRANCH   1  18
ATOM     14  C   UNL     1      99.382 130.267  83.498  0.00  0.00    +0.000 C 
ATOM     15  C   UNL     1     100.202 129.005  83.533  0.00  0.00    +0.000 A 
ATOM     16  C   UNL     1      99.657 127.763  83.144  0.00  0.00    +0.000 A 
ATOM     17  C   UNL     1     100.459 126.613  83.204  0.00  0.00    +0.000 A 
ATOM     18  C   UNL     1     101.796 126.706  83.600  0.00  0.00    +0.000 A 
ATOM     19  C   UNL     1     102.342 127.931  83.979  0.00  0.00    +0.000 A 
ATOM     20  C   UNL     1     101.545 129.075  83.941  0.00  0.00    +0.000 A 
ATOM     21  C   UNL     1      98.224 127.633  82.705  0.00  0.00    +0.000 C 
ENDBRANCH   1  18
TORSDOF 1
ENDMDL
