MODEL 1
REMARK VINA RESULT:      -5.2      0.000      0.000
REMARK  Name = *****
REMARK  2 active torsions:
REMARK  status: ('A' for Active; 'I' for Inactive)
REMARK    1  A    between atoms: C_5  and  C_7
REMARK    2  A    between atoms: C_8  and  C_9
REMARK                            x       y       z     vdW  Elec       q    Type
REMARK                         _______ _______ _______ _____ _____    ______ ____
ROOT
ATOM      1  C   UNL     1     102.055 125.931  82.309  0.00  0.00    +0.000 C 
ATOM      2  C   UNL     1     102.907 126.008  81.275  0.00  0.00    +0.000 C 
ATOM      3  F   UNL     1     102.880 127.109  80.485  0.00  0.00    +0.000 F 
ENDROOT
BRANCH   1   8
ATOM      4  C   UNL     1      98.728 127.692  82.683  0.00  0.00    +0.000 A 
ATOM      5  C   UNL     1      99.096 128.871  83.326  0.00  0.00    +0.000 A 
ATOM      6  C   UNL     1     100.435 129.102  83.637  0.00  0.00    +0.000 A 
ATOM      7  C   UNL     1     101.410 128.156  83.301  0.00  0.00    +0.000 A 
ATOM      8  C   UNL     1     101.057 126.965  82.640  0.00  0.00    +0.000 A 
ATOM      9  C   UNL     1      99.699 126.744  82.348  0.00  0.00    +0.000 A 
ATOM     10 CL   UNL     1     103.050 128.522  83.719  0.00  0.00    +0.000 Cl
ENDBRANCH   1   8
BRANCH   2  11
ATOM     11  C   UNL     1     103.929 124.998  80.940  0.00  0.00    +0.000 A 
ATOM     12  C   UNL     1     104.745 125.078  79.798  0.00  0.00    +0.000 A 
ATOM     13  C   UNL     1     105.709 124.099  79.538  0.00  0.00    +0.000 A 
ATOM     14  C   UNL     1     105.867 123.038  80.420  0.00  0.00    +0.000 A 
ATOM     15  C   UNL     1     105.083 122.940  81.561  0.00  0.00    +0.000 A 
ATOM     16  C   UNL     1     104.120 123.918  81.821  0.00  0.00    +0.000 A 
ATOM     17  F   UNL     1     106.792 122.103  80.170  0.00  0.00    +0.000 F 
ENDBRANCH   2  11
TORSDOF 2
ENDMDL
