REMARK  Name = *****
REMARK  2 active torsions:
REMARK  status: ('A' for Active; 'I' for Inactive)
REMARK    1  A    between atoms: C_1  and  C_2
REMARK    2  A    between atoms: C_9  and  C_11
REMARK                            x       y       z     vdW  Elec       q    Type
REMARK                         _______ _______ _______ _____ _____    ______ ____
ROOT
ATOM      1  C   UNL     1       0.945   0.009  -0.103  0.00  0.00    +0.000 C 
ATOM      2  C   UNL     1       2.445  -0.061  -0.062  0.00  0.00    +0.000 C 
ATOM      3  C   UNL     1       3.213   1.099  -0.105  0.00  0.00    +0.000 C 
ATOM      4  N   UNL     1       4.704   0.934  -0.061  0.00  0.00    +0.000 N 
ATOM      5  C   UNL     1       5.253  -0.272   0.014  0.00  0.00    +0.000 C 
ATOM      6  C   UNL     1       4.472  -1.435   0.050  0.00  0.00    +0.000 C 
ATOM      7  C   UNL     1       3.078  -1.306   0.010  0.00  0.00    +0.000 C 
ATOM      8  S   UNL     1       6.971  -0.119   0.056  0.00  0.00    +0.000 S 
ATOM      9  C   UNL     1       6.902   1.600  -0.044  0.00  0.00    +0.000 C 
ATOM     10  C   UNL     1       5.581   1.997  -0.095  0.00  0.00    +0.000 C 
ENDROOT
BRANCH   9  11
ATOM     11  C   UNL     1       8.121   2.419  -0.039  0.00  0.00    +0.000 A 
ATOM     12  C   UNL     1       9.283   2.016  -0.717  0.00  0.00    +0.000 A 
ATOM     13  C   UNL     1      10.428   2.817  -0.713  0.00  0.00    +0.000 A 
ATOM     14  C   UNL     1      10.428   4.033  -0.036  0.00  0.00    +0.000 A 
ATOM     15  C   UNL     1       9.284   4.450   0.638  0.00  0.00    +0.000 A 
ATOM     16  C   UNL     1       8.138   3.650   0.637  0.00  0.00    +0.000 A 
ENDBRANCH   9  11
TORSDOF 1
