MODEL 1
REMARK VINA RESULT:      -4.7      0.000      0.000
REMARK  Name = *****
REMARK  4 active torsions:
REMARK  status: ('A' for Active; 'I' for Inactive)
REMARK    1  A    between atoms: C_1  and  C_2
REMARK    2  A    between atoms: C_7  and  C_8
REMARK    3  A    between atoms: C_8  and  N_9
REMARK    4  A    between atoms: N_9  and  C_10
REMARK                            x       y       z     vdW  Elec       q    Type
REMARK                         _______ _______ _______ _____ _____    ______ ____
ROOT
ATOM      1  N   UNL     1     103.512 127.568  82.361  0.00  0.00    +0.000 N 
ATOM      2  O   UNL     1     103.976 128.605  81.785  0.00  0.00    +0.000 OA
ENDROOT
BRANCH   1   3
ATOM      3  C   UNL     1     103.875 126.249  81.857  0.00  0.00    +0.000 A 
ATOM      4  C   UNL     1     103.962 125.185  82.764  0.00  0.00    +0.000 A 
ATOM      5  C   UNL     1     104.291 123.909  82.305  0.00  0.00    +0.000 A 
ATOM      6  C   UNL     1     104.522 123.699  80.945  0.00  0.00    +0.000 A 
ATOM      7  C   UNL     1     104.420 124.754  80.036  0.00  0.00    +0.000 A 
ATOM      8  C   UNL     1     104.088 126.034  80.488  0.00  0.00    +0.000 A 
ATOM      9 CL   UNL     1     104.929 122.126  80.380  0.00  0.00    +0.000 Cl
ENDBRANCH   1   3
BRANCH   1  10
ATOM     10  C   UNL     1     102.662 127.629  83.361  0.00  0.00    +0.000 C 
BRANCH  10  17
ATOM     11  C   UNL     1     101.185 130.095  84.375  0.00  0.00    +0.000 C 
ATOM     12  C   UNL     1     100.523 128.952  83.661  0.00  0.00    +0.000 A 
ATOM     13  C   UNL     1      99.137 129.017  83.436  0.00  0.00    +0.000 A 
ATOM     14  C   UNL     1      98.461 127.974  82.799  0.00  0.00    +0.000 A 
ATOM     15  C   UNL     1      99.159 126.848  82.372  0.00  0.00    +0.000 A 
ATOM     16  C   UNL     1     100.538 126.771  82.569  0.00  0.00    +0.000 A 
ATOM     17  C   UNL     1     101.220 127.830  83.182  0.00  0.00    +0.000 A 
ENDBRANCH  10  17
ENDBRANCH   1  10
TORSDOF 3
ENDMDL
