MODEL 1
REMARK VINA RESULT:      -4.2      0.000      0.000
REMARK  Name = *****
REMARK  4 active torsions:
REMARK  status: ('A' for Active; 'I' for Inactive)
REMARK    1  A    between atoms: C_4  and  C_7
REMARK    2  A    between atoms: C_7  and  C_8
REMARK    3  A    between atoms: C_8  and  O_10
REMARK    4  A    between atoms: O_10  and  C_11
REMARK                            x       y       z     vdW  Elec       q    Type
REMARK                         _______ _______ _______ _____ _____    ______ ____
ROOT
ATOM      1  C   UNL     1      87.615  69.634  88.407  0.00  0.00    +0.000 C 
ATOM      2  S   UNL     1      86.602  68.315  88.531  0.00  0.00    +0.000 S 
ENDROOT
BRANCH   1   3
ATOM      3  C   UNL     1      87.222  71.045  88.765  0.00  0.00    +0.000 C 
BRANCH   3   7
ATOM      4  C   UNL     1      84.038  72.501  86.244  0.00  0.00    +0.000 A 
ATOM      5  C   UNL     1      83.906  72.546  87.630  0.00  0.00    +0.000 A 
ATOM      6  C   UNL     1      84.939  72.083  88.447  0.00  0.00    +0.000 A 
ATOM      7  C   UNL     1      86.117  71.575  87.882  0.00  0.00    +0.000 A 
ATOM      8  C   UNL     1      86.236  71.528  86.486  0.00  0.00    +0.000 A 
ATOM      9  C   UNL     1      85.203  71.992  85.672  0.00  0.00    +0.000 A 
ENDBRANCH   3   7
ENDBRANCH   1   3
BRANCH   1  10
ATOM     10  O   UNL     1      88.950  69.584  87.992  0.00  0.00    +0.000 OA
BRANCH  10  11
ATOM     11  C   UNL     1      89.330  69.605  86.635  0.00  0.00    +0.000 A 
ATOM     12  C   UNL     1      89.736  70.808  86.061  0.00  0.00    +0.000 A 
ATOM     13  C   UNL     1      90.156  70.813  84.733  0.00  0.00    +0.000 A 
ATOM     14  C   UNL     1      90.180  69.621  84.004  0.00  0.00    +0.000 A 
ATOM     15  C   UNL     1      89.791  68.420  84.601  0.00  0.00    +0.000 A 
ATOM     16  C   UNL     1      89.369  68.406  85.930  0.00  0.00    +0.000 A 
ENDBRANCH  10  11
ENDBRANCH   1  10
TORSDOF 4
ENDMDL
