MODEL 1
REMARK VINA RESULT:      -4.7      0.000      0.000
REMARK  Name = *****
REMARK  6 active torsions:
REMARK  status: ('A' for Active; 'I' for Inactive)
REMARK    1  A    between atoms: C_1  and  C_2
REMARK    2  A    between atoms: C_4  and  C_19
REMARK    3  A    between atoms: C_5  and  C_9
REMARK    4  A    between atoms: C_6  and  C_8
REMARK    5  A    between atoms: C_9  and  C_10
REMARK    6  A    between atoms: C_10  and  C_12
REMARK                            x       y       z     vdW  Elec       q    Type
REMARK                         _______ _______ _______ _____ _____    ______ ____
ROOT
ATOM      1  C   UNL     1      89.821  70.545  85.304  0.00  0.00    +0.000 C 
ENDROOT
BRANCH   1   6
ATOM      2  C   UNL     1      84.404  72.090  86.890  0.00  0.00    +0.000 C 
ATOM      3  C   UNL     1      85.786  71.677  86.478  0.00  0.00    +0.000 A 
ATOM      4  C   UNL     1      86.239  71.912  85.179  0.00  0.00    +0.000 A 
ATOM      5  C   UNL     1      87.544  71.567  84.787  0.00  0.00    +0.000 A 
ATOM      6  C   UNL     1      88.416  70.955  85.720  0.00  0.00    +0.000 A 
ATOM      7  C   UNL     1      87.974  70.757  87.050  0.00  0.00    +0.000 A 
ATOM      8  C   UNL     1      86.663  71.115  87.407  0.00  0.00    +0.000 A 
ATOM      9  C   UNL     1      88.863  70.157  88.108  0.00  0.00    +0.000 C 
ATOM     10  C   UNL     1      87.959  71.851  83.368  0.00  0.00    +0.000 C 
ENDBRANCH   1   6
BRANCH   1  11
ATOM     11  C   UNL     1      89.887  69.260  84.492  0.00  0.00    +0.000 C 
ATOM     12  O   UNL     1      90.398  69.188  83.375  0.00  0.00    +0.000 OA
BRANCH  11  13
ATOM     13  C   UNL     1      89.308  68.015  85.087  0.00  0.00    +0.000 A 
ATOM     14  C   UNL     1      88.063  67.509  84.707  0.00  0.00    +0.000 A 
ATOM     15  C   UNL     1      87.584  66.344  85.303  0.00  0.00    +0.000 A 
ATOM     16  C   UNL     1      88.319  65.672  86.273  0.00  0.00    +0.000 A 
ATOM     17  C   UNL     1      89.559  66.171  86.660  0.00  0.00    +0.000 A 
ATOM     18  C   UNL     1      90.051  67.339  86.071  0.00  0.00    +0.000 A 
ATOM     19  F   UNL     1      86.390  65.864  84.933  0.00  0.00    +0.000 F 
ENDBRANCH  11  13
ENDBRANCH   1  11
TORSDOF 3
ENDMDL
