MODEL 1
REMARK VINA RESULT:      -4.6      0.000      0.000
REMARK  Name = *****
REMARK  3 active torsions:
REMARK  status: ('A' for Active; 'I' for Inactive)
REMARK    1  A    between atoms: C_2  and  C_3
REMARK    2  A    between atoms: C_2  and  C_10
REMARK    3  A    between atoms: C_3  and  C_4
REMARK                            x       y       z     vdW  Elec       q    Type
REMARK                         _______ _______ _______ _____ _____    ______ ____
ROOT
ATOM      1  C   UNL     1      88.321  70.596  89.460  0.00  0.00    +0.000 C 
ATOM      2  C   UNL     1      88.092  70.689  88.141  0.00  0.00    +0.000 C 
ENDROOT
BRANCH   2   3
ATOM      3  C   UNL     1      86.817  71.256  87.671  0.00  0.00    +0.000 A 
ATOM      4  C   UNL     1      85.846  71.666  88.594  0.00  0.00    +0.000 A 
ATOM      5  C   UNL     1      84.633  72.199  88.153  0.00  0.00    +0.000 A 
ATOM      6  C   UNL     1      84.381  72.322  86.787  0.00  0.00    +0.000 A 
ATOM      7  C   UNL     1      85.339  71.910  85.862  0.00  0.00    +0.000 A 
ATOM      8  C   UNL     1      86.552  71.376  86.302  0.00  0.00    +0.000 A 
ENDBRANCH   2   3
BRANCH   2   9
ATOM      9  C   UNL     1      89.092  70.270  87.090  0.00  0.00    +0.000 C 
BRANCH   9  10
ATOM     10  C   UNL     1      89.122  68.810  86.836  0.00  0.00    +0.000 C 
ATOM     11  C   UNL     1      89.975  67.937  86.004  0.00  0.00    +0.000 C 
ATOM     12  C   UNL     1      88.635  68.435  85.453  0.00  0.00    +0.000 C 
ATOM     13  C   UNL     1      88.071  67.777  86.713  0.00  0.00    +0.000 C 
ATOM     14  C   UNL     1      88.563  66.384  86.986  0.00  0.00    +0.000 C 
ATOM     15  C   UNL     1      89.988  66.504  86.457  0.00  0.00    +0.000 C 
ENDBRANCH   9  10
ENDBRANCH   2   9
TORSDOF 3
ENDMDL
