MODEL 1
REMARK VINA RESULT:      -4.8      0.000      0.000
REMARK  Name = *****
REMARK  3 active torsions:
REMARK  status: ('A' for Active; 'I' for Inactive)
REMARK    1  A    between atoms: C_4  and  C_7
REMARK    2  A    between atoms: C_8  and  C_9
REMARK    3  A    between atoms: C_12  and  C_15
REMARK                            x       y       z     vdW  Elec       q    Type
REMARK                         _______ _______ _______ _____ _____    ______ ____
ROOT
ATOM      1  C   UNL     1     103.255 126.079  80.983  0.00  0.00    +0.000 C 
ATOM      2  C   UNL     1     102.171 125.868  81.746  0.00  0.00    +0.000 C 
ENDROOT
BRANCH   1   6
ATOM      3  C   UNL     1     106.384 123.265  79.904  0.00  0.00    +0.000 C 
ATOM      4  C   UNL     1     105.107 122.719  80.535  0.00  0.00    +0.000 C 
ATOM      5  C   UNL     1     104.301 123.820  81.222  0.00  0.00    +0.000 C 
ATOM      6  C   UNL     1     103.995 124.979  80.261  0.00  0.00    +0.000 C 
ATOM      7  C   UNL     1     105.288 125.524  79.636  0.00  0.00    +0.000 C 
ATOM      8  C   UNL     1     106.090 124.420  78.951  0.00  0.00    +0.000 C 
ENDBRANCH   1   6
BRANCH   2   9
ATOM      9  C   UNL     1     101.445 126.927  82.461  0.00  0.00    +0.000 A 
ATOM     10  C   UNL     1     102.102 128.005  83.070  0.00  0.00    +0.000 A 
ATOM     11  C   UNL     1     101.375 129.010  83.714  0.00  0.00    +0.000 A 
ATOM     12  C   UNL     1      99.982 128.948  83.743  0.00  0.00    +0.000 A 
ATOM     13  C   UNL     1      99.310 127.889  83.128  0.00  0.00    +0.000 A 
ATOM     14  C   UNL     1     100.043 126.888  82.485  0.00  0.00    +0.000 A 
BRANCH  12  15
ATOM     15  C   UNL     1      99.203 130.005  84.421  0.00  0.00    +0.000 C 
ATOM     16  O   UNL     1      99.280 131.182  84.096  0.00  0.00    +0.000 OA
ENDBRANCH  12  15
ENDBRANCH   2   9
TORSDOF 3
ENDMDL
