MODEL 1
REMARK VINA RESULT:      -4.1      0.000      0.000
REMARK  Name = *****
REMARK  3 active torsions:
REMARK  status: ('A' for Active; 'I' for Inactive)
REMARK    1  A    between atoms: C_4  and  C_6
REMARK    2  A    between atoms: C_6  and  C_7
REMARK    3  A    between atoms: C_8  and  C_9
REMARK                            x       y       z     vdW  Elec       q    Type
REMARK                         _______ _______ _______ _____ _____    ______ ____
ROOT
ATOM      1  C   UNL     1     102.911 125.549  82.965  0.00  0.00    +0.000 C 
ATOM      2  C   UNL     1     101.846 125.947  82.250  0.00  0.00    +0.000 C 
ENDROOT
BRANCH   2   3
ATOM      3  C   UNL     1     100.906 126.996  82.673  0.00  0.00    +0.000 A 
ATOM      4  C   UNL     1     101.328 128.171  83.307  0.00  0.00    +0.000 A 
ATOM      5  C   UNL     1     100.404 129.159  83.663  0.00  0.00    +0.000 A 
ATOM      6  C   UNL     1      99.052 128.985  83.381  0.00  0.00    +0.000 A 
ATOM      7  C   UNL     1      98.621 127.827  82.737  0.00  0.00    +0.000 A 
ATOM      8  C   UNL     1      99.544 126.840  82.379  0.00  0.00    +0.000 A 
ENDBRANCH   2   3
BRANCH   1   9
ATOM      9  C   UNL     1     103.860 124.461  82.523  0.00  0.00    +0.000 C 
BRANCH   9  13
ATOM     10  C   UNL     1     106.661 124.972  80.227  0.00  0.00    +0.000 C 
ATOM     11  C   UNL     1     106.389 123.605  79.634  0.00  0.00    +0.000 C 
ATOM     12  S   UNL     1     105.038 122.826  80.562  0.00  0.00    +0.000 S 
ATOM     13  C   UNL     1     104.144 124.360  81.009  0.00  0.00    +0.000 C 
ATOM     14  S   UNL     1     105.063 125.806  80.377  0.00  0.00    +0.000 S 
ENDBRANCH   9  13
ENDBRANCH   1   9
TORSDOF 3
ENDMDL
