MODEL 1
REMARK VINA RESULT:      -3.7      0.000      0.000
REMARK  Name = *****
REMARK  2 active torsions:
REMARK  status: ('A' for Active; 'I' for Inactive)
REMARK    1  A    between atoms: N_4  and  C_5
REMARK    2  A    between atoms: C_5  and  C_6
REMARK                            x       y       z     vdW  Elec       q    Type
REMARK                         _______ _______ _______ _____ _____    ______ ____
ROOT
ATOM      1  C   UNL     1     103.491 125.407  81.841  0.00  0.00    +0.000 A 
ATOM      2  C   UNL     1     103.877 124.124  82.271  0.00  0.00    +0.000 A 
ATOM      3  C   UNL     1     104.690 123.311  81.476  0.00  0.00    +0.000 A 
ATOM      4  C   UNL     1     105.131 123.762  80.236  0.00  0.00    +0.000 A 
ATOM      5  C   UNL     1     104.755 125.027  79.788  0.00  0.00    +0.000 A 
ATOM      6  C   UNL     1     103.940 125.842  80.582  0.00  0.00    +0.000 A 
ATOM      7 CL   UNL     1     103.511 127.396  79.952  0.00  0.00    +0.000 Cl
ENDROOT
BRANCH   1   8
ATOM      8  C   UNL     1     102.603 126.289  82.697  0.00  0.00    +0.000 C 
BRANCH   8  12
ATOM      9  C   UNL     1      98.921 128.234  84.095  0.00  0.00    +0.000 C 
ATOM     10  S   UNL     1     100.659 128.558  83.668  0.00  0.00    +0.000 S 
ATOM     11  C   UNL     1     100.420 127.107  82.802  0.00  0.00    +0.000 C 
ATOM     12  N   UNL     1     101.174 126.171  82.381  0.00  0.00    +0.000 NA
ATOM     13  S   UNL     1      98.732 127.267  82.571  0.00  0.00    +0.000 S 
ENDBRANCH   8  12
ENDBRANCH   1   8
TORSDOF 2
ENDMDL
