REMARK  Name = *****
REMARK  3 active torsions:
REMARK  status: ('A' for Active; 'I' for Inactive)
REMARK    1  A    between atoms: C_4  and  C_7
REMARK    2  A    between atoms: C_8  and  C_9
REMARK    3  A    between atoms: C_9  and  C_10
REMARK                            x       y       z     vdW  Elec       q    Type
REMARK                         _______ _______ _______ _____ _____    ______ ____
ROOT
ATOM      1  C   UNL     1      -2.810   0.414  -0.099  0.00  0.00    +0.000 C 
ATOM      2  C   UNL     1      -3.752  -0.499  -0.391  0.00  0.00    +0.000 C 
ENDROOT
BRANCH   1   6
ATOM      3  C   UNL     1       1.393  -0.313   0.235  0.00  0.00    +0.000 A 
ATOM      4  C   UNL     1       0.648  -1.022  -0.705  0.00  0.00    +0.000 A 
ATOM      5  C   UNL     1      -0.727  -0.801  -0.821  0.00  0.00    +0.000 A 
ATOM      6  C   UNL     1      -1.374   0.124   0.010  0.00  0.00    +0.000 A 
ATOM      7  C   UNL     1      -0.610   0.842   0.939  0.00  0.00    +0.000 A 
ATOM      8  C   UNL     1       0.765   0.621   1.056  0.00  0.00    +0.000 A 
ENDBRANCH   1   6
BRANCH   2   9
ATOM      9  C   UNL     1      -5.226  -0.198  -0.492  0.00  0.00    +0.000 C 
ATOM     10  F   UNL     1      -5.452   1.139  -0.308  0.00  0.00    +0.000 F 
BRANCH   9  11
ATOM     11  C   UNL     1      -6.039  -1.043   0.467  0.00  0.00    +0.000 A 
ATOM     12  C   UNL     1      -6.356  -0.556   1.744  0.00  0.00    +0.000 A 
ATOM     13  C   UNL     1      -7.092  -1.335   2.638  0.00  0.00    +0.000 A 
ATOM     14  C   UNL     1      -7.515  -2.610   2.267  0.00  0.00    +0.000 A 
ATOM     15  C   UNL     1      -7.202  -3.108   1.003  0.00  0.00    +0.000 A 
ATOM     16  C   UNL     1      -6.466  -2.331   0.107  0.00  0.00    +0.000 A 
ENDBRANCH   9  11
ENDBRANCH   2   9
TORSDOF 3
