REMARK  Name = *****
REMARK  3 active torsions:
REMARK  status: ('A' for Active; 'I' for Inactive)
REMARK    1  A    between atoms: C_4  and  S_7
REMARK    2  A    between atoms: S_7  and  C_8
REMARK    3  A    between atoms: C_8  and  C_10
REMARK                            x       y       z     vdW  Elec       q    Type
REMARK                         _______ _______ _______ _____ _____    ______ ____
ROOT
ATOM      1  C   UNL     1      -3.979  -0.696  -0.293  0.00  0.00    +0.000 C 
ATOM      2  O   UNL     1      -3.371  -1.546   0.348  0.00  0.00    +0.000 OA
ENDROOT
BRANCH   1   3
ATOM      3  C   UNL     1      -5.435  -0.880  -0.586  0.00  0.00    +0.000 A 
ATOM      4  C   UNL     1      -6.191  -0.000  -1.374  0.00  0.00    +0.000 A 
ATOM      5  C   UNL     1      -7.546  -0.255  -1.600  0.00  0.00    +0.000 A 
ATOM      6  C   UNL     1      -8.164  -1.378  -1.053  0.00  0.00    +0.000 A 
ATOM      7  C   UNL     1      -7.422  -2.259  -0.271  0.00  0.00    +0.000 A 
ATOM      8  C   UNL     1      -6.066  -2.012  -0.040  0.00  0.00    +0.000 A 
ATOM      9 BR   UNL     1      -8.556   0.938  -2.666  0.00  0.00    +0.000 Br
ENDBRANCH   1   3
BRANCH   1  10
ATOM     10  S   UNL     1      -3.191   0.772  -0.866  0.00  0.00    +0.000 S 
BRANCH  10  14
ATOM     11  C   UNL     1       1.255  -0.331  -0.803  0.00  0.00    +0.000 A 
ATOM     12  C   UNL     1       0.389  -0.999  -1.667  0.00  0.00    +0.000 A 
ATOM     13  C   UNL     1      -0.969  -0.675  -1.684  0.00  0.00    +0.000 A 
ATOM     14  C   UNL     1      -1.470   0.314  -0.830  0.00  0.00    +0.000 A 
ATOM     15  C   UNL     1      -0.594   0.987   0.027  0.00  0.00    +0.000 A 
ATOM     16  C   UNL     1       0.765   0.662   0.043  0.00  0.00    +0.000 A 
ENDBRANCH  10  14
ENDBRANCH   1  10
TORSDOF 3
