MODEL 1
REMARK VINA RESULT:      -5.4      0.000      0.000
REMARK  Name = *****
REMARK  3 active torsions:
REMARK  status: ('A' for Active; 'I' for Inactive)
REMARK    1  A    between atoms: C_1  and  C_2
REMARK    2  A    between atoms: C_11  and  C_12
REMARK    3  A    between atoms: C_12  and  C_13
REMARK                            x       y       z     vdW  Elec       q    Type
REMARK                         _______ _______ _______ _____ _____    ______ ____
ROOT
ATOM      1  C   UNL     1     102.133 131.187  85.201  0.00  0.00    +0.000 C 
ATOM      2  C   UNL     1     101.284 130.160  84.510  0.00  0.00    +0.000 A 
ATOM      3  C   UNL     1     101.886 129.092  83.823  0.00  0.00    +0.000 A 
ATOM      4  C   UNL     1     101.072 128.140  83.227  0.00  0.00    +0.000 A 
ATOM      5  C   UNL     1      99.700 128.246  83.310  0.00  0.00    +0.000 A 
ATOM      6  C   UNL     1      99.070 129.274  83.989  0.00  0.00    +0.000 A 
ATOM      7  C   UNL     1      99.877 130.235  84.600  0.00  0.00    +0.000 A 
ATOM      8  C   UNL     1      99.094 127.132  82.599  0.00  0.00    +0.000 C 
ATOM      9  O   UNL     1      97.907 126.904  82.482  0.00  0.00    +0.000 OA
ATOM     10  O   UNL     1     100.122 126.393  82.089  0.00  0.00    +0.000 OA
ATOM     11  C   UNL     1     101.426 126.931  82.440  0.00  0.00    +0.000 C 
ENDROOT
BRANCH  11  12
ATOM     12  C   UNL     1     102.215 125.893  83.246  0.00  0.00    +0.000 C 
BRANCH  12  13
ATOM     13  C   UNL     1     103.164 125.099  82.377  0.00  0.00    +0.000 A 
ATOM     14  C   UNL     1     103.907 124.040  82.917  0.00  0.00    +0.000 A 
ATOM     15  C   UNL     1     104.794 123.319  82.116  0.00  0.00    +0.000 A 
ATOM     16  C   UNL     1     104.950 123.651  80.772  0.00  0.00    +0.000 A 
ATOM     17  C   UNL     1     104.220 124.705  80.227  0.00  0.00    +0.000 A 
ATOM     18  C   UNL     1     103.332 125.427  81.025  0.00  0.00    +0.000 A 
ENDBRANCH  12  13
ENDBRANCH  11  12
TORSDOF 2
ENDMDL
