MODEL 1
REMARK VINA RESULT:      -4.6      0.000      0.000
REMARK  Name = *****
REMARK  4 active torsions:
REMARK  status: ('A' for Active; 'I' for Inactive)
REMARK    1  A    between atoms: C_1  and  C_2
REMARK    2  A    between atoms: C_7  and  C_8
REMARK    3  A    between atoms: N_9  and  C_10
REMARK    4  A    between atoms: C_15  and  C_16
REMARK                            x       y       z     vdW  Elec       q    Type
REMARK                         _______ _______ _______ _____ _____    ______ ____
ROOT
ATOM      1  C   UNL     1     102.314 126.282  81.896  0.00  0.00    +0.000 C 
ATOM      2  N   UNL     1     102.842 125.264  82.505  0.00  0.00    +0.000 NA
ENDROOT
BRANCH   1   9
ATOM      3  C   UNL     1     103.016 128.744  83.431  0.00  0.00    +0.000 C 
ATOM      4  C   UNL     1     101.597 128.280  83.250  0.00  0.00    +0.000 A 
ATOM      5  C   UNL     1     100.559 129.034  83.823  0.00  0.00    +0.000 A 
ATOM      6  C   UNL     1      99.225 128.643  83.681  0.00  0.00    +0.000 A 
ATOM      7  C   UNL     1      98.908 127.492  82.966  0.00  0.00    +0.000 A 
ATOM      8  C   UNL     1      99.924 126.731  82.390  0.00  0.00    +0.000 A 
ATOM      9  C   UNL     1     101.266 127.118  82.527  0.00  0.00    +0.000 A 
ENDBRANCH   1   9
BRANCH   2  10
ATOM     10  C   UNL     1     103.821 124.561  81.782  0.00  0.00    +0.000 A 
ATOM     11  C   UNL     1     104.114 124.950  80.468  0.00  0.00    +0.000 A 
ATOM     12  C   UNL     1     105.083 124.276  79.725  0.00  0.00    +0.000 A 
ATOM     13  C   UNL     1     105.774 123.209  80.295  0.00  0.00    +0.000 A 
ATOM     14  C   UNL     1     105.504 122.824  81.609  0.00  0.00    +0.000 A 
ATOM     15  C   UNL     1     104.536 123.501  82.367  0.00  0.00    +0.000 A 
ATOM     16  C   UNL     1     104.262 123.082  83.783  0.00  0.00    +0.000 C 
ENDBRANCH   2  10
TORSDOF 2
ENDMDL
