REMARK  Name = *****
REMARK  6 active torsions:
REMARK  status: ('A' for Active; 'I' for Inactive)
REMARK    1  A    between atoms: C_1  and  C_2
REMARK    2  A    between atoms: C_7  and  C_8
REMARK    3  A    between atoms: C_8  and  S_10
REMARK    4  A    between atoms: S_10  and  C_11
REMARK    5  A    between atoms: C_16  and  C_17
REMARK    6  A    between atoms: C_17  and  C_19
REMARK                            x       y       z     vdW  Elec       q    Type
REMARK                         _______ _______ _______ _____ _____    ______ ____
ROOT
ATOM      1  S   UNL     1       1.938  -4.270  -1.674  0.00  0.00    +0.000 S 
ENDROOT
BRANCH   1   2
ATOM      2  C   UNL     1       2.791  -5.124  -0.355  0.00  0.00    +0.000 A 
ATOM      3  C   UNL     1       2.638  -6.516  -0.278  0.00  0.00    +0.000 A 
ATOM      4  C   UNL     1       3.231  -7.246   0.756  0.00  0.00    +0.000 A 
ATOM      5  C   UNL     1       3.980  -6.594   1.732  0.00  0.00    +0.000 A 
ATOM      6  C   UNL     1       4.148  -5.212   1.667  0.00  0.00    +0.000 A 
ATOM      7  C   UNL     1       3.573  -4.480   0.617  0.00  0.00    +0.000 A 
BRANCH   7   8
ATOM      8  C   UNL     1       3.838  -3.024   0.611  0.00  0.00    +0.000 C 
ATOM      9  O   UNL     1       3.543  -2.353   1.596  0.00  0.00    +0.000 OA
ATOM     10  C   UNL     1       4.535  -2.429  -0.583  0.00  0.00    +0.000 C 
ENDBRANCH   7   8
ENDBRANCH   1   2
BRANCH   1  11
ATOM     11  C   UNL     1       0.476  -3.763  -0.826  0.00  0.00    +0.000 C 
ATOM     12  O   UNL     1      -0.050  -4.450   0.038  0.00  0.00    +0.000 OA
BRANCH  11  19
ATOM     13  C   UNL     1      -0.196  -1.742   1.237  0.00  0.00    +0.000 C 
ATOM     14  C   UNL     1      -0.400  -1.484  -0.231  0.00  0.00    +0.000 A 
ATOM     15  C   UNL     1      -0.956  -0.260  -0.637  0.00  0.00    +0.000 A 
ATOM     16  C   UNL     1      -1.176   0.013  -1.989  0.00  0.00    +0.000 A 
ATOM     17  C   UNL     1      -0.855  -0.936  -2.955  0.00  0.00    +0.000 A 
ATOM     18  C   UNL     1      -0.311  -2.162  -2.572  0.00  0.00    +0.000 A 
ATOM     19  C   UNL     1      -0.078  -2.440  -1.215  0.00  0.00    +0.000 A 
ENDBRANCH  11  19
ENDBRANCH   1  11
TORSDOF 4
