MODEL 1
REMARK VINA RESULT:      -4.7      0.000      0.000
REMARK  Name = *****
REMARK  5 active torsions:
REMARK  status: ('A' for Active; 'I' for Inactive)
REMARK    1  A    between atoms: C_1  and  C_2
REMARK    2  A    between atoms: C_7  and  C_8
REMARK    3  A    between atoms: C_8  and  O_9
REMARK    4  A    between atoms: O_9  and  C_10
REMARK    5  A    between atoms: C_10  and  C_12
REMARK                            x       y       z     vdW  Elec       q    Type
REMARK                         _______ _______ _______ _____ _____    ______ ____
ROOT
ATOM      1  O   UNL     1     103.453 125.159  80.099  0.00  0.00    +0.000 OA
ENDROOT
BRANCH   1   2
ATOM      2  C   UNL     1     104.619 124.472  80.067  0.00  0.00    +0.000 C 
ATOM      3  O   UNL     1     105.583 124.713  79.356  0.00  0.00    +0.000 OA
BRANCH   2   4
ATOM      4  C   UNL     1     104.590 123.354  81.049  0.00  0.00    +0.000 A 
ATOM      5  C   UNL     1     104.441 123.670  82.407  0.00  0.00    +0.000 A 
ATOM      6  C   UNL     1     104.415 122.656  83.367  0.00  0.00    +0.000 A 
ATOM      7  C   UNL     1     104.540 121.324  82.977  0.00  0.00    +0.000 A 
ATOM      8  C   UNL     1     104.693 121.001  81.629  0.00  0.00    +0.000 A 
ATOM      9  C   UNL     1     104.718 122.013  80.665  0.00  0.00    +0.000 A 
ENDBRANCH   2   4
ENDBRANCH   1   2
BRANCH   1  10
ATOM     10  C   UNL     1     103.567 126.579  80.247  0.00  0.00    +0.000 C 
BRANCH  10  17
ATOM     11  C   UNL     1     104.479 128.936  81.891  0.00  0.00    +0.000 C 
ATOM     12  C   UNL     1     103.306 128.089  82.301  0.00  0.00    +0.000 A 
ATOM     13  C   UNL     1     102.615 128.407  83.481  0.00  0.00    +0.000 A 
ATOM     14  C   UNL     1     101.526 127.644  83.902  0.00  0.00    +0.000 A 
ATOM     15  C   UNL     1     101.111 126.553  83.149  0.00  0.00    +0.000 A 
ATOM     16  C   UNL     1     101.780 126.228  81.968  0.00  0.00    +0.000 A 
ATOM     17  C   UNL     1     102.871 126.995  81.523  0.00  0.00    +0.000 A 
ENDBRANCH  10  17
ENDBRANCH   1  10
TORSDOF 4
ENDMDL
