MODEL 1
REMARK VINA RESULT:      -4.6      0.000      0.000
REMARK  Name = *****
REMARK  3 active torsions:
REMARK  status: ('A' for Active; 'I' for Inactive)
REMARK    1  A    between atoms: C_4  and  C_7
REMARK    2  A    between atoms: C_7  and  C_8
REMARK    3  A    between atoms: C_9  and  C_10
REMARK                            x       y       z     vdW  Elec       q    Type
REMARK                         _______ _______ _______ _____ _____    ______ ____
ROOT
ATOM      1  C   UNL     1      89.128  68.781  87.020  0.00  0.00    +0.000 C 
ATOM      2  C   UNL     1      90.046  68.120  86.295  0.00  0.00    +0.000 C 
ENDROOT
BRANCH   2   3
ATOM      3  C   UNL     1      90.054  66.661  86.119  0.00  0.00    +0.000 A 
ATOM      4  C   UNL     1      91.072  66.004  85.416  0.00  0.00    +0.000 A 
ATOM      5  C   UNL     1      91.066  64.612  85.295  0.00  0.00    +0.000 A 
ATOM      6  C   UNL     1      90.048  63.864  85.884  0.00  0.00    +0.000 A 
ATOM      7  C   UNL     1      89.040  64.507  86.599  0.00  0.00    +0.000 A 
ATOM      8  C   UNL     1      89.047  65.898  86.721  0.00  0.00    +0.000 A 
ENDBRANCH   2   3
BRANCH   1   9
ATOM      9  C   UNL     1      89.120  70.273  87.198  0.00  0.00    +0.000 C 
BRANCH   9  13
ATOM     10  C   UNL     1      85.137  71.934  87.104  0.00  0.00    +0.000 A 
ATOM     11  C   UNL     1      85.823  71.699  85.913  0.00  0.00    +0.000 A 
ATOM     12  C   UNL     1      87.110  71.159  85.941  0.00  0.00    +0.000 A 
ATOM     13  C   UNL     1      87.722  70.844  87.162  0.00  0.00    +0.000 A 
ATOM     14  C   UNL     1      87.026  71.092  88.354  0.00  0.00    +0.000 A 
ATOM     15  C   UNL     1      85.740  71.633  88.323  0.00  0.00    +0.000 A 
ENDBRANCH   9  13
ENDBRANCH   1   9
TORSDOF 3
ENDMDL
