MODEL 1
REMARK VINA RESULT:      -4.6      0.000      0.000
REMARK  Name = *****
REMARK  3 active torsions:
REMARK  status: ('A' for Active; 'I' for Inactive)
REMARK    1  A    between atoms: C_3  and  O_8
REMARK    2  A    between atoms: O_8  and  C_9
REMARK    3  A    between atoms: C_9  and  C_10
REMARK                            x       y       z     vdW  Elec       q    Type
REMARK                         _______ _______ _______ _____ _____    ______ ____
ROOT
ATOM      1  O   UNL     1     102.545 126.972  83.157  0.00  0.00    +0.000 OA
ENDROOT
BRANCH   1   4
ATOM      2  C   UNL     1      98.992 127.180  82.461  0.00  0.00    +0.000 A 
ATOM      3  C   UNL     1     100.310 126.732  82.557  0.00  0.00    +0.000 A 
ATOM      4  C   UNL     1     101.300 127.537  83.129  0.00  0.00    +0.000 A 
ATOM      5  C   UNL     1     100.960 128.804  83.607  0.00  0.00    +0.000 A 
ATOM      6  C   UNL     1      99.640 129.248  83.509  0.00  0.00    +0.000 A 
ATOM      7  C   UNL     1      98.654 128.444  82.939  0.00  0.00    +0.000 A 
ATOM      8 CL   UNL     1      99.223 130.811  84.101  0.00  0.00    +0.000 Cl
ENDBRANCH   1   4
BRANCH   1   9
ATOM      9  C   UNL     1     102.623 125.579  83.457  0.00  0.00    +0.000 C 
BRANCH   9  10
ATOM     10  C   UNL     1     103.463 124.904  82.397  0.00  0.00    +0.000 A 
ATOM     11  C   UNL     1     104.207 123.755  82.712  0.00  0.00    +0.000 A 
ATOM     12  C   UNL     1     104.974 123.119  81.735  0.00  0.00    +0.000 A 
ATOM     13  C   UNL     1     104.998 123.631  80.444  0.00  0.00    +0.000 A 
ATOM     14  C   UNL     1     104.269 124.766  80.110  0.00  0.00    +0.000 A 
ATOM     15  C   UNL     1     103.501 125.404  81.085  0.00  0.00    +0.000 A 
ATOM     16  F   UNL     1     105.734 123.020  79.506  0.00  0.00    +0.000 F 
ENDBRANCH   9  10
ENDBRANCH   1   9
TORSDOF 3
ENDMDL
