MODEL 1
REMARK VINA RESULT:      -4.5      0.000      0.000
REMARK  Name = *****
REMARK  2 active torsions:
REMARK  status: ('A' for Active; 'I' for Inactive)
REMARK    1  A    between atoms: C_4  and  C_6
REMARK    2  A    between atoms: C_8  and  C_9
REMARK                            x       y       z     vdW  Elec       q    Type
REMARK                         _______ _______ _______ _____ _____    ______ ____
ROOT
ATOM      1  C   UNL     1      99.152 127.183  82.450  0.00  0.00    +0.000 C 
ATOM      2  C   UNL     1     100.342 126.700  82.667  0.00  0.00    +0.000 C 
ATOM      3  C   UNL     1     101.528 126.210  82.885  0.00  0.00    +0.000 C 
ENDROOT
BRANCH   3   4
ATOM      4  C   UNL     1     102.610 126.170  81.891  0.00  0.00    +0.000 A 
ATOM      5  C   UNL     1     103.283 124.987  81.553  0.00  0.00    +0.000 A 
ATOM      6  C   UNL     1     104.308 124.993  80.603  0.00  0.00    +0.000 A 
ATOM      7  C   UNL     1     104.673 126.183  79.978  0.00  0.00    +0.000 A 
ATOM      8  C   UNL     1     104.014 127.365  80.301  0.00  0.00    +0.000 A 
ATOM      9  C   UNL     1     102.989 127.359  81.251  0.00  0.00    +0.000 A 
ENDBRANCH   3   4
BRANCH   1  13
ATOM     10  C   UNL     1      98.895 128.934  85.579  0.00  0.00    +0.000 C 
ATOM     11  C   UNL     1      99.053 130.147  84.677  0.00  0.00    +0.000 C 
ATOM     12  C   UNL     1      99.426 129.524  83.341  0.00  0.00    +0.000 C 
ATOM     13  C   UNL     1      98.520 128.290  83.243  0.00  0.00    +0.000 C 
ATOM     14  C   UNL     1      98.218 127.887  84.698  0.00  0.00    +0.000 C 
ENDBRANCH   1  13
TORSDOF 2
ENDMDL
