MODEL 1
REMARK VINA RESULT:      -4.4      0.000      0.000
REMARK  Name = *****
REMARK  3 active torsions:
REMARK  status: ('A' for Active; 'I' for Inactive)
REMARK    1  A    between atoms: C_4  and  O_7
REMARK    2  A    between atoms: O_7  and  S_8
REMARK    3  A    between atoms: S_8  and  C_11
REMARK                            x       y       z     vdW  Elec       q    Type
REMARK                         _______ _______ _______ _____ _____    ______ ____
ROOT
ATOM      1  S   UNL     1     102.725 126.145  82.819  0.00  0.00    +0.000 S 
ATOM      2  O   UNL     1     102.466 125.111  83.794  0.00  0.00    +0.000 OA
ATOM      3  S   UNL     1     104.266 127.056  83.248  0.00  0.00    +0.000 S 
ENDROOT
BRANCH   1   4
ATOM      4  C   UNL     1     101.286 127.139  82.938  0.00  0.00    +0.000 A 
ATOM      5  C   UNL     1     101.345 128.393  83.550  0.00  0.00    +0.000 A 
ATOM      6  C   UNL     1     100.189 129.167  83.650  0.00  0.00    +0.000 A 
ATOM      7  C   UNL     1      98.980 128.684  83.143  0.00  0.00    +0.000 A 
ATOM      8  C   UNL     1      98.924 127.428  82.535  0.00  0.00    +0.000 A 
ATOM      9  C   UNL     1     100.078 126.650  82.432  0.00  0.00    +0.000 A 
ENDBRANCH   1   4
BRANCH   1  10
ATOM     10  O   UNL     1     102.789 125.485  81.345  0.00  0.00    +0.000 OA
BRANCH  10  14
ATOM     11  C   UNL     1     106.126 123.698  79.598  0.00  0.00    +0.000 A 
ATOM     12  C   UNL     1     105.456 123.006  80.606  0.00  0.00    +0.000 A 
ATOM     13  C   UNL     1     104.330 123.568  81.218  0.00  0.00    +0.000 A 
ATOM     14  C   UNL     1     103.869 124.821  80.822  0.00  0.00    +0.000 A 
ATOM     15  C   UNL     1     104.549 125.512  79.813  0.00  0.00    +0.000 A 
ATOM     16  C   UNL     1     105.673 124.954  79.201  0.00  0.00    +0.000 A 
ENDBRANCH  10  14
ENDBRANCH   1  10
TORSDOF 3
ENDMDL
