REMARK  Name = *****
REMARK  4 active torsions:
REMARK  status: ('A' for Active; 'I' for Inactive)
REMARK    1  A    between atoms: C_1  and  O_2
REMARK    2  A    between atoms: O_2  and  C_3
REMARK    3  A    between atoms: C_6  and  C_9
REMARK    4  A    between atoms: C_10  and  C_11
REMARK                            x       y       z     vdW  Elec       q    Type
REMARK                         _______ _______ _______ _____ _____    ______ ____
ROOT
ATOM      1  C   UNL     1       5.265   1.728  -4.418  0.00  0.00    +0.000 C 
ATOM      2  C   UNL     1       4.791   2.551  -5.370  0.00  0.00    +0.000 C 
ATOM      3 CL   UNL     1       3.168   3.166  -5.341  0.00  0.00    +0.000 Cl
ENDROOT
BRANCH   1   7
ATOM      4  C   UNL     1       3.091   0.324  -1.017  0.00  0.00    +0.000 A 
ATOM      5  C   UNL     1       2.882  -0.255  -2.269  0.00  0.00    +0.000 A 
ATOM      6  C   UNL     1       3.591   0.205  -3.384  0.00  0.00    +0.000 A 
ATOM      7  C   UNL     1       4.515   1.247  -3.256  0.00  0.00    +0.000 A 
ATOM      8  C   UNL     1       4.725   1.826  -2.003  0.00  0.00    +0.000 A 
ATOM      9  C   UNL     1       4.014   1.364  -0.892  0.00  0.00    +0.000 A 
BRANCH   4  11
ATOM     10  C   UNL     1       1.507  -1.076   0.071  0.00  0.00    +0.000 C 
ATOM     11  O   UNL     1       2.467  -0.029   0.148  0.00  0.00    +0.000 OA
ENDBRANCH   4  11
ENDBRANCH   1   7
BRANCH   2  12
ATOM     12  C   UNL     1       5.613   2.966  -6.497  0.00  0.00    +0.000 C 
ATOM     13  C   UNL     1       5.997   2.090  -7.445  0.00  0.00    +0.000 C 
ATOM     14  C   UNL     1       6.867   2.456  -8.612  0.00  0.00    +0.000 C 
ATOM     15  C   UNL     1       7.542   3.819  -8.458  0.00  0.00    +0.000 C 
ATOM     16  C   UNL     1       6.569   4.854  -7.905  0.00  0.00    +0.000 C 
ATOM     17  C   UNL     1       6.015   4.423  -6.544  0.00  0.00    +0.000 C 
ENDBRANCH   2  12
TORSDOF 3
