MODEL 1
REMARK VINA RESULT:      -3.8      0.000      0.000
REMARK  Name = *****
REMARK  3 active torsions:
REMARK  status: ('A' for Active; 'I' for Inactive)
REMARK    1  A    between atoms: C_4  and  C_7
REMARK    2  A    between atoms: C_7  and  O_8
REMARK    3  A    between atoms: O_8  and  C_9
REMARK                            x       y       z     vdW  Elec       q    Type
REMARK                         _______ _______ _______ _____ _____    ______ ____
ROOT
ATOM      1  C   UNL     1     102.729 127.615  82.874  0.00  0.00    +0.000 C 
ENDROOT
BRANCH   1   5
ATOM      2  C   UNL     1      98.431 127.928  83.047  0.00  0.00    +0.000 A 
ATOM      3  C   UNL     1      99.226 128.936  83.590  0.00  0.00    +0.000 A 
ATOM      4  C   UNL     1     100.617 128.836  83.533  0.00  0.00    +0.000 A 
ATOM      5  C   UNL     1     101.226 127.730  82.924  0.00  0.00    +0.000 A 
ATOM      6  C   UNL     1     100.417 126.714  82.397  0.00  0.00    +0.000 A 
ATOM      7  C   UNL     1      99.026 126.816  82.454  0.00  0.00    +0.000 A 
ENDBRANCH   1   5
BRANCH   1   8
ATOM      8  O   UNL     1     103.152 127.806  81.528  0.00  0.00    +0.000 OA
BRANCH   8   9
ATOM      9  C   UNL     1     103.830 126.799  80.963  0.00  0.00    +0.000 A 
ATOM     10  C   UNL     1     103.449 125.511  80.626  0.00  0.00    +0.000 A 
ATOM     11  C   UNL     1     104.503 124.753  80.034  0.00  0.00    +0.000 A 
ATOM     12  C   UNL     1     105.663 125.483  79.932  0.00  0.00    +0.000 A 
ATOM     13  S   UNL     1     105.476 127.065  80.547  0.00  0.00    +0.000 S 
ENDBRANCH   8   9
ENDBRANCH   1   8
TORSDOF 3
ENDMDL
