MODEL 1
REMARK VINA RESULT:      -4.9      0.000      0.000
REMARK  Name = *****
REMARK  5 active torsions:
REMARK  status: ('A' for Active; 'I' for Inactive)
REMARK    1  A    between atoms: C_1  and  C_2
REMARK    2  A    between atoms: C_5  and  C_8
REMARK    3  A    between atoms: C_9  and  C_10
REMARK    4  A    between atoms: C_13  and  O_16
REMARK    5  A    between atoms: O_16  and  C_17
REMARK                            x       y       z     vdW  Elec       q    Type
REMARK                         _______ _______ _______ _____ _____    ______ ____
ROOT
ATOM      1  C   UNL     1     100.349 127.821  83.103  0.00  0.00    +0.000 C 
ATOM      2  C   UNL     1     101.688 127.834  82.982  0.00  0.00    +0.000 C 
ATOM      3 CL   UNL     1      99.328 126.681  82.294  0.00  0.00    +0.000 Cl
ENDROOT
BRANCH   1   8
ATOM      4  C   UNL     1      97.687 131.609  86.586  0.00  0.00    +0.000 C 
ATOM      5  C   UNL     1      98.353 130.629  85.666  0.00  0.00    +0.000 A 
ATOM      6  C   UNL     1      98.207 129.253  85.872  0.00  0.00    +0.000 A 
ATOM      7  C   UNL     1      98.855 128.338  85.037  0.00  0.00    +0.000 A 
ATOM      8  C   UNL     1      99.669 128.784  83.986  0.00  0.00    +0.000 A 
ATOM      9  C   UNL     1      99.826 130.163  83.793  0.00  0.00    +0.000 A 
ATOM     10  C   UNL     1      99.178 131.077  84.629  0.00  0.00    +0.000 A 
ENDBRANCH   1   8
BRANCH   2  11
ATOM     11  C   UNL     1     102.497 126.935  82.151  0.00  0.00    +0.000 A 
ATOM     12  C   UNL     1     103.088 127.373  80.960  0.00  0.00    +0.000 A 
ATOM     13  C   UNL     1     103.879 126.507  80.196  0.00  0.00    +0.000 A 
ATOM     14  C   UNL     1     104.094 125.195  80.621  0.00  0.00    +0.000 A 
ATOM     15  C   UNL     1     103.517 124.763  81.817  0.00  0.00    +0.000 A 
ATOM     16  C   UNL     1     102.726 125.625  82.581  0.00  0.00    +0.000 A 
BRANCH  14  17
ATOM     17  O   UNL     1     104.843 124.252  79.973  0.00  0.00    +0.000 OA
ATOM     18  C   UNL     1     104.918 122.966  80.575  0.00  0.00    +0.000 C 
ENDBRANCH  14  17
ENDBRANCH   2  11
TORSDOF 3
ENDMDL
