REMARK  Name = *****
REMARK  4 active torsions:
REMARK  status: ('A' for Active; 'I' for Inactive)
REMARK    1  A    between atoms: C_1  and  C_2
REMARK    2  A    between atoms: C_4  and  O_8
REMARK    3  A    between atoms: O_8  and  C_9
REMARK    4  A    between atoms: C_9  and  C_11
REMARK                            x       y       z     vdW  Elec       q    Type
REMARK                         _______ _______ _______ _____ _____    ______ ____
ROOT
ATOM      1  C   UNL     1      -1.373   3.551  -0.497  0.00  0.00    +0.000 C 
ATOM      2  O   UNL     1      -0.461   3.604  -1.307  0.00  0.00    +0.000 OA
ENDROOT
BRANCH   1   3
ATOM      3  C   UNL     1      -2.237   4.722  -0.172  0.00  0.00    +0.000 A 
ATOM      4  C   UNL     1      -1.973   5.936  -0.827  0.00  0.00    +0.000 A 
ATOM      5  C   UNL     1      -2.750   7.066  -0.560  0.00  0.00    +0.000 A 
ATOM      6  C   UNL     1      -3.788   6.981   0.359  0.00  0.00    +0.000 A 
ATOM      7  C   UNL     1      -4.065   5.788   1.018  0.00  0.00    +0.000 A 
ATOM      8  C   UNL     1      -3.290   4.655   0.755  0.00  0.00    +0.000 A 
ATOM      9  F   UNL     1      -4.534   8.063   0.615  0.00  0.00    +0.000 F 
ENDBRANCH   1   3
BRANCH   1  10
ATOM     10  O   UNL     1      -1.777   2.456   0.244  0.00  0.00    +0.000 OA
BRANCH  10  14
ATOM     11  C   UNL     1       2.466  -0.078   0.571  0.00  0.00    +0.000 C 
ATOM     12  C   UNL     1       1.010   0.009   0.221  0.00  0.00    +0.000 A 
ATOM     13  C   UNL     1       0.318   1.217   0.373  0.00  0.00    +0.000 A 
ATOM     14  C   UNL     1      -1.039   1.280   0.054  0.00  0.00    +0.000 A 
ATOM     15  C   UNL     1      -1.734   0.149  -0.367  0.00  0.00    +0.000 A 
ATOM     16  C   UNL     1      -1.053  -1.059  -0.502  0.00  0.00    +0.000 A 
ATOM     17  C   UNL     1       0.312  -1.129  -0.208  0.00  0.00    +0.000 A 
ENDBRANCH  10  14
ENDBRANCH   1  10
TORSDOF 3
