MODEL 1
REMARK VINA RESULT:      -4.6      0.000      0.000
REMARK  Name = *****
REMARK  5 active torsions:
REMARK  status: ('A' for Active; 'I' for Inactive)
REMARK    1  A    between atoms: C_1  and  C_2
REMARK    2  A    between atoms: C_4  and  C_18
REMARK    3  A    between atoms: C_5  and  C_9
REMARK    4  A    between atoms: C_6  and  C_8
REMARK    5  A    between atoms: N_10  and  C_11
REMARK                            x       y       z     vdW  Elec       q    Type
REMARK                         _______ _______ _______ _____ _____    ______ ____
ROOT
ATOM      1  C   UNL     1      98.932 131.016  85.011  0.00  0.00    +0.000 C 
ATOM      2  C   UNL     1      99.784 129.948  84.393  0.00  0.00    +0.000 A 
ATOM      3  C   UNL     1      99.201 128.871  83.720  0.00  0.00    +0.000 A 
ATOM      4  C   UNL     1      99.985 127.876  83.108  0.00  0.00    +0.000 A 
ATOM      5  C   UNL     1     101.394 127.968  83.183  0.00  0.00    +0.000 A 
ATOM      6  C   UNL     1     101.994 129.061  83.851  0.00  0.00    +0.000 A 
ATOM      7  C   UNL     1     101.177 130.042  84.440  0.00  0.00    +0.000 A 
ATOM      8  C   UNL     1     103.488 129.199  83.986  0.00  0.00    +0.000 C 
ATOM      9  C   UNL     1      99.276 126.752  82.403  0.00  0.00    +0.000 C 
ENDROOT
BRANCH   5  10
ATOM     10  C   UNL     1     102.283 126.958  82.545  0.00  0.00    +0.000 C 
ATOM     11  N   UNL     1     102.639 125.855  83.124  0.00  0.00    +0.000 NA
BRANCH  11  12
ATOM     12  C   UNL     1     103.496 125.002  82.386  0.00  0.00    +0.000 A 
ATOM     13  C   UNL     1     103.499 125.217  80.997  0.00  0.00    +0.000 A 
ATOM     14  C   UNL     1     104.287 124.451  80.135  0.00  0.00    +0.000 A 
ATOM     15  C   UNL     1     105.087 123.439  80.654  0.00  0.00    +0.000 A 
ATOM     16  C   UNL     1     105.092 123.192  82.028  0.00  0.00    +0.000 A 
ATOM     17  C   UNL     1     104.303 123.957  82.902  0.00  0.00    +0.000 A 
ATOM     18  S   UNL     1     104.395 123.522  84.581  0.00  0.00    +0.000 S 
ENDBRANCH  11  12
ENDBRANCH   5  10
TORSDOF 2
ENDMDL
