MODEL 1
REMARK VINA RESULT:      -4.9      0.000      0.000
REMARK  Name = *****
REMARK  2 active torsions:
REMARK  status: ('A' for Active; 'I' for Inactive)
REMARK    1  A    between atoms: C_1  and  C_2
REMARK    2  A    between atoms: C_3  and  C_12
REMARK                            x       y       z     vdW  Elec       q    Type
REMARK                         _______ _______ _______ _____ _____    ______ ____
ROOT
ATOM      1  C   UNL     1     103.886 128.235  83.126  0.00  0.00    +0.000 C 
ATOM      2  C   UNL     1     102.417 127.896  83.015  0.00  0.00    +0.000 A 
ATOM      3  C   UNL     1     101.990 126.700  82.395  0.00  0.00    +0.000 A 
ATOM      4  C   UNL     1     100.626 126.407  82.295  0.00  0.00    +0.000 A 
ATOM      5  C   UNL     1      99.676 127.284  82.809  0.00  0.00    +0.000 A 
ATOM      6  C   UNL     1     100.065 128.469  83.443  0.00  0.00    +0.000 A 
ATOM      7  C   UNL     1      99.089 129.334  83.965  0.00  0.00    +0.000 A 
ATOM      8  C   UNL     1      99.447 130.517  84.608  0.00  0.00    +0.000 A 
ATOM      9  C   UNL     1     100.788 130.847  84.738  0.00  0.00    +0.000 A 
ATOM     10  C   UNL     1     101.769 129.997  84.223  0.00  0.00    +0.000 A 
ATOM     11  C   UNL     1     101.442 128.789  83.560  0.00  0.00    +0.000 A 
ENDROOT
BRANCH   3  12
ATOM     12  C   UNL     1     102.926 125.722  81.859  0.00  0.00    +0.000 A 
ATOM     13  C   UNL     1     103.489 124.750  82.663  0.00  0.00    +0.000 A 
ATOM     14  S   UNL     1     104.560 123.734  81.797  0.00  0.00    +0.000 S 
ATOM     15  C   UNL     1     104.287 124.591  80.342  0.00  0.00    +0.000 A 
ATOM     16  C   UNL     1     103.398 125.630  80.513  0.00  0.00    +0.000 A 
ENDBRANCH   3  12
TORSDOF 1
ENDMDL
