MODEL 1
REMARK VINA RESULT:      -4.5      0.000      0.000
REMARK  Name = *****
REMARK  7 active torsions:
REMARK  status: ('A' for Active; 'I' for Inactive)
REMARK    1  A    between atoms: C_1  and  C_2
REMARK    2  A    between atoms: C_2  and  C_3
REMARK    3  A    between atoms: C_2  and  C_11
REMARK    4  A    between atoms: C_2  and  O_17
REMARK    5  A    between atoms: C_3  and  C_4
REMARK    6  A    between atoms: C_4  and  C_5
REMARK    7  A    between atoms: O_17  and  O_18
REMARK                            x       y       z     vdW  Elec       q    Type
REMARK                         _______ _______ _______ _____ _____    ______ ____
ROOT
ATOM      1  C   UNL     1      98.743 126.782  82.551  0.00  0.00    +0.000 C 
ATOM      2  C   UNL     1      99.556 126.936  83.851  0.00  0.00    +0.000 C 
ENDROOT
BRANCH   2   3
ATOM      3  C   UNL     1      99.584 128.429  84.230  0.00  0.00    +0.000 A 
ATOM      4  C   UNL     1      99.358 129.436  83.274  0.00  0.00    +0.000 A 
ATOM      5  C   UNL     1      99.382 130.788  83.630  0.00  0.00    +0.000 A 
ATOM      6  C   UNL     1      99.636 131.162  84.946  0.00  0.00    +0.000 A 
ATOM      7  C   UNL     1      99.870 130.184  85.907  0.00  0.00    +0.000 A 
ATOM      8  C   UNL     1      99.847 128.833  85.554  0.00  0.00    +0.000 A 
ENDBRANCH   2   3
BRANCH   2   9
ATOM      9  C   UNL     1     100.993 126.379  83.666  0.00  0.00    +0.000 C 
BRANCH   9  10
ATOM     10  C   UNL     1     101.457 126.360  82.203  0.00  0.00    +0.000 C 
BRANCH  10  11
ATOM     11  C   UNL     1     102.622 127.296  81.985  0.00  0.00    +0.000 A 
ATOM     12  C   UNL     1     103.017 128.180  82.997  0.00  0.00    +0.000 A 
ATOM     13  C   UNL     1     104.082 129.059  82.792  0.00  0.00    +0.000 A 
ATOM     14  C   UNL     1     104.758 129.065  81.572  0.00  0.00    +0.000 A 
ATOM     15  C   UNL     1     104.368 128.193  80.557  0.00  0.00    +0.000 A 
ATOM     16  C   UNL     1     103.302 127.313  80.761  0.00  0.00    +0.000 A 
ENDBRANCH  10  11
ENDBRANCH   9  10
ENDBRANCH   2   9
BRANCH   2  17
ATOM     17  O   UNL     1      98.880 126.205  84.903  0.00  0.00    +0.000 OA
BRANCH  17  18
ATOM     18  O   UNL     1      99.759 125.135  85.365  0.00  0.00    +0.000 OA
ATOM     19  H   UNL     1      99.235 124.338  85.536  0.00  0.00    +0.000 HD
ENDBRANCH  17  18
ENDBRANCH   2  17
TORSDOF 6
ENDMDL
