MODEL 1
REMARK VINA RESULT:      -4.6      0.000      0.000
REMARK  Name = *****
REMARK  4 active torsions:
REMARK  status: ('A' for Active; 'I' for Inactive)
REMARK    1  A    between atoms: C_4  and  C_7
REMARK    2  A    between atoms: C_7  and  O_8
REMARK    3  A    between atoms: O_8  and  C_9
REMARK    4  A    between atoms: C_9  and  C_11
REMARK                            x       y       z     vdW  Elec       q    Type
REMARK                         _______ _______ _______ _____ _____    ______ ____
ROOT
ATOM      1  C   UNL     1      99.405 127.225  82.857  0.00  0.00    +0.000 C 
ATOM      2  O   UNL     1      98.651 126.829  81.985  0.00  0.00    +0.000 OA
ENDROOT
BRANCH   1   3
ATOM      3  C   UNL     1      99.088 128.344  83.759  0.00  0.00    +0.000 A 
ATOM      4  C   UNL     1      98.339 128.187  84.934  0.00  0.00    +0.000 A 
ATOM      5  C   UNL     1      98.073 129.299  85.737  0.00  0.00    +0.000 A 
ATOM      6  C   UNL     1      98.565 130.548  85.370  0.00  0.00    +0.000 A 
ATOM      7  C   UNL     1      99.329 130.712  84.219  0.00  0.00    +0.000 A 
ATOM      8  C   UNL     1      99.597 129.607  83.411  0.00  0.00    +0.000 A 
ATOM      9  F   UNL     1      98.310 131.609  86.144  0.00  0.00    +0.000 F 
ATOM     10 CL   UNL     1      97.764 126.653  85.483  0.00  0.00    +0.000 Cl
ENDBRANCH   1   3
BRANCH   1  11
ATOM     11  O   UNL     1     100.572 126.664  83.241  0.00  0.00    +0.000 OA
BRANCH  11  12
ATOM     12  C   UNL     1     101.374 126.198  82.152  0.00  0.00    +0.000 C 
BRANCH  12  16
ATOM     13  C   UNL     1     104.647 128.958  81.635  0.00  0.00    +0.000 A 
ATOM     14  C   UNL     1     104.264 128.129  80.583  0.00  0.00    +0.000 A 
ATOM     15  C   UNL     1     103.206 127.234  80.747  0.00  0.00    +0.000 A 
ATOM     16  C   UNL     1     102.518 127.162  81.966  0.00  0.00    +0.000 A 
ATOM     17  C   UNL     1     102.914 128.000  83.018  0.00  0.00    +0.000 A 
ATOM     18  C   UNL     1     103.973 128.894  82.853  0.00  0.00    +0.000 A 
ENDBRANCH  12  16
ENDBRANCH  11  12
ENDBRANCH   1  11
TORSDOF 4
ENDMDL
