MODEL 1
REMARK VINA RESULT:      -4.5      0.000      0.000
REMARK  Name = *****
REMARK  5 active torsions:
REMARK  status: ('A' for Active; 'I' for Inactive)
REMARK    1  A    between atoms: C_1  and  C_2
REMARK    2  A    between atoms: C_4  and  C_8
REMARK    3  A    between atoms: C_8  and  C_10
REMARK    4  A    between atoms: C_10  and  C_11
REMARK    5  A    between atoms: C_11  and  C_12
REMARK                            x       y       z     vdW  Elec       q    Type
REMARK                         _______ _______ _______ _____ _____    ______ ____
ROOT
ATOM      1  C   UNL     1      89.457  69.958  86.368  0.00  0.00    +0.000 C 
ATOM      2  O   UNL     1      90.025  70.732  85.598  0.00  0.00    +0.000 OA
ENDROOT
BRANCH   1   6
ATOM      3  C   UNL     1      84.914  72.062  87.150  0.00  0.00    +0.000 C 
ATOM      4  C   UNL     1      86.203  71.490  87.664  0.00  0.00    +0.000 A 
ATOM      5  C   UNL     1      87.183  71.011  86.782  0.00  0.00    +0.000 A 
ATOM      6  C   UNL     1      88.385  70.481  87.271  0.00  0.00    +0.000 A 
ATOM      7  C   UNL     1      88.600  70.434  88.656  0.00  0.00    +0.000 A 
ATOM      8  C   UNL     1      87.630  70.909  89.538  0.00  0.00    +0.000 A 
ATOM      9  C   UNL     1      86.437  71.435  89.044  0.00  0.00    +0.000 A 
ENDBRANCH   1   6
BRANCH   1  10
ATOM     10  C   UNL     1      89.807  68.483  86.433  0.00  0.00    +0.000 C 
BRANCH  10  11
ATOM     11  C   UNL     1      88.654  67.605  85.952  0.00  0.00    +0.000 C 
BRANCH  11  12
ATOM     12  C   UNL     1      88.128  66.733  87.066  0.00  0.00    +0.000 A 
ATOM     13  C   UNL     1      87.057  67.162  87.859  0.00  0.00    +0.000 A 
ATOM     14  C   UNL     1      86.590  66.366  88.906  0.00  0.00    +0.000 A 
ATOM     15  C   UNL     1      87.191  65.138  89.172  0.00  0.00    +0.000 A 
ATOM     16  C   UNL     1      88.261  64.704  88.391  0.00  0.00    +0.000 A 
ATOM     17  C   UNL     1      88.731  65.498  87.344  0.00  0.00    +0.000 A 
ENDBRANCH  11  12
ENDBRANCH  10  11
ENDBRANCH   1  10
TORSDOF 4
ENDMDL
