MODEL 1
REMARK VINA RESULT:      -4.5      0.000      0.000
REMARK  Name = *****
REMARK  3 active torsions:
REMARK  status: ('A' for Active; 'I' for Inactive)
REMARK    1  A    between atoms: C_4  and  N_7
REMARK    2  A    between atoms: N_7  and  N_9
REMARK    3  A    between atoms: N_9  and  C_10
REMARK                            x       y       z     vdW  Elec       q    Type
REMARK                         _______ _______ _______ _____ _____    ______ ____
ROOT
ATOM      1  N   UNL     1      89.081  63.744  88.062  0.00  0.00    +0.000 N 
ATOM      2  H   UNL     1      89.976  63.482  88.378  0.00  0.00    +0.000 HD
ENDROOT
BRANCH   1   3
ATOM      3  C   UNL     1      88.025  63.359  88.903  0.00  0.00    +0.000 A 
ATOM      4  C   UNL     1      87.080  62.384  88.564  0.00  0.00    +0.000 A 
ATOM      5  C   UNL     1      86.037  62.051  89.438  0.00  0.00    +0.000 A 
ATOM      6  C   UNL     1      85.925  62.698  90.664  0.00  0.00    +0.000 A 
ATOM      7  C   UNL     1      86.846  63.676  91.021  0.00  0.00    +0.000 A 
ATOM      8  C   UNL     1      87.886  64.003  90.144  0.00  0.00    +0.000 A 
ATOM      9 CL   UNL     1      84.645  62.292  91.736  0.00  0.00    +0.000 Cl
ENDBRANCH   1   3
BRANCH   1  10
ATOM     10  N   UNL     1      89.071  64.448  86.827  0.00  0.00    +0.000 N 
ATOM     11  O   UNL     1      89.161  63.877  85.758  0.00  0.00    +0.000 OA
BRANCH  10  15
ATOM     12  C   UNL     1      88.906  68.677  86.839  0.00  0.00    +0.000 A 
ATOM     13  C   UNL     1      87.846  67.941  87.373  0.00  0.00    +0.000 A 
ATOM     14  C   UNL     1      87.890  66.547  87.368  0.00  0.00    +0.000 A 
ATOM     15  C   UNL     1      89.005  65.894  86.829  0.00  0.00    +0.000 A 
ATOM     16  C   UNL     1      90.063  66.629  86.282  0.00  0.00    +0.000 A 
ATOM     17  C   UNL     1      90.011  68.023  86.291  0.00  0.00    +0.000 A 
ENDBRANCH  10  15
ENDBRANCH   1  10
TORSDOF 3
ENDMDL
