REMARK  Name = *****
REMARK  2 active torsions:
REMARK  status: ('A' for Active; 'I' for Inactive)
REMARK    1  A    between atoms: C_1  and  C_2
REMARK    2  A    between atoms: C_3  and  C_12
REMARK                            x       y       z     vdW  Elec       q    Type
REMARK                         _______ _______ _______ _____ _____    ______ ____
ROOT
ATOM      1  C   UNL     1       1.668  -2.372   0.401  0.00  0.00    +0.000 C 
ATOM      2  C   UNL     1       1.343  -0.919   0.138  0.00  0.00    +0.000 A 
ATOM      3  C   UNL     1       2.369   0.034  -0.054  0.00  0.00    +0.000 A 
ATOM      4  C   UNL     1       2.049   1.375  -0.289  0.00  0.00    +0.000 A 
ATOM      5  C   UNL     1       0.720   1.785  -0.343  0.00  0.00    +0.000 A 
ATOM      6  C   UNL     1      -0.320   0.865  -0.173  0.00  0.00    +0.000 A 
ATOM      7  C   UNL     1      -1.654   1.299  -0.243  0.00  0.00    +0.000 A 
ATOM      8  C   UNL     1      -2.710   0.404  -0.085  0.00  0.00    +0.000 A 
ATOM      9  C   UNL     1      -2.443  -0.938   0.143  0.00  0.00    +0.000 A 
ATOM     10  C   UNL     1      -1.121  -1.383   0.216  0.00  0.00    +0.000 A 
ATOM     11  C   UNL     1      -0.023  -0.502   0.065  0.00  0.00    +0.000 A 
ENDROOT
BRANCH   3  12
ATOM     12  C   UNL     1       3.780  -0.325  -0.039  0.00  0.00    +0.000 A 
ATOM     13  C   UNL     1       4.567  -0.099   1.074  0.00  0.00    +0.000 A 
ATOM     14  S   UNL     1       6.186  -0.599   0.833  0.00  0.00    +0.000 S 
ATOM     15  C   UNL     1       5.850  -1.112  -0.764  0.00  0.00    +0.000 A 
ATOM     16  C   UNL     1       4.531  -0.907  -1.106  0.00  0.00    +0.000 A 
ENDBRANCH   3  12
TORSDOF 1
