REMARK  Name = *****
REMARK  4 active torsions:
REMARK  status: ('A' for Active; 'I' for Inactive)
REMARK    1  A    between atoms: C_3  and  C_16
REMARK    2  A    between atoms: C_6  and  C_7
REMARK    3  A    between atoms: C_7  and  S_8
REMARK    4  A    between atoms: S_8  and  C_9
REMARK                            x       y       z     vdW  Elec       q    Type
REMARK                         _______ _______ _______ _____ _____    ______ ____
ROOT
ATOM      1  C   UNL     1       3.861  -0.365   0.401  0.00  0.00    +0.000 C 
ENDROOT
BRANCH   1   7
ATOM      2  C   UNL     1       1.817   0.566  -0.762  0.00  0.00    +0.000 A 
ATOM      3  C   UNL     1       0.433   0.652  -0.929  0.00  0.00    +0.000 A 
ATOM      4  C   UNL     1      -0.421  -0.093  -0.110  0.00  0.00    +0.000 A 
ATOM      5  C   UNL     1       0.117  -0.926   0.876  0.00  0.00    +0.000 A 
ATOM      6  C   UNL     1       1.502  -1.011   1.043  0.00  0.00    +0.000 A 
ATOM      7  C   UNL     1       2.365  -0.260   0.231  0.00  0.00    +0.000 A 
BRANCH   4   8
ATOM      8  C   UNL     1      -1.841  -0.006  -0.282  0.00  0.00    +0.000 C 
ATOM      9  N   UNL     1      -2.992   0.067  -0.419  0.00  0.00    +0.000 NA
ENDBRANCH   4   8
ENDBRANCH   1   7
BRANCH   1  10
ATOM     10  S   UNL     1       4.552  -1.698  -0.634  0.00  0.00    +0.000 S 
BRANCH  10  11
ATOM     11  C   UNL     1       6.252  -1.626  -0.107  0.00  0.00    +0.000 A 
ATOM     12  C   UNL     1       6.810  -2.721   0.561  0.00  0.00    +0.000 A 
ATOM     13  C   UNL     1       8.145  -2.690   0.975  0.00  0.00    +0.000 A 
ATOM     14  C   UNL     1       8.924  -1.565   0.713  0.00  0.00    +0.000 A 
ATOM     15  C   UNL     1       8.382  -0.475   0.035  0.00  0.00    +0.000 A 
ATOM     16  C   UNL     1       7.048  -0.507  -0.378  0.00  0.00    +0.000 A 
ATOM     17 CL   UNL     1      10.567  -1.525   1.222  0.00  0.00    +0.000 Cl
ENDBRANCH  10  11
ENDBRANCH   1  10
TORSDOF 4
