MODEL 1
REMARK VINA RESULT:      -4.7      0.000      0.000
REMARK  Name = *****
REMARK  2 active torsions:
REMARK  status: ('A' for Active; 'I' for Inactive)
REMARK    1  A    between atoms: C_3  and  C_8
REMARK    2  A    between atoms: N_9  and  C_10
REMARK                            x       y       z     vdW  Elec       q    Type
REMARK                         _______ _______ _______ _____ _____    ______ ____
ROOT
ATOM      1  C   UNL     1     102.059 125.986  82.301  0.00  0.00    +0.000 C 
ATOM      2  N   UNL     1     102.959 126.210  81.397  0.00  0.00    +0.000 NA
ENDROOT
BRANCH   1   5
ATOM      3  C   UNL     1     100.617 129.179  83.671  0.00  0.00    +0.000 A 
ATOM      4  C   UNL     1     101.531 128.192  83.292  0.00  0.00    +0.000 A 
ATOM      5  C   UNL     1     101.075 127.013  82.691  0.00  0.00    +0.000 A 
ATOM      6  C   UNL     1      99.711 126.817  82.465  0.00  0.00    +0.000 A 
ATOM      7  C   UNL     1      98.815 127.807  82.845  0.00  0.00    +0.000 A 
ATOM      8  C   UNL     1      99.254 128.984  83.445  0.00  0.00    +0.000 A 
ATOM      9  F   UNL     1      97.505 127.629  82.632  0.00  0.00    +0.000 F 
ENDBRANCH   1   5
BRANCH   2  10
ATOM     10  C   UNL     1     103.830 125.149  81.122  0.00  0.00    +0.000 A 
ATOM     11  C   UNL     1     103.954 124.085  82.022  0.00  0.00    +0.000 A 
ATOM     12  C   UNL     1     104.810 123.018  81.739  0.00  0.00    +0.000 A 
ATOM     13  C   UNL     1     105.530 123.019  80.549  0.00  0.00    +0.000 A 
ATOM     14  C   UNL     1     105.408 124.060  79.637  0.00  0.00    +0.000 A 
ATOM     15  C   UNL     1     104.550 125.125  79.923  0.00  0.00    +0.000 A 
ATOM     16  F   UNL     1     106.352 121.997  80.277  0.00  0.00    +0.000 F 
ENDBRANCH   2  10
TORSDOF 2
ENDMDL
