MODEL 1
REMARK VINA RESULT:      -4.7      0.000      0.000
REMARK  Name = *****
REMARK  3 active torsions:
REMARK  status: ('A' for Active; 'I' for Inactive)
REMARK    1  A    between atoms: C_4  and  C_7
REMARK    2  A    between atoms: N_9  and  C_10
REMARK    3  A    between atoms: N_9  and  O_18
REMARK                            x       y       z     vdW  Elec       q    Type
REMARK                         _______ _______ _______ _____ _____    ______ ____
ROOT
ATOM      1  C   UNL     1      87.762  64.249  87.514  0.00  0.00    +0.000 C 
ATOM      2  O   UNL     1      86.649  64.571  87.103  0.00  0.00    +0.000 OA
ATOM      3  N   UNL     1      88.022  63.358  88.554  0.00  0.00    +0.000 N 
ENDROOT
BRANCH   3   4
ATOM      4  C   UNL     1      86.994  62.813  89.374  0.00  0.00    +0.000 A 
ATOM      5  C   UNL     1      86.493  63.483  90.511  0.00  0.00    +0.000 A 
ATOM      6  C   UNL     1      85.516  62.859  91.307  0.00  0.00    +0.000 A 
ATOM      7  C   UNL     1      85.020  61.598  90.964  0.00  0.00    +0.000 A 
ATOM      8  C   UNL     1      85.473  60.958  89.815  0.00  0.00    +0.000 A 
ATOM      9  C   UNL     1      86.446  61.566  89.022  0.00  0.00    +0.000 A 
ATOM     10 CL   UNL     1      84.844  63.605  92.720  0.00  0.00    +0.000 Cl
ATOM     11 CL   UNL     1      86.917  65.144  90.824  0.00  0.00    +0.000 Cl
ENDBRANCH   3   4
BRANCH   1  15
ATOM     12  C   UNL     1      91.096  65.859  85.392  0.00  0.00    +0.000 A 
ATOM     13  C   UNL     1      90.317  66.704  86.185  0.00  0.00    +0.000 A 
ATOM     14  C   UNL     1      89.225  66.194  86.886  0.00  0.00    +0.000 A 
ATOM     15  C   UNL     1      88.926  64.830  86.804  0.00  0.00    +0.000 A 
ATOM     16  C   UNL     1      89.691  63.986  85.991  0.00  0.00    +0.000 A 
ATOM     17  C   UNL     1      90.781  64.503  85.290  0.00  0.00    +0.000 A 
ENDBRANCH   1  15
BRANCH   3  18
ATOM     18  O   UNL     1      89.292  63.436  89.174  0.00  0.00    +0.000 OA
ATOM     19  H   UNL     1      89.632  62.540  89.327  0.00  0.00    +0.000 HD
ENDBRANCH   3  18
TORSDOF 3
ENDMDL
