MODEL 1
REMARK VINA RESULT:      -4.9      0.000      0.000
REMARK  Name = *****
REMARK  3 active torsions:
REMARK  status: ('A' for Active; 'I' for Inactive)
REMARK    1  A    between atoms: C_4  and  C_7
REMARK    2  A    between atoms: C_8  and  C_9
REMARK    3  A    between atoms: C_8  and  C_11
REMARK                            x       y       z     vdW  Elec       q    Type
REMARK                         _______ _______ _______ _____ _____    ______ ____
ROOT
ATOM      1  C   UNL     1     101.939 125.864  82.568  0.00  0.00    +0.000 C 
ATOM      2  C   UNL     1     102.961 125.832  81.691  0.00  0.00    +0.000 C 
ENDROOT
BRANCH   2   3
ATOM      3  C   UNL     1     103.805 124.622  81.667  0.00  0.00    +0.000 A 
ATOM      4  C   UNL     1     104.049 123.909  82.848  0.00  0.00    +0.000 A 
ATOM      5  C   UNL     1     104.827 122.756  82.809  0.00  0.00    +0.000 A 
ATOM      6  C   UNL     1     105.373 122.297  81.616  0.00  0.00    +0.000 A 
ATOM      7  C   UNL     1     105.137 123.001  80.436  0.00  0.00    +0.000 A 
ATOM      8  C   UNL     1     104.355 124.159  80.460  0.00  0.00    +0.000 A 
ATOM      9  F   UNL     1     105.050 122.075  83.940  0.00  0.00    +0.000 F 
ENDBRANCH   2   3
BRANCH   1  13
ATOM     10  C   UNL     1      99.226 129.075  83.362  0.00  0.00    +0.000 A 
ATOM     11  C   UNL     1      98.764 127.936  82.707  0.00  0.00    +0.000 A 
ATOM     12  C   UNL     1      99.637 126.880  82.433  0.00  0.00    +0.000 A 
ATOM     13  C   UNL     1     100.987 126.963  82.796  0.00  0.00    +0.000 A 
ATOM     14  C   UNL     1     101.437 128.108  83.468  0.00  0.00    +0.000 A 
ATOM     15  C   UNL     1     100.562 129.160  83.746  0.00  0.00    +0.000 A 
ENDBRANCH   1  13
BRANCH   2  16
ATOM     16  C   UNL     1     103.299 126.914  80.821  0.00  0.00    +0.000 C 
ATOM     17  N   UNL     1     103.594 127.785  80.114  0.00  0.00    +0.000 NA
ENDBRANCH   2  16
TORSDOF 3
ENDMDL
