REMARK  Name = *****
REMARK  3 active torsions:
REMARK  status: ('A' for Active; 'I' for Inactive)
REMARK    1  A    between atoms: C_4  and  C_7
REMARK    2  A    between atoms: C_8  and  C_9
REMARK    3  A    between atoms: C_8  and  C_11
REMARK                            x       y       z     vdW  Elec       q    Type
REMARK                         _______ _______ _______ _____ _____    ______ ____
ROOT
ATOM      1  C   UNL     1      -2.785   0.380  -0.386  0.00  0.00    +0.000 C 
ATOM      2  C   UNL     1      -3.757  -0.555  -0.296  0.00  0.00    +0.000 C 
ENDROOT
BRANCH   1   6
ATOM      3  C   UNL     1       1.398  -0.209   0.225  0.00  0.00    +0.000 A 
ATOM      4  C   UNL     1       0.764  -0.828  -0.851  0.00  0.00    +0.000 A 
ATOM      5  C   UNL     1      -0.604  -0.643  -1.058  0.00  0.00    +0.000 A 
ATOM      6  C   UNL     1      -1.348   0.156  -0.183  0.00  0.00    +0.000 A 
ATOM      7  C   UNL     1      -0.704   0.782   0.890  0.00  0.00    +0.000 A 
ATOM      8  C   UNL     1       0.665   0.597   1.094  0.00  0.00    +0.000 A 
ENDBRANCH   1   6
BRANCH   2   9
ATOM      9  C   UNL     1      -5.155  -0.250  -0.509  0.00  0.00    +0.000 A 
ATOM     10  C   UNL     1      -5.739   0.962  -0.191  0.00  0.00    +0.000 A 
ATOM     11  S   UNL     1      -7.411   1.010  -0.561  0.00  0.00    +0.000 S 
ATOM     12  C   UNL     1      -7.382  -0.595  -1.143  0.00  0.00    +0.000 A 
ATOM     13  C   UNL     1      -6.125  -1.154  -1.058  0.00  0.00    +0.000 A 
ENDBRANCH   2   9
BRANCH   2  14
ATOM     14  C   UNL     1      -3.433  -1.917   0.024  0.00  0.00    +0.000 C 
ATOM     15  N   UNL     1      -3.193  -3.028   0.264  0.00  0.00    +0.000 NA
ENDBRANCH   2  14
TORSDOF 3
