REMARK  Name = *****
REMARK  3 active torsions:
REMARK  status: ('A' for Active; 'I' for Inactive)
REMARK    1  A    between atoms: C_1  and  C_2
REMARK    2  A    between atoms: P_9  and  N_11
REMARK    3  A    between atoms: N_11  and  C_12
REMARK                            x       y       z     vdW  Elec       q    Type
REMARK                         _______ _______ _______ _____ _____    ______ ____
ROOT
ATOM      1  C   UNL     1       1.151   0.229  -0.021  0.00  0.00    +0.000 C 
ATOM      2  C   UNL     1       2.661   0.156   0.163  0.00  0.00    +0.000 C 
ATOM      3  C   UNL     1       3.215   1.293   0.977  0.00  0.00    +0.000 A 
ATOM      4  C   UNL     1       3.063   2.654   0.728  0.00  0.00    +0.000 A 
ATOM      5  C   UNL     1       3.661   3.570   1.597  0.00  0.00    +0.000 A 
ATOM      6  C   UNL     1       4.405   3.124   2.697  0.00  0.00    +0.000 A 
ATOM      7  C   UNL     1       4.562   1.757   2.936  0.00  0.00    +0.000 A 
ATOM      8  C   UNL     1       3.968   0.854   2.067  0.00  0.00    +0.000 A 
ATOM      9  P   UNL     1       3.990  -0.940   2.102  0.00  0.00    +0.000 P 
ATOM     10  O   UNL     1       2.965  -1.085   0.843  0.00  0.00    +0.000 OA
ENDROOT
BRANCH   9  11
ATOM     11  N   UNL     1       2.882  -1.149   3.300  0.00  0.00    +0.000 N 
ATOM     12  H   UNL     1       2.351  -0.349   3.516  0.00  0.00    +0.000 HD
BRANCH  11  13
ATOM     13  C   UNL     1       2.572  -2.296   4.068  0.00  0.00    +0.000 A 
ATOM     14  C   UNL     1       3.331  -3.473   4.031  0.00  0.00    +0.000 A 
ATOM     15  C   UNL     1       3.015  -4.562   4.851  0.00  0.00    +0.000 A 
ATOM     16  C   UNL     1       1.945  -4.481   5.739  0.00  0.00    +0.000 A 
ATOM     17  C   UNL     1       1.197  -3.310   5.812  0.00  0.00    +0.000 A 
ATOM     18  C   UNL     1       1.515  -2.225   4.990  0.00  0.00    +0.000 A 
ENDBRANCH  11  13
ENDBRANCH   9  11
TORSDOF 2
