MODEL 1
REMARK VINA RESULT:      -4.8      0.000      0.000
REMARK  Name = *****
REMARK  2 active torsions:
REMARK  status: ('A' for Active; 'I' for Inactive)
REMARK    1  A    between atoms: C_4  and  C_7
REMARK    2  A    between atoms: C_8  and  C_11
REMARK                            x       y       z     vdW  Elec       q    Type
REMARK                         _______ _______ _______ _____ _____    ______ ____
ROOT
ATOM      1  C   UNL     1      87.616  70.769  85.523  0.00  0.00    +0.000 C 
ATOM      2  C   UNL     1      88.748  70.195  86.412  0.00  0.00    +0.000 C 
ATOM      3  S   UNL     1      89.886  70.859  85.167  0.00  0.00    +0.000 S 
ATOM      4  O   UNL     1      88.496  71.740  84.870  0.00  0.00    +0.000 OA
ENDROOT
BRANCH   1   8
ATOM      5  C   UNL     1      84.138  72.513  87.654  0.00  0.00    +0.000 A 
ATOM      6  C   UNL     1      84.184  72.542  86.265  0.00  0.00    +0.000 A 
ATOM      7  C   UNL     1      85.278  71.991  85.590  0.00  0.00    +0.000 A 
ATOM      8  C   UNL     1      86.357  71.398  86.275  0.00  0.00    +0.000 A 
ATOM      9  C   UNL     1      86.271  71.386  87.683  0.00  0.00    +0.000 A 
ATOM     10  C   UNL     1      85.182  71.935  88.365  0.00  0.00    +0.000 A 
ENDBRANCH   1   8
BRANCH   2  11
ATOM     11  C   UNL     1      88.892  68.629  86.612  0.00  0.00    +0.000 A 
ATOM     12  C   UNL     1      89.988  67.875  86.138  0.00  0.00    +0.000 A 
ATOM     13  C   UNL     1      90.076  66.491  86.315  0.00  0.00    +0.000 A 
ATOM     14  C   UNL     1      89.063  65.808  86.977  0.00  0.00    +0.000 A 
ATOM     15  C   UNL     1      87.966  66.510  87.461  0.00  0.00    +0.000 A 
ATOM     16  C   UNL     1      87.887  67.895  87.280  0.00  0.00    +0.000 A 
ENDBRANCH   2  11
TORSDOF 2
ENDMDL
