MODEL 1
REMARK VINA RESULT:      -4.6      0.000      0.000
REMARK  Name = *****
REMARK  3 active torsions:
REMARK  status: ('A' for Active; 'I' for Inactive)
REMARK    1  A    between atoms: C_1  and  C_2
REMARK    2  A    between atoms: C_5  and  S_8
REMARK    3  A    between atoms: S_8  and  C_10
REMARK                            x       y       z     vdW  Elec       q    Type
REMARK                         _______ _______ _______ _____ _____    ______ ____
ROOT
ATOM      1  S   UNL     1      87.805  70.396  88.585  0.00  0.00    +0.000 S 
ATOM      2  O   UNL     1      87.645  70.709  90.046  0.00  0.00    +0.000 OA
ENDROOT
BRANCH   1   3
ATOM      3  C   UNL     1      87.371  68.670  88.333  0.00  0.00    +0.000 C 
ATOM      4  C   UNL     1      87.826  67.893  87.325  0.00  0.00    +0.000 C 
ATOM      5  C   UNL     1      87.497  66.413  87.191  0.00  0.00    +0.000 C 
ATOM      6  C   UNL     1      88.785  65.584  87.256  0.00  0.00    +0.000 C 
ATOM      7  C   UNL     1      89.812  66.031  86.214  0.00  0.00    +0.000 C 
ATOM      8  C   UNL     1      90.058  67.539  86.266  0.00  0.00    +0.000 C 
ATOM      9  C   UNL     1      88.745  68.319  86.196  0.00  0.00    +0.000 C 
ATOM     10 CL   UNL     1      86.188  68.085  89.466  0.00  0.00    +0.000 Cl
ENDBRANCH   1   3
BRANCH   1  15
ATOM     11  C   UNL     1      83.048  73.231  85.974  0.00  0.00    +0.000 C 
ATOM     12  C   UNL     1      84.227  72.557  86.614  0.00  0.00    +0.000 A 
ATOM     13  C   UNL     1      84.283  72.396  88.004  0.00  0.00    +0.000 A 
ATOM     14  C   UNL     1      85.364  71.740  88.599  0.00  0.00    +0.000 A 
ATOM     15  C   UNL     1      86.402  71.239  87.807  0.00  0.00    +0.000 A 
ATOM     16  C   UNL     1      86.336  71.374  86.416  0.00  0.00    +0.000 A 
ATOM     17  C   UNL     1      85.254  72.026  85.823  0.00  0.00    +0.000 A 
ENDBRANCH   1  15
TORSDOF 2
ENDMDL
