MODEL 1
REMARK VINA RESULT:      -4.5      0.000      0.000
REMARK  Name = *****
REMARK  4 active torsions:
REMARK  status: ('A' for Active; 'I' for Inactive)
REMARK    1  A    between atoms: C_5  and  C_7
REMARK    2  A    between atoms: C_7  and  O_9
REMARK    3  A    between atoms: O_9  and  C_10
REMARK    4  A    between atoms: C_10  and  C_11
REMARK                            x       y       z     vdW  Elec       q    Type
REMARK                         _______ _______ _______ _____ _____    ______ ____
ROOT
ATOM      1  C   UNL     1     104.700 124.336  80.251  0.00  0.00    +0.000 C 
ATOM      2  O   UNL     1     105.730 124.642  79.667  0.00  0.00    +0.000 OA
ENDROOT
BRANCH   1   7
ATOM      3  C   UNL     1     104.552 120.793  81.520  0.00  0.00    +0.000 A 
ATOM      4  C   UNL     1     104.477 120.975  82.901  0.00  0.00    +0.000 A 
ATOM      5  C   UNL     1     104.468 122.265  83.431  0.00  0.00    +0.000 A 
ATOM      6  C   UNL     1     104.539 123.370  82.583  0.00  0.00    +0.000 A 
ATOM      7  C   UNL     1     104.627 123.202  81.200  0.00  0.00    +0.000 A 
ATOM      8  C   UNL     1     104.623 121.900  80.671  0.00  0.00    +0.000 A 
ATOM      9  F   UNL     1     104.501 124.587  83.144  0.00  0.00    +0.000 F 
ENDBRANCH   1   7
BRANCH   1  10
ATOM     10  O   UNL     1     103.519 124.987  80.178  0.00  0.00    +0.000 OA
BRANCH  10  11
ATOM     11  C   UNL     1     103.583 126.412  80.301  0.00  0.00    +0.000 C 
BRANCH  11  12
ATOM     12  C   UNL     1     102.847 126.844  81.544  0.00  0.00    +0.000 A 
ATOM     13  C   UNL     1     101.778 126.079  82.037  0.00  0.00    +0.000 A 
ATOM     14  C   UNL     1     101.083 126.489  83.175  0.00  0.00    +0.000 A 
ATOM     15  C   UNL     1     101.451 127.668  83.815  0.00  0.00    +0.000 A 
ATOM     16  C   UNL     1     102.496 128.446  83.335  0.00  0.00    +0.000 A 
ATOM     17  C   UNL     1     103.194 128.037  82.196  0.00  0.00    +0.000 A 
ATOM     18  F   UNL     1     100.781 128.062  84.906  0.00  0.00    +0.000 F 
ENDBRANCH  11  12
ENDBRANCH  10  11
ENDBRANCH   1  10
TORSDOF 4
ENDMDL
