REMARK  Name = *****
REMARK  4 active torsions:
REMARK  status: ('A' for Active; 'I' for Inactive)
REMARK    1  A    between atoms: C_1  and  C_2
REMARK    2  A    between atoms: C_2  and  C_3
REMARK    3  A    between atoms: C_8  and  C_9
REMARK    4  A    between atoms: C_10  and  C_11
REMARK                            x       y       z     vdW  Elec       q    Type
REMARK                         _______ _______ _______ _____ _____    ______ ____
ROOT
ATOM      1  C   UNL     1       2.918   0.752   1.199  0.00  0.00    +0.000 A 
ATOM      2  C   UNL     1       2.679   2.138   1.208  0.00  0.00    +0.000 A 
ATOM      3  C   UNL     1       3.038   2.920   2.306  0.00  0.00    +0.000 A 
ATOM      4  C   UNL     1       3.637   2.330   3.415  0.00  0.00    +0.000 A 
ATOM      5  C   UNL     1       3.875   0.955   3.426  0.00  0.00    +0.000 A 
ATOM      6  C   UNL     1       3.517   0.163   2.328  0.00  0.00    +0.000 A 
ENDROOT
BRANCH   1   8
ATOM      7  C   UNL     1       1.096  -0.630   0.151  0.00  0.00    +0.000 C 
ATOM      8  C   UNL     1       2.494  -0.051  -0.010  0.00  0.00    +0.000 C 
ENDBRANCH   1   8
BRANCH   6   9
ATOM      9  C   UNL     1       3.777  -1.245   2.396  0.00  0.00    +0.000 C 
ATOM     10  C   UNL     1       3.993  -2.426   2.454  0.00  0.00    +0.000 C 
BRANCH  10  11
ATOM     11  C   UNL     1       4.248  -3.831   2.517  0.00  0.00    +0.000 A 
ATOM     12  C   UNL     1       4.722  -4.405   3.699  0.00  0.00    +0.000 A 
ATOM     13  C   UNL     1       4.971  -5.778   3.758  0.00  0.00    +0.000 A 
ATOM     14  C   UNL     1       4.747  -6.577   2.637  0.00  0.00    +0.000 A 
ATOM     15  C   UNL     1       4.274  -6.006   1.456  0.00  0.00    +0.000 A 
ATOM     16  C   UNL     1       4.024  -4.633   1.395  0.00  0.00    +0.000 A 
ENDBRANCH  10  11
ENDBRANCH   6   9
TORSDOF 3
