REMARK  Name = *****
REMARK  4 active torsions:
REMARK  status: ('A' for Active; 'I' for Inactive)
REMARK    1  A    between atoms: C_1  and  C_2
REMARK    2  A    between atoms: C_5  and  C_8
REMARK    3  A    between atoms: C_8  and  S_10
REMARK    4  A    between atoms: S_10  and  C_11
REMARK                            x       y       z     vdW  Elec       q    Type
REMARK                         _______ _______ _______ _____ _____    ______ ____
ROOT
ATOM      1  C   UNL     1      -3.416   0.050   0.284  0.00  0.00    +0.000 C 
ATOM      2  O   UNL     1      -4.008  -0.873  -0.263  0.00  0.00    +0.000 OA
ENDROOT
BRANCH   1   7
ATOM      3  C   UNL     1       2.051  -0.872   2.050  0.00  0.00    +0.000 C 
ATOM      4  C   UNL     1       0.653  -0.606   1.573  0.00  0.00    +0.000 A 
ATOM      5  C   UNL     1       0.068   0.651   1.758  0.00  0.00    +0.000 A 
ATOM      6  C   UNL     1      -1.247   0.894   1.345  0.00  0.00    +0.000 A 
ATOM      7  C   UNL     1      -2.005  -0.123   0.749  0.00  0.00    +0.000 A 
ATOM      8  C   UNL     1      -1.417  -1.386   0.579  0.00  0.00    +0.000 A 
ATOM      9  C   UNL     1      -0.104  -1.627   0.992  0.00  0.00    +0.000 A 
ENDBRANCH   1   7
BRANCH   1  10
ATOM     10  S   UNL     1      -4.198   1.609   0.537  0.00  0.00    +0.000 S 
BRANCH  10  11
ATOM     11  C   UNL     1      -5.943   1.166   0.223  0.00  0.00    +0.000 C 
ATOM     12  C   UNL     1      -6.742   2.457  -0.010  0.00  0.00    +0.000 C 
ATOM     13  C   UNL     1      -8.227   2.159  -0.218  0.00  0.00    +0.000 C 
ATOM     14  C   UNL     1      -8.807   1.355   0.941  0.00  0.00    +0.000 C 
ATOM     15  C   UNL     1      -8.008   0.081   1.196  0.00  0.00    +0.000 C 
ATOM     16  C   UNL     1      -6.523   0.378   1.405  0.00  0.00    +0.000 C 
ENDBRANCH  10  11
ENDBRANCH   1  10
TORSDOF 3
