REMARK  Name = *****
REMARK  5 active torsions:
REMARK  status: ('A' for Active; 'I' for Inactive)
REMARK    1  A    between atoms: C_1  and  C_2
REMARK    2  A    between atoms: C_4  and  O_8
REMARK    3  A    between atoms: O_8  and  O_9
REMARK    4  A    between atoms: O_9  and  C_10
REMARK    5  A    between atoms: C_14  and  C_16
REMARK                            x       y       z     vdW  Elec       q    Type
REMARK                         _______ _______ _______ _____ _____    ______ ____
ROOT
ATOM      1  O   UNL     1      -2.011   2.450  -0.347  0.00  0.00    +0.000 OA
ENDROOT
BRANCH   1   5
ATOM      2  C   UNL     1       2.227   0.180   0.933  0.00  0.00    +0.000 C 
ATOM      3  C   UNL     1       0.801   0.156   0.467  0.00  0.00    +0.000 A 
ATOM      4  C   UNL     1       0.091   1.354   0.292  0.00  0.00    +0.000 A 
ATOM      5  C   UNL     1      -1.226   1.332  -0.175  0.00  0.00    +0.000 A 
ATOM      6  C   UNL     1      -1.840   0.112  -0.463  0.00  0.00    +0.000 A 
ATOM      7  C   UNL     1      -1.136  -1.081  -0.308  0.00  0.00    +0.000 A 
ATOM      8  C   UNL     1       0.182  -1.059   0.149  0.00  0.00    +0.000 A 
ENDBRANCH   1   5
BRANCH   1   9
ATOM      9  O   UNL     1      -1.148   3.620  -0.465  0.00  0.00    +0.000 OA
BRANCH   9  10
ATOM     10  C   UNL     1      -1.609   4.594   0.392  0.00  0.00    +0.000 A 
ATOM     11  C   UNL     1      -2.341   4.336   1.551  0.00  0.00    +0.000 A 
ATOM     12  C   UNL     1      -2.740   5.393   2.370  0.00  0.00    +0.000 A 
ATOM     13  C   UNL     1      -2.403   6.706   2.037  0.00  0.00    +0.000 A 
ATOM     14  C   UNL     1      -1.659   6.975   0.883  0.00  0.00    +0.000 A 
ATOM     15  C   UNL     1      -1.260   5.908   0.068  0.00  0.00    +0.000 A 
ATOM     16  C   UNL     1      -1.285   8.380   0.515  0.00  0.00    +0.000 C 
ENDBRANCH   9  10
ENDBRANCH   1   9
TORSDOF 3
