MODEL 1
REMARK VINA RESULT:      -4.6      0.000      0.000
REMARK  Name = *****
REMARK  3 active torsions:
REMARK  status: ('A' for Active; 'I' for Inactive)
REMARK    1  A    between atoms: C_4  and  C_7
REMARK    2  A    between atoms: C_7  and  C_8
REMARK    3  A    between atoms: C_8  and  C_9
REMARK                            x       y       z     vdW  Elec       q    Type
REMARK                         _______ _______ _______ _____ _____    ______ ____
ROOT
ATOM      1  C   UNL     1      86.327  71.268  86.764  0.00  0.00    +0.000 A 
ATOM      2  C   UNL     1      87.063  71.086  87.941  0.00  0.00    +0.000 A 
ATOM      3  C   UNL     1      86.546  71.484  89.172  0.00  0.00    +0.000 A 
ATOM      4  C   UNL     1      85.290  72.067  89.271  0.00  0.00    +0.000 A 
ATOM      5  C   UNL     1      84.542  72.254  88.110  0.00  0.00    +0.000 A 
ATOM      6  C   UNL     1      85.054  71.856  86.870  0.00  0.00    +0.000 A 
ATOM      7  S   UNL     1      87.627  71.147  90.536  0.00  0.00    +0.000 S 
ATOM      8  N   UNL     1      89.005  70.827  89.663  0.00  0.00    +0.000 NA
ATOM      9  S   UNL     1      88.671  70.341  88.108  0.00  0.00    +0.000 S 
ATOM     10  H   UNL     1      89.526  70.086  90.133  0.00  0.00    +0.000 HD
ENDROOT
BRANCH   1  11
ATOM     11  C   UNL     1      86.833  70.832  85.410  0.00  0.00    +0.000 C 
BRANCH  11  12
ATOM     12  C   UNL     1      87.126  72.029  84.501  0.00  0.00    +0.000 C 
BRANCH  12  16
ATOM     13  C   UNL     1      91.300  72.250  83.444  0.00  0.00    +0.000 A 
ATOM     14  C   UNL     1      90.464  73.342  83.217  0.00  0.00    +0.000 A 
ATOM     15  C   UNL     1      89.113  73.272  83.564  0.00  0.00    +0.000 A 
ATOM     16  C   UNL     1      88.590  72.110  84.147  0.00  0.00    +0.000 A 
ATOM     17  C   UNL     1      89.437  71.016  84.364  0.00  0.00    +0.000 A 
ATOM     18  C   UNL     1      90.787  71.088  84.017  0.00  0.00    +0.000 A 
ENDBRANCH  12  16
ENDBRANCH  11  12
ENDBRANCH   1  11
TORSDOF 3
ENDMDL
