REMARK  Name = *****
REMARK  2 active torsions:
REMARK  status: ('A' for Active; 'I' for Inactive)
REMARK    1  A    between atoms: C_6  and  C_7
REMARK    2  A    between atoms: C_8  and  C_9
REMARK                            x       y       z     vdW  Elec       q    Type
REMARK                         _______ _______ _______ _____ _____    ______ ____
ROOT
ATOM      1  C   UNL     1      -1.066  -1.605   1.634  0.00  0.00    +0.000 C 
ATOM      2  C   UNL     1      -0.810  -2.842   2.090  0.00  0.00    +0.000 C 
ENDROOT
BRANCH   1   8
ATOM      3  C   UNL     1       0.215  -0.004   0.161  0.00  0.00    +0.000 C 
ATOM      4  C   UNL     1      -0.375   1.372  -0.004  0.00  0.00    +0.000 C 
ATOM      5  C   UNL     1      -1.639   1.564  -0.405  0.00  0.00    +0.000 C 
ATOM      6  C   UNL     1      -2.500   0.452  -0.720  0.00  0.00    +0.000 C 
ATOM      7  C   UNL     1      -2.143  -0.809  -0.438  0.00  0.00    +0.000 C 
ATOM      8  C   UNL     1      -0.822  -1.161   0.208  0.00  0.00    +0.000 C 
ENDBRANCH   1   8
BRANCH   2   9
ATOM      9  C   UNL     1      -1.038  -3.277   3.476  0.00  0.00    +0.000 A 
ATOM     10  C   UNL     1      -2.126  -2.825   4.235  0.00  0.00    +0.000 A 
ATOM     11  C   UNL     1      -2.325  -3.287   5.539  0.00  0.00    +0.000 A 
ATOM     12  C   UNL     1      -1.444  -4.213   6.094  0.00  0.00    +0.000 A 
ATOM     13  C   UNL     1      -0.368  -4.682   5.345  0.00  0.00    +0.000 A 
ATOM     14  C   UNL     1      -0.169  -4.220   4.041  0.00  0.00    +0.000 A 
ENDBRANCH   2   9
TORSDOF 2
