REMARK  Name = *****
REMARK  4 active torsions:
REMARK  status: ('A' for Active; 'I' for Inactive)
REMARK    1  A    between atoms: C_1  and  S_2
REMARK    2  A    between atoms: S_2  and  C_3
REMARK    3  A    between atoms: C_7  and  C_9
REMARK    4  A    between atoms: C_10  and  C_11
REMARK                            x       y       z     vdW  Elec       q    Type
REMARK                         _______ _______ _______ _____ _____    ______ ____
ROOT
ATOM      1  C   UNL     1       3.712  -1.713   0.407  0.00  0.00    +0.000 A 
ATOM      2  C   UNL     1       4.608  -1.738  -0.664  0.00  0.00    +0.000 A 
ATOM      3  C   UNL     1       4.726  -2.880  -1.458  0.00  0.00    +0.000 A 
ATOM      4  C   UNL     1       3.958  -4.010  -1.174  0.00  0.00    +0.000 A 
ATOM      5  C   UNL     1       3.077  -4.013  -0.086  0.00  0.00    +0.000 A 
ATOM      6  C   UNL     1       2.955  -2.855   0.695  0.00  0.00    +0.000 A 
ENDROOT
BRANCH   1   8
ATOM      7  C   UNL     1       1.814   0.071   1.317  0.00  0.00    +0.000 C 
ATOM      8  S   UNL     1       3.599  -0.234   1.400  0.00  0.00    +0.000 S 
ENDBRANCH   1   8
BRANCH   5   9
ATOM      9  C   UNL     1       2.237  -5.177   0.232  0.00  0.00    +0.000 C 
ATOM     10  C   UNL     1       2.681  -6.443   0.194  0.00  0.00    +0.000 C 
BRANCH  10  11
ATOM     11  C   UNL     1       1.848  -7.605   0.532  0.00  0.00    +0.000 A 
ATOM     12  C   UNL     1       0.520  -7.718   0.100  0.00  0.00    +0.000 A 
ATOM     13  C   UNL     1      -0.234  -8.852   0.414  0.00  0.00    +0.000 A 
ATOM     14  C   UNL     1       0.335  -9.887   1.154  0.00  0.00    +0.000 A 
ATOM     15  C   UNL     1       1.660  -9.791   1.575  0.00  0.00    +0.000 A 
ATOM     16  C   UNL     1       2.414  -8.659   1.260  0.00  0.00    +0.000 A 
ENDBRANCH  10  11
ENDBRANCH   5   9
TORSDOF 3
