MODEL 1
REMARK VINA RESULT:      -4.9      0.000      0.000
REMARK  Name = *****
REMARK  3 active torsions:
REMARK  status: ('A' for Active; 'I' for Inactive)
REMARK    1  A    between atoms: C_4  and  C_7
REMARK    2  A    between atoms: C_4  and  C_16
REMARK    3  A    between atoms: C_8  and  C_9
REMARK                            x       y       z     vdW  Elec       q    Type
REMARK                         _______ _______ _______ _____ _____    ______ ____
ROOT
ATOM      1  C   UNL     1     102.092 125.968  82.429  0.00  0.00    +0.000 C 
ATOM      2  C   UNL     1     102.965 126.426  81.515  0.00  0.00    +0.000 C 
ENDROOT
BRANCH   2   3
ATOM      3  C   UNL     1     103.978 125.584  80.860  0.00  0.00    +0.000 A 
ATOM      4  C   UNL     1     103.982 124.208  81.119  0.00  0.00    +0.000 A 
ATOM      5  C   UNL     1     104.910 123.377  80.489  0.00  0.00    +0.000 A 
ATOM      6  C   UNL     1     105.834 123.901  79.589  0.00  0.00    +0.000 A 
ATOM      7  C   UNL     1     105.828 125.267  79.311  0.00  0.00    +0.000 A 
ATOM      8  C   UNL     1     104.900 126.103  79.940  0.00  0.00    +0.000 A 
ATOM      9 CL   UNL     1     104.910 121.688  80.824  0.00  0.00    +0.000 Cl
ENDBRANCH   2   3
BRANCH   1  13
ATOM     10  C   UNL     1      99.199 129.162  83.226  0.00  0.00    +0.000 C 
ATOM     11  C   UNL     1     100.496 129.131  84.023  0.00  0.00    +0.000 C 
ATOM     12  C   UNL     1     101.529 128.192  83.396  0.00  0.00    +0.000 C 
ATOM     13  C   UNL     1     100.997 126.756  83.156  0.00  0.00    +0.000 C 
ATOM     14  C   UNL     1      99.656 126.825  82.384  0.00  0.00    +0.000 C 
ATOM     15  C   UNL     1      98.631 127.762  83.028  0.00  0.00    +0.000 C 
BRANCH  13  16
ATOM     16  C   UNL     1     100.778 126.079  84.465  0.00  0.00    +0.000 C 
ATOM     17  N   UNL     1     100.609 125.563  85.491  0.00  0.00    +0.000 NA
ENDBRANCH  13  16
ENDBRANCH   1  13
TORSDOF 3
ENDMDL
