REMARK  Name = *****
REMARK  5 active torsions:
REMARK  status: ('A' for Active; 'I' for Inactive)
REMARK    1  A    between atoms: C_1  and  C_2
REMARK    2  A    between atoms: C_2  and  C_3
REMARK    3  A    between atoms: C_4  and  C_5
REMARK    4  A    between atoms: C_5  and  C_6
REMARK    5  A    between atoms: C_6  and  C_7
REMARK                            x       y       z     vdW  Elec       q    Type
REMARK                         _______ _______ _______ _____ _____    ______ ____
ROOT
ATOM      1  C   UNL     1       2.710  -5.030  -0.393  0.00  0.00    +0.000 C 
ENDROOT
BRANCH   1   2
ATOM      2  C   UNL     1       3.192  -6.275  -1.096  0.00  0.00    +0.000 A 
ATOM      3  C   UNL     1       4.408  -6.870  -0.734  0.00  0.00    +0.000 A 
ATOM      4  C   UNL     1       4.861  -8.011  -1.399  0.00  0.00    +0.000 A 
ATOM      5  C   UNL     1       4.106  -8.564  -2.432  0.00  0.00    +0.000 A 
ATOM      6  C   UNL     1       2.899  -7.976  -2.803  0.00  0.00    +0.000 A 
ATOM      7  C   UNL     1       2.444  -6.835  -2.140  0.00  0.00    +0.000 A 
ENDBRANCH   1   2
BRANCH   1   8
ATOM      8  C   UNL     1       3.251  -3.759  -1.057  0.00  0.00    +0.000 C 
BRANCH   8  10
ATOM      9  C   UNL     1       1.999  -1.583  -0.940  0.00  0.00    +0.000 C 
ATOM     10  C   UNL     1       2.761  -2.522  -0.354  0.00  0.00    +0.000 C 
BRANCH   9  12
ATOM     11  C   UNL     1      -0.010  -0.275  -0.225  0.00  0.00    +0.000 C 
ATOM     12  C   UNL     1       1.511  -0.337  -0.254  0.00  0.00    +0.000 C 
ATOM     13 CL   UNL     1       2.153   1.082  -1.130  0.00  0.00    +0.000 Cl
ENDBRANCH   9  12
ENDBRANCH   8  10
ENDBRANCH   1   8
TORSDOF 4
