MODEL 1
REMARK VINA RESULT:      -5.1      0.000      0.000
REMARK  Name = *****
REMARK  2 active torsions:
REMARK  status: ('A' for Active; 'I' for Inactive)
REMARK    1  A    between atoms: C_5  and  C_10
REMARK    2  A    between atoms: C_10  and  C_11
REMARK                            x       y       z     vdW  Elec       q    Type
REMARK                         _______ _______ _______ _____ _____    ______ ____
ROOT
ATOM      1  C   UNL     1      98.477 127.921  82.771  0.00  0.00    +0.000 A 
ATOM      2  C   UNL     1      99.270 126.828  82.383  0.00  0.00    +0.000 A 
ATOM      3  C   UNL     1     100.646 126.823  82.627  0.00  0.00    +0.000 A 
ATOM      4  C   UNL     1     101.204 127.926  83.254  0.00  0.00    +0.000 A 
ATOM      5  C   UNL     1     102.640 128.182  83.639  0.00  0.00    +0.000 C 
ATOM      6  C   UNL     1     102.504 129.548  84.297  0.00  0.00    +0.000 C 
ATOM      7  C   UNL     1     101.243 130.010  84.294  0.00  0.00    +0.000 C 
ATOM      8  C   UNL     1     100.410 129.012  83.647  0.00  0.00    +0.000 A 
ATOM      9  C   UNL     1      99.047 129.026  83.412  0.00  0.00    +0.000 A 
ENDROOT
BRANCH   5  10
ATOM     10  C   UNL     1     103.577 128.187  82.421  0.00  0.00    +0.000 C 
BRANCH  10  11
ATOM     11  C   UNL     1     103.864 126.806  81.883  0.00  0.00    +0.000 A 
ATOM     12  C   UNL     1     104.278 125.774  82.735  0.00  0.00    +0.000 A 
ATOM     13  C   UNL     1     104.531 124.497  82.226  0.00  0.00    +0.000 A 
ATOM     14  C   UNL     1     104.374 124.240  80.864  0.00  0.00    +0.000 A 
ATOM     15  C   UNL     1     103.964 125.260  80.008  0.00  0.00    +0.000 A 
ATOM     16  C   UNL     1     103.714 126.529  80.522  0.00  0.00    +0.000 A 
ATOM     17  F   UNL     1     103.320 127.500  79.684  0.00  0.00    +0.000 F 
ENDBRANCH  10  11
ENDBRANCH   5  10
TORSDOF 2
ENDMDL
