MODEL 1
REMARK VINA RESULT:      -4.7      0.000      0.000
REMARK  Name = *****
REMARK  4 active torsions:
REMARK  status: ('A' for Active; 'I' for Inactive)
REMARK    1  A    between atoms: C_1  and  C_2
REMARK    2  A    between atoms: C_7  and  C_8
REMARK    3  A    between atoms: C_8  and  O_10
REMARK    4  A    between atoms: O_10  and  C_11
REMARK                            x       y       z     vdW  Elec       q    Type
REMARK                         _______ _______ _______ _____ _____    ______ ____
ROOT
ATOM      1  C   UNL     1     102.163 125.826  82.569  0.00  0.00    +0.000 C 
ATOM      2  O   UNL     1     102.616 125.103  83.443  0.00  0.00    +0.000 OA
ENDROOT
BRANCH   1   9
ATOM      3  C   UNL     1     102.894 128.460  83.912  0.00  0.00    +0.000 C 
ATOM      4  C   UNL     1     101.508 128.133  83.434  0.00  0.00    +0.000 A 
ATOM      5  C   UNL     1     100.493 129.091  83.596  0.00  0.00    +0.000 A 
ATOM      6  C   UNL     1      99.181 128.822  83.202  0.00  0.00    +0.000 A 
ATOM      7  C   UNL     1      98.859 127.591  82.639  0.00  0.00    +0.000 A 
ATOM      8  C   UNL     1      99.853 126.631  82.457  0.00  0.00    +0.000 A 
ATOM      9  C   UNL     1     101.179 126.903  82.832  0.00  0.00    +0.000 A 
ENDBRANCH   1   9
BRANCH   1  10
ATOM     10  O   UNL     1     102.332 125.703  81.203  0.00  0.00    +0.000 OA
BRANCH  10  11
ATOM     11  C   UNL     1     103.669 125.487  80.856  0.00  0.00    +0.000 A 
ATOM     12  C   UNL     1     104.490 126.551  80.469  0.00  0.00    +0.000 A 
ATOM     13  C   UNL     1     105.811 126.297  80.095  0.00  0.00    +0.000 A 
ATOM     14  C   UNL     1     106.299 124.987  80.096  0.00  0.00    +0.000 A 
ATOM     15  C   UNL     1     105.462 123.932  80.467  0.00  0.00    +0.000 A 
ATOM     16  C   UNL     1     104.142 124.173  80.840  0.00  0.00    +0.000 A 
ATOM     17 CL   UNL     1     106.066 122.321  80.453  0.00  0.00    +0.000 Cl
ATOM     18 CL   UNL     1     103.913 128.173  80.429  0.00  0.00    +0.000 Cl
ENDBRANCH  10  11
ENDBRANCH   1  10
TORSDOF 3
ENDMDL
