MODEL 1
REMARK VINA RESULT:      -4.5      0.000      0.000
REMARK  Name = *****
REMARK  4 active torsions:
REMARK  status: ('A' for Active; 'I' for Inactive)
REMARK    1  A    between atoms: C_4  and  O_7
REMARK    2  A    between atoms: O_7  and  C_8
REMARK    3  A    between atoms: C_8  and  C_10
REMARK    4  A    between atoms: C_11  and  C_12
REMARK                            x       y       z     vdW  Elec       q    Type
REMARK                         _______ _______ _______ _____ _____    ______ ____
ROOT
ATOM      1  C   UNL     1     100.849 126.368  83.743  0.00  0.00    +0.000 C 
ATOM      2  O   UNL     1     100.677 125.696  84.743  0.00  0.00    +0.000 OA
ENDROOT
BRANCH   1   3
ATOM      3  C   UNL     1      99.833 126.717  82.724  0.00  0.00    +0.000 C 
ATOM      4  C   UNL     1      99.008 127.775  82.745  0.00  0.00    +0.000 C 
BRANCH   4   5
ATOM      5  C   UNL     1      98.951 128.849  83.742  0.00  0.00    +0.000 A 
ATOM      6  C   UNL     1      99.461 130.123  83.470  0.00  0.00    +0.000 A 
ATOM      7  C   UNL     1      99.357 131.142  84.420  0.00  0.00    +0.000 A 
ATOM      8  C   UNL     1      98.731 130.897  85.641  0.00  0.00    +0.000 A 
ATOM      9  C   UNL     1      98.210 129.633  85.914  0.00  0.00    +0.000 A 
ATOM     10  C   UNL     1      98.315 128.614  84.966  0.00  0.00    +0.000 A 
ENDBRANCH   4   5
ENDBRANCH   1   3
BRANCH   1  11
ATOM     11  O   UNL     1     102.020 126.934  83.349  0.00  0.00    +0.000 OA
BRANCH  11  15
ATOM     12  C   UNL     1     104.596 126.269  80.041  0.00  0.00    +0.000 C 
ATOM     13  C   UNL     1     103.690 125.120  80.474  0.00  0.00    +0.000 C 
ATOM     14  C   UNL     1     103.125 125.346  81.873  0.00  0.00    +0.000 C 
ATOM     15  C   UNL     1     102.404 126.693  81.983  0.00  0.00    +0.000 C 
ATOM     16  C   UNL     1     103.328 127.837  81.558  0.00  0.00    +0.000 C 
ATOM     17  C   UNL     1     103.892 127.618  80.158  0.00  0.00    +0.000 C 
ENDBRANCH  11  15
ENDBRANCH   1  11
TORSDOF 4
ENDMDL
