MODEL 1
REMARK VINA RESULT:      -4.0      0.000      0.000
REMARK  Name = *****
REMARK  6 active torsions:
REMARK  status: ('A' for Active; 'I' for Inactive)
REMARK    1  A    between atoms: C_1  and  C_2
REMARK    2  A    between atoms: C_4  and  C_17
REMARK    3  A    between atoms: C_6  and  O_8
REMARK    4  A    between atoms: O_8  and  C_9
REMARK    5  A    between atoms: C_9  and  C_11
REMARK    6  A    between atoms: C_11  and  C_12
REMARK                            x       y       z     vdW  Elec       q    Type
REMARK                         _______ _______ _______ _____ _____    ______ ____
ROOT
ATOM      1  O   UNL     1      87.582  63.858  86.342  0.00  0.00    +0.000 OA
ENDROOT
BRANCH   1   7
ATOM      2  C   UNL     1      89.045  63.826  90.573  0.00  0.00    +0.000 C 
ATOM      3  C   UNL     1      87.669  64.300  90.098  0.00  0.00    +0.000 C 
ATOM      4  C   UNL     1      86.571  63.274  90.421  0.00  0.00    +0.000 C 
ATOM      5  C   UNL     1      86.621  62.029  89.522  0.00  0.00    +0.000 C 
ATOM      6  C   UNL     1      86.611  62.423  88.042  0.00  0.00    +0.000 C 
ATOM      7  C   UNL     1      87.736  63.405  87.702  0.00  0.00    +0.000 C 
ATOM      8  C   UNL     1      87.669  64.641  88.603  0.00  0.00    +0.000 C 
ATOM      9  C   UNL     1      85.453  61.094  89.837  0.00  0.00    +0.000 C 
ENDBRANCH   1   7
BRANCH   1  10
ATOM     10  C   UNL     1      88.513  63.411  85.450  0.00  0.00    +0.000 C 
ATOM     11  O   UNL     1      88.290  62.630  84.534  0.00  0.00    +0.000 OA
BRANCH  10  12
ATOM     12  C   UNL     1      89.865  64.011  85.760  0.00  0.00    +0.000 C 
BRANCH  12  13
ATOM     13  C   UNL     1      89.838  65.485  85.506  0.00  0.00    +0.000 A 
ATOM     14  C   UNL     1      90.026  66.514  86.408  0.00  0.00    +0.000 A 
ATOM     15  C   UNL     1      89.931  67.796  85.795  0.00  0.00    +0.000 A 
ATOM     16  C   UNL     1      89.669  67.704  84.447  0.00  0.00    +0.000 A 
ATOM     17  S   UNL     1      89.542  66.082  83.926  0.00  0.00    +0.000 S 
ENDBRANCH  12  13
ENDBRANCH  10  12
ENDBRANCH   1  10
TORSDOF 4
ENDMDL
