MODEL 1
REMARK VINA RESULT:      -5.1      0.000      0.000
REMARK  Name = *****
REMARK  0 active torsions:
REMARK  status: ('A' for Active; 'I' for Inactive)
REMARK                            x       y       z     vdW  Elec       q    Type
REMARK                         _______ _______ _______ _____ _____    ______ ____
ROOT
ATOM      1  C   UNL     1     103.530 128.538  83.650  0.00  0.00    +0.000 C 
ATOM      2  C   UNL     1     102.464 128.547  84.749  0.00  0.00    +0.000 C 
ATOM      3  C   UNL     1     101.065 128.384  84.213  0.00  0.00    +0.000 A 
ATOM      4  C   UNL     1     100.314 129.492  83.800  0.00  0.00    +0.000 A 
ATOM      5  C   UNL     1      99.026 129.320  83.282  0.00  0.00    +0.000 A 
ATOM      6  C   UNL     1      98.476 128.042  83.169  0.00  0.00    +0.000 A 
ATOM      7  C   UNL     1      99.213 126.929  83.567  0.00  0.00    +0.000 A 
ATOM      8  C   UNL     1     100.505 127.103  84.073  0.00  0.00    +0.000 A 
ATOM      9  N   UNL     1     101.254 125.934  84.506  0.00  0.00    +0.000 N 
ATOM     10  O   UNL     1     100.717 125.238  85.358  0.00  0.00    +0.000 OA
ATOM     11  N   UNL     1     102.625 125.655  83.978  0.00  0.00    +0.000 N 
ATOM     12  C   UNL     1     103.048 126.177  82.716  0.00  0.00    +0.000 A 
ATOM     13  C   UNL     1     103.072 125.309  81.602  0.00  0.00    +0.000 A 
ATOM     14  C   UNL     1     103.443 125.751  80.333  0.00  0.00    +0.000 A 
ATOM     15  C   UNL     1     103.810 127.075  80.150  0.00  0.00    +0.000 A 
ATOM     16  C   UNL     1     103.807 127.949  81.238  0.00  0.00    +0.000 A 
ATOM     17  C   UNL     1     103.421 127.523  82.530  0.00  0.00    +0.000 A 
ATOM     18  O   UNL     1     103.295 124.500  84.442  0.00  0.00    +0.000 OA
ENDROOT
TORSDOF 0
ENDMDL
