REMARK  Name = *****
REMARK  4 active torsions:
REMARK  status: ('A' for Active; 'I' for Inactive)
REMARK    1  A    between atoms: C_1  and  C_2
REMARK    2  A    between atoms: C_3  and  C_16
REMARK    3  A    between atoms: C_5  and  C_7
REMARK    4  A    between atoms: C_8  and  C_9
REMARK                            x       y       z     vdW  Elec       q    Type
REMARK                         _______ _______ _______ _____ _____    ______ ____
ROOT
ATOM      1  C   UNL     1      -2.147  -1.810  -0.413  0.00  0.00    +0.000 C 
ATOM      2  C   UNL     1      -3.464  -1.554  -0.430  0.00  0.00    +0.000 C 
ENDROOT
BRANCH   2   3
ATOM      3  C   UNL     1      -4.494  -2.585  -0.609  0.00  0.00    +0.000 A 
ATOM      4  C   UNL     1      -5.685  -2.485   0.123  0.00  0.00    +0.000 A 
ATOM      5  C   UNL     1      -6.701  -3.432  -0.037  0.00  0.00    +0.000 A 
ATOM      6  C   UNL     1      -6.536  -4.477  -0.942  0.00  0.00    +0.000 A 
ATOM      7  C   UNL     1      -5.366  -4.581  -1.690  0.00  0.00    +0.000 A 
ATOM      8  C   UNL     1      -4.350  -3.634  -1.528  0.00  0.00    +0.000 A 
ATOM      9 CL   UNL     1      -7.785  -5.642  -1.142  0.00  0.00    +0.000 Cl
ENDBRANCH   2   3
BRANCH   1  14
ATOM     10  C   UNL     1       2.243   0.170   0.059  0.00  0.00    +0.000 C 
ATOM     11  C   UNL     1       0.772   0.168  -0.004  0.00  0.00    +0.000 A 
ATOM     12  C   UNL     1      -0.209   1.131   0.069  0.00  0.00    +0.000 A 
ATOM     13  N   UNL     1      -1.441   0.523  -0.056  0.00  0.00    +0.000 NA
ATOM     14  C   UNL     1      -1.194  -0.770  -0.225  0.00  0.00    +0.000 A 
ATOM     15  O   UNL     1       0.163  -1.036  -0.195  0.00  0.00    +0.000 OA
BRANCH  12  16
ATOM     16  C   UNL     1      -0.090   2.592   0.276  0.00  0.00    +0.000 C 
ATOM     17 CL   UNL     1       0.687   3.347  -1.133  0.00  0.00    +0.000 Cl
ENDBRANCH  12  16
ENDBRANCH   1  14
TORSDOF 3
