REMARK  Name = *****
REMARK  3 active torsions:
REMARK  status: ('A' for Active; 'I' for Inactive)
REMARK    1  A    between atoms: C_4  and  C_7
REMARK    2  A    between atoms: C_7  and  S_8
REMARK    3  A    between atoms: S_8  and  C_9
REMARK                            x       y       z     vdW  Elec       q    Type
REMARK                         _______ _______ _______ _____ _____    ______ ____
ROOT
ATOM      1  C   UNL     1      -2.874   0.284  -0.250  0.00  0.00    +0.000 C 
ENDROOT
BRANCH   1   5
ATOM      2  C   UNL     1       1.402  -0.159   0.124  0.00  0.00    +0.000 A 
ATOM      3  C   UNL     1       0.585  -1.288   0.077  0.00  0.00    +0.000 A 
ATOM      4  C   UNL     1      -0.798  -1.146  -0.047  0.00  0.00    +0.000 A 
ATOM      5  C   UNL     1      -1.378   0.128  -0.129  0.00  0.00    +0.000 A 
ATOM      6  C   UNL     1      -0.546   1.257  -0.071  0.00  0.00    +0.000 A 
ATOM      7  C   UNL     1       0.836   1.112   0.052  0.00  0.00    +0.000 A 
ENDBRANCH   1   5
BRANCH   1   8
ATOM      8  S   UNL     1      -3.664   0.391   1.381  0.00  0.00    +0.000 S 
BRANCH   8   9
ATOM      9  C   UNL     1      -5.337   0.594   0.912  0.00  0.00    +0.000 A 
ATOM     10  N   UNL     1      -5.714   0.626  -0.349  0.00  0.00    +0.000 NA
ATOM     11  C   UNL     1      -7.087   0.800  -0.410  0.00  0.00    +0.000 A 
ATOM     12  C   UNL     1      -7.708   0.894   0.809  0.00  0.00    +0.000 A 
ATOM     13  S   UNL     1      -6.591   0.767   2.076  0.00  0.00    +0.000 S 
ATOM     14 CL   UNL     1      -9.375   1.111   1.126  0.00  0.00    +0.000 Cl
ENDBRANCH   8   9
ENDBRANCH   1   8
TORSDOF 3
