REMARK  Name = *****
REMARK  3 active torsions:
REMARK  status: ('A' for Active; 'I' for Inactive)
REMARK    1  A    between atoms: C_1  and  C_2
REMARK    2  A    between atoms: C_5  and  C_8
REMARK    3  A    between atoms: C_15  and  C_17
REMARK                            x       y       z     vdW  Elec       q    Type
REMARK                         _______ _______ _______ _____ _____    ______ ____
ROOT
ATOM      1  C   UNL     1      -3.468   0.701  -0.237  0.00  0.00    +0.000 A 
ATOM      2  N   UNL     1      -4.288   1.304  -1.082  0.00  0.00    +0.000 NA
ATOM      3  C   UNL     1      -5.533   1.060  -0.559  0.00  0.00    +0.000 A 
ATOM      4  C   UNL     1      -5.419   0.312   0.599  0.00  0.00    +0.000 A 
ATOM      5  O   UNL     1      -4.094   0.075   0.815  0.00  0.00    +0.000 OA
ATOM      6  C   UNL     1      -6.487  -0.103   1.382  0.00  0.00    +0.000 A 
ATOM      7  C   UNL     1      -7.757   0.282   0.930  0.00  0.00    +0.000 A 
ATOM      8  C   UNL     1      -7.929   1.030  -0.249  0.00  0.00    +0.000 A 
ATOM      9  C   UNL     1      -6.808   1.438  -1.000  0.00  0.00    +0.000 A 
ATOM     10  C   UNL     1      -9.306   1.450  -0.679  0.00  0.00    +0.000 C 
ENDROOT
BRANCH   1  15
ATOM     11  C   UNL     1       2.310   0.442  -0.458  0.00  0.00    +0.000 C 
ATOM     12  C   UNL     1       0.811   0.481  -0.411  0.00  0.00    +0.000 A 
ATOM     13  C   UNL     1       0.088   1.181  -1.381  0.00  0.00    +0.000 A 
ATOM     14  C   UNL     1      -1.308   1.243  -1.316  0.00  0.00    +0.000 A 
ATOM     15  C   UNL     1      -2.010   0.617  -0.276  0.00  0.00    +0.000 A 
ATOM     16  C   UNL     1      -1.277  -0.069   0.702  0.00  0.00    +0.000 A 
ATOM     17  C   UNL     1       0.119  -0.133   0.639  0.00  0.00    +0.000 A 
ENDBRANCH   1  15
TORSDOF 1
