REMARK  Name = *****
REMARK  4 active torsions:
REMARK  status: ('A' for Active; 'I' for Inactive)
REMARK    1  A    between atoms: C_6  and  S_7
REMARK    2  A    between atoms: S_7  and  C_8
REMARK    3  A    between atoms: C_8  and  C_9
REMARK    4  A    between atoms: C_10  and  C_14
REMARK                            x       y       z     vdW  Elec       q    Type
REMARK                         _______ _______ _______ _____ _____    ______ ____
ROOT
ATOM      1  S   UNL     1       4.170   0.024   0.024  0.00  0.00    +0.000 S 
ENDROOT
BRANCH   1   7
ATOM      2  C   UNL     1       1.599  -0.866  -0.014  0.00  0.00    +0.000 A 
ATOM      3  C   UNL     1       0.204  -0.775  -0.033  0.00  0.00    +0.000 A 
ATOM      4  C   UNL     1      -0.404   0.475  -0.035  0.00  0.00    +0.000 A 
ATOM      5  C   UNL     1       0.373   1.630  -0.017  0.00  0.00    +0.000 A 
ATOM      6  C   UNL     1       1.770   1.536   0.001  0.00  0.00    +0.000 A 
ATOM      7  C   UNL     1       2.401   0.287   0.003  0.00  0.00    +0.000 A 
ATOM      8 CL   UNL     1      -2.119   0.596  -0.059  0.00  0.00    +0.000 Cl
ENDBRANCH   1   7
BRANCH   1   9
ATOM      9  C   UNL     1       4.858   1.711   0.074  0.00  0.00    +0.000 C 
BRANCH   9  10
ATOM     10  C   UNL     1       6.361   1.652   0.118  0.00  0.00    +0.000 A 
ATOM     11  C   UNL     1       7.137   1.583   1.268  0.00  0.00    +0.000 A 
ATOM     12  S   UNL     1       8.812   1.535   0.922  0.00  0.00    +0.000 S 
ATOM     13  C   UNL     1       8.535   1.600  -0.760  0.00  0.00    +0.000 A 
ATOM     14  C   UNL     1       7.192   1.660  -1.057  0.00  0.00    +0.000 A 
BRANCH  11  15
ATOM     15  C   UNL     1       6.638   1.558   2.609  0.00  0.00    +0.000 C 
ATOM     16  N   UNL     1       6.208   1.559   3.687  0.00  0.00    +0.000 NA
ENDBRANCH  11  15
ENDBRANCH   9  10
ENDBRANCH   1   9
TORSDOF 4
