REMARK  Name = *****
REMARK  5 active torsions:
REMARK  status: ('A' for Active; 'I' for Inactive)
REMARK    1  A    between atoms: C_1  and  C_2
REMARK    2  A    between atoms: C_6  and  C_17
REMARK    3  A    between atoms: N_7  and  N_8
REMARK    4  A    between atoms: N_8  and  C_9
REMARK    5  A    between atoms: C_9  and  C_10
REMARK                            x       y       z     vdW  Elec       q    Type
REMARK                         _______ _______ _______ _____ _____    ______ ____
ROOT
ATOM      1  N   UNL     1       3.737  -2.162   0.274  0.00  0.00    +0.000 NA
ENDROOT
BRANCH   1   8
ATOM      2  C   UNL     1       1.007   0.317  -0.032  0.00  0.00    +0.000 C 
ATOM      3  C   UNL     1       2.467  -0.143   0.044  0.00  0.00    +0.000 C 
ATOM      4  C   UNL     1       3.396   0.710  -0.836  0.00  0.00    +0.000 C 
ATOM      5  C   UNL     1       3.242   0.409  -2.323  0.00  0.00    +0.000 C 
ATOM      6  C   UNL     1       3.339  -1.090  -2.584  0.00  0.00    +0.000 C 
ATOM      7  C   UNL     1       2.374  -1.875  -1.684  0.00  0.00    +0.000 C 
ATOM      8  N   UNL     1       2.604  -1.598  -0.240  0.00  0.00    +0.000 NA
ATOM      9  C   UNL     1       2.455  -3.377  -1.981  0.00  0.00    +0.000 C 
ENDBRANCH   1   8
BRANCH   1  10
ATOM     10  C   UNL     1       3.546  -2.691   1.442  0.00  0.00    +0.000 C 
BRANCH  10  11
ATOM     11  C   UNL     1       4.636  -3.354   2.183  0.00  0.00    +0.000 A 
ATOM     12  C   UNL     1       5.921  -3.445   1.637  0.00  0.00    +0.000 A 
ATOM     13  C   UNL     1       6.939  -4.077   2.356  0.00  0.00    +0.000 A 
ATOM     14  C   UNL     1       6.667  -4.613   3.614  0.00  0.00    +0.000 A 
ATOM     15  C   UNL     1       5.386  -4.524   4.161  0.00  0.00    +0.000 A 
ATOM     16  C   UNL     1       4.365  -3.893   3.444  0.00  0.00    +0.000 A 
ATOM     17 CL   UNL     1       7.919  -5.391   4.501  0.00  0.00    +0.000 Cl
ENDBRANCH  10  11
ENDBRANCH   1  10
TORSDOF 3
