MODEL 1
REMARK VINA RESULT:      -4.5      0.000      0.000
REMARK  Name = *****
REMARK  2 active torsions:
REMARK  status: ('A' for Active; 'I' for Inactive)
REMARK    1  A    between atoms: C_3  and  C_7
REMARK    2  A    between atoms: C_8  and  C_9
REMARK                            x       y       z     vdW  Elec       q    Type
REMARK                         _______ _______ _______ _____ _____    ______ ____
ROOT
ATOM      1  C   UNL     1      97.976 118.489  80.621  0.00  0.00    +0.000 C 
ATOM      2  C   UNL     1      97.523 117.565  80.000  0.00  0.00    +0.000 C 
ENDROOT
BRANCH   1   5
ATOM      3  C   UNL     1      96.359 120.592  82.236  0.00  0.00    +0.000 C 
ATOM      4  C   UNL     1      97.608 120.826  81.379  0.00  0.00    +0.000 C 
ATOM      5  C   UNL     1      98.558 119.622  81.371  0.00  0.00    +0.000 C 
ATOM      6  C   UNL     1      98.944 119.211  82.806  0.00  0.00    +0.000 C 
ATOM      7  C   UNL     1      97.819 119.300  83.800  0.00  0.00    +0.000 C 
ATOM      8  C   UNL     1      96.654 119.909  83.538  0.00  0.00    +0.000 C 
ENDBRANCH   1   5
BRANCH   2   9
ATOM      9  C   UNL     1      97.002 116.463  79.253  0.00  0.00    +0.000 A 
ATOM     10  C   UNL     1      96.157 115.536  79.869  0.00  0.00    +0.000 A 
ATOM     11  C   UNL     1      95.637 114.468  79.136  0.00  0.00    +0.000 A 
ATOM     12  C   UNL     1      95.960 114.324  77.787  0.00  0.00    +0.000 A 
ATOM     13  C   UNL     1      96.805 115.247  77.170  0.00  0.00    +0.000 A 
ATOM     14  C   UNL     1      97.326 116.316  77.902  0.00  0.00    +0.000 A 
ENDBRANCH   2   9
TORSDOF 2
ENDMDL
