MODEL 1
REMARK VINA RESULT:      -4.7      0.000      0.000
REMARK  Name = *****
REMARK  3 active torsions:
REMARK  status: ('A' for Active; 'I' for Inactive)
REMARK    1  A    between atoms: C_6  and  C_7
REMARK    2  A    between atoms: C_7  and  O_9
REMARK    3  A    between atoms: O_9  and  C_10
REMARK                            x       y       z     vdW  Elec       q    Type
REMARK                         _______ _______ _______ _____ _____    ______ ____
ROOT
ATOM      1  C   UNL     1      88.036  70.521  88.068  0.00  0.00    +0.000 C 
ATOM      2  O   UNL     1      88.599  70.505  89.152  0.00  0.00    +0.000 OA
ENDROOT
BRANCH   1   8
ATOM      3  C   UNL     1      85.878  71.584  88.886  0.00  0.00    +0.000 A 
ATOM      4  C   UNL     1      84.663  72.217  88.606  0.00  0.00    +0.000 A 
ATOM      5  C   UNL     1      84.304  72.465  87.286  0.00  0.00    +0.000 A 
ATOM      6  C   UNL     1      85.134  72.092  86.236  0.00  0.00    +0.000 A 
ATOM      7  C   UNL     1      86.348  71.457  86.510  0.00  0.00    +0.000 A 
ATOM      8  C   UNL     1      86.730  71.200  87.837  0.00  0.00    +0.000 A 
ATOM      9  F   UNL     1      83.140  73.073  87.024  0.00  0.00    +0.000 F 
ENDBRANCH   1   8
BRANCH   1  10
ATOM     10  O   UNL     1      88.475  69.937  86.894  0.00  0.00    +0.000 OA
BRANCH  10  11
ATOM     11  C   UNL     1      88.621  68.549  86.964  0.00  0.00    +0.000 A 
ATOM     12  C   UNL     1      89.723  67.973  86.336  0.00  0.00    +0.000 A 
ATOM     13  C   UNL     1      89.868  66.584  86.348  0.00  0.00    +0.000 A 
ATOM     14  C   UNL     1      88.902  65.784  86.974  0.00  0.00    +0.000 A 
ATOM     15  C   UNL     1      87.790  66.377  87.582  0.00  0.00    +0.000 A 
ATOM     16  C   UNL     1      87.641  67.764  87.572  0.00  0.00    +0.000 A 
ATOM     17 CL   UNL     1      89.018  64.060  87.022  0.00  0.00    +0.000 Cl
ATOM     18 CL   UNL     1      91.257  65.916  85.564  0.00  0.00    +0.000 Cl
ENDBRANCH  10  11
ENDBRANCH   1  10
TORSDOF 3
ENDMDL
