MODEL 1
REMARK VINA RESULT:      -4.4      0.000      0.000
REMARK  Name = *****
REMARK  5 active torsions:
REMARK  status: ('A' for Active; 'I' for Inactive)
REMARK    1  A    between atoms: C_1  and  C_2
REMARK    2  A    between atoms: C_5  and  S_8
REMARK    3  A    between atoms: S_8  and  C_9
REMARK    4  A    between atoms: C_9  and  C_11
REMARK    5  A    between atoms: C_14  and  C_16
REMARK                            x       y       z     vdW  Elec       q    Type
REMARK                         _______ _______ _______ _____ _____    ______ ____
ROOT
ATOM      1  S   UNL     1      89.162  70.035  87.233  0.00  0.00    +0.000 S 
ENDROOT
BRANCH   1   6
ATOM      2  C   UNL     1      83.669  72.674  87.282  0.00  0.00    +0.000 C 
ATOM      3  C   UNL     1      85.038  72.063  87.261  0.00  0.00    +0.000 A 
ATOM      4  C   UNL     1      85.678  71.793  86.047  0.00  0.00    +0.000 A 
ATOM      5  C   UNL     1      86.940  71.189  86.030  0.00  0.00    +0.000 A 
ATOM      6  C   UNL     1      87.580  70.851  87.226  0.00  0.00    +0.000 A 
ATOM      7  C   UNL     1      86.929  71.097  88.438  0.00  0.00    +0.000 A 
ATOM      8  C   UNL     1      85.666  71.698  88.456  0.00  0.00    +0.000 A 
ENDBRANCH   1   6
BRANCH   1   9
ATOM      9  C   UNL     1      89.131  69.103  85.734  0.00  0.00    +0.000 C 
ATOM     10  O   UNL     1      88.492  68.062  85.617  0.00  0.00    +0.000 OA
BRANCH   9  11
ATOM     11  C   UNL     1      89.930  69.650  84.636  0.00  0.00    +0.000 A 
ATOM     12  N   UNL     1      90.259  68.966  83.525  0.00  0.00    +0.000 NA
ATOM     13  O   UNL     1      91.003  69.828  82.744  0.00  0.00    +0.000 OA
ATOM     14  C   UNL     1      91.130  71.023  83.375  0.00  0.00    +0.000 A 
ATOM     15  C   UNL     1      90.470  70.966  84.575  0.00  0.00    +0.000 A 
ATOM     16  C   UNL     1      91.895  72.066  82.670  0.00  0.00    +0.000 C 
ENDBRANCH   9  11
ENDBRANCH   1   9
TORSDOF 3
ENDMDL
