REMARK  Name = *****
REMARK  3 active torsions:
REMARK  status: ('A' for Active; 'I' for Inactive)
REMARK    1  A    between atoms: C_2  and  C_10
REMARK    2  A    between atoms: C_10  and  S_12
REMARK    3  A    between atoms: S_12  and  C_13
REMARK                            x       y       z     vdW  Elec       q    Type
REMARK                         _______ _______ _______ _____ _____    ______ ____
ROOT
ATOM      1  C   UNL     1       0.946   1.430  -0.249  0.00  0.00    +0.000 C 
ATOM      2  C   UNL     1       1.372  -0.022   0.040  0.00  0.00    +0.000 C 
ATOM      3  C   UNL     1       0.747  -0.416   1.381  0.00  0.00    +0.000 C 
ATOM      4  O   UNL     1      -0.670  -0.306   1.346  0.00  0.00    +0.000 OA
ATOM      5  P   UNL     1      -1.336   0.229  -0.028  0.00  0.00    +0.000 P 
ATOM      6  S   UNL     1      -3.248   0.392  -0.073  0.00  0.00    +0.000 S 
ATOM      7  O   UNL     1      -0.469   1.569  -0.277  0.00  0.00    +0.000 OA
ATOM      8  O   UNL     1      -0.654  -0.767  -1.105  0.00  0.00    +0.000 OA
ATOM      9  C   UNL     1       0.761  -0.898  -1.059  0.00  0.00    +0.000 C 
ENDROOT
BRANCH   2  10
ATOM     10  C   UNL     1       2.891  -0.104   0.079  0.00  0.00    +0.000 C 
ATOM     11  O   UNL     1       3.611   0.881  -0.043  0.00  0.00    +0.000 OA
BRANCH  10  12
ATOM     12  S   UNL     1       3.597  -1.712   0.279  0.00  0.00    +0.000 S 
BRANCH  12  13
ATOM     13  C   UNL     1       4.549  -1.483   1.766  0.00  0.00    +0.000 A 
ATOM     14  C   UNL     1       4.195  -2.185   2.923  0.00  0.00    +0.000 A 
ATOM     15  C   UNL     1       4.943  -2.040   4.093  0.00  0.00    +0.000 A 
ATOM     16  C   UNL     1       6.053  -1.198   4.112  0.00  0.00    +0.000 A 
ATOM     17  C   UNL     1       6.419  -0.504   2.960  0.00  0.00    +0.000 A 
ATOM     18  C   UNL     1       5.671  -0.648   1.789  0.00  0.00    +0.000 A 
ENDBRANCH  12  13
ENDBRANCH  10  12
ENDBRANCH   2  10
TORSDOF 3
