REMARK  Name = *****
REMARK  4 active torsions:
REMARK  status: ('A' for Active; 'I' for Inactive)
REMARK    1  A    between atoms: C_3  and  C_11
REMARK    2  A    between atoms: C_5  and  C_7
REMARK    3  A    between atoms: C_12  and  C_13
REMARK    4  A    between atoms: C_15  and  C_18
REMARK                            x       y       z     vdW  Elec       q    Type
REMARK                         _______ _______ _______ _____ _____    ______ ____
ROOT
ATOM      1  C   UNL     1       1.353  -0.119  -0.405  0.00  0.00    +0.000 A 
ATOM      2  C   UNL     1       0.531  -1.248  -0.430  0.00  0.00    +0.000 A 
ATOM      3  C   UNL     1      -0.792  -1.177   0.022  0.00  0.00    +0.000 A 
ATOM      4  C   UNL     1      -1.288   0.054   0.473  0.00  0.00    +0.000 A 
ATOM      5  C   UNL     1      -0.472   1.198   0.502  0.00  0.00    +0.000 A 
ATOM      6  C   UNL     1       0.856   1.096   0.061  0.00  0.00    +0.000 A 
ENDROOT
BRANCH   5   7
ATOM      7  C   UNL     1      -1.000   2.520   1.001  0.00  0.00    +0.000 C 
ATOM      8  F   UNL     1      -2.325   2.496   1.316  0.00  0.00    +0.000 F 
ATOM      9  F   UNL     1      -0.358   2.946   2.123  0.00  0.00    +0.000 F 
ATOM     10  F   UNL     1      -0.854   3.519   0.086  0.00  0.00    +0.000 F 
ENDBRANCH   5   7
BRANCH   3  11
ATOM     11  C   UNL     1      -1.698  -2.333  -0.014  0.00  0.00    +0.000 C 
ATOM     12  C   UNL     1      -1.320  -3.593   0.255  0.00  0.00    +0.000 C 
BRANCH  12  13
ATOM     13  C   UNL     1      -2.251  -4.668   0.213  0.00  0.00    +0.000 A 
ATOM     14  N   UNL     1      -3.548  -4.596  -0.066  0.00  0.00    +0.000 NA
ATOM     15  C   UNL     1      -4.020  -5.890   0.005  0.00  0.00    +0.000 A 
ATOM     16  C   UNL     1      -2.984  -6.721   0.351  0.00  0.00    +0.000 A 
ATOM     17  O   UNL     1      -1.862  -5.968   0.484  0.00  0.00    +0.000 OA
BRANCH  15  18
ATOM     18  C   UNL     1      -5.445  -6.209  -0.238  0.00  0.00    +0.000 C 
ATOM     19 CL   UNL     1      -5.598  -7.282  -1.647  0.00  0.00    +0.000 Cl
ENDBRANCH  15  18
ENDBRANCH  12  13
ENDBRANCH   3  11
TORSDOF 4
