MODEL 1
REMARK VINA RESULT:      -4.4      0.000      0.000
REMARK  Name = *****
REMARK  6 active torsions:
REMARK  status: ('A' for Active; 'I' for Inactive)
REMARK    1  A    between atoms: C_1  and  C_2
REMARK    2  A    between atoms: C_2  and  O_4
REMARK    3  A    between atoms: O_4  and  C_5
REMARK    4  A    between atoms: C_5  and  C_6
REMARK    5  A    between atoms: C_5  and  C_13
REMARK    6  A    between atoms: C_6  and  C_7
REMARK                            x       y       z     vdW  Elec       q    Type
REMARK                         _______ _______ _______ _____ _____    ______ ____
ROOT
ATOM      1  C   UNL     1      88.786  70.179  85.715  0.00  0.00    +0.000 C 
ENDROOT
BRANCH   1   2
ATOM      2  C   UNL     1      87.502  70.854  86.173  0.00  0.00    +0.000 A 
ATOM      3  C   UNL     1      86.630  71.416  85.229  0.00  0.00    +0.000 A 
ATOM      4  C   UNL     1      85.439  72.023  85.633  0.00  0.00    +0.000 A 
ATOM      5  C   UNL     1      85.105  72.074  86.984  0.00  0.00    +0.000 A 
ATOM      6  C   UNL     1      85.960  71.519  87.934  0.00  0.00    +0.000 A 
ATOM      7  C   UNL     1      87.151  70.911  87.531  0.00  0.00    +0.000 A 
ENDBRANCH   1   2
BRANCH   1   8
ATOM      8  O   UNL     1      89.704  71.216  85.309  0.00  0.00    +0.000 OA
BRANCH   8  10
ATOM      9  C   UNL     1      89.827  69.860  83.412  0.00  0.00    +0.000 C 
ATOM     10  C   UNL     1      90.455  70.964  84.206  0.00  0.00    +0.000 C 
ATOM     11  O   UNL     1      91.489  71.531  83.888  0.00  0.00    +0.000 OA
ENDBRANCH   8  10
ENDBRANCH   1   8
BRANCH   1  12
ATOM     12  C   UNL     1      89.415  69.370  86.870  0.00  0.00    +0.000 C 
BRANCH  12  13
ATOM     13  C   UNL     1      89.320  67.866  86.689  0.00  0.00    +0.000 C 
ATOM     14  C   UNL     1      90.285  67.166  86.064  0.00  0.00    +0.000 C 
ATOM     15  C   UNL     1      90.226  65.683  85.834  0.00  0.00    +0.000 C 
ATOM     16  C   UNL     1      88.843  65.089  86.093  0.00  0.00    +0.000 C 
ATOM     17  C   UNL     1      88.228  65.666  87.361  0.00  0.00    +0.000 C 
ATOM     18  C   UNL     1      88.098  67.190  87.269  0.00  0.00    +0.000 C 
ENDBRANCH  12  13
ENDBRANCH   1  12
TORSDOF 5
ENDMDL
