MODEL 1
REMARK VINA RESULT:      -4.9      0.000      0.000
REMARK  Name = *****
REMARK  3 active torsions:
REMARK  status: ('A' for Active; 'I' for Inactive)
REMARK    1  A    between atoms: C_1  and  C_2
REMARK    2  A    between atoms: C_4  and  C_8
REMARK    3  A    between atoms: C_8  and  C_9
REMARK                            x       y       z     vdW  Elec       q    Type
REMARK                         _______ _______ _______ _____ _____    ______ ____
ROOT
ATOM      1  C   UNL     1      89.237  68.524  86.962  0.00  0.00    +0.000 A 
ATOM      2  N   UNL     1      88.369  67.563  87.229  0.00  0.00    +0.000 NA
ATOM      3  C   UNL     1      88.955  66.444  86.695  0.00  0.00    +0.000 A 
ATOM      4  C   UNL     1      88.525  65.111  86.647  0.00  0.00    +0.000 A 
ATOM      5  C   UNL     1      89.357  64.170  86.023  0.00  0.00    +0.000 A 
ATOM      6  C   UNL     1      90.584  64.546  85.463  0.00  0.00    +0.000 A 
ATOM      7  C   UNL     1      91.029  65.874  85.502  0.00  0.00    +0.000 A 
ATOM      8  C   UNL     1      90.175  66.775  86.129  0.00  0.00    +0.000 A 
ATOM      9  O   UNL     1      90.369  68.114  86.303  0.00  0.00    +0.000 OA
ENDROOT
BRANCH   1  10
ATOM     10  C   UNL     1      89.150  69.972  87.302  0.00  0.00    +0.000 C 
BRANCH  10  14
ATOM     11  C   UNL     1      84.653  72.138  88.119  0.00  0.00    +0.000 C 
ATOM     12  C   UNL     1      85.726  71.675  87.179  0.00  0.00    +0.000 A 
ATOM     13  C   UNL     1      86.897  71.072  87.660  0.00  0.00    +0.000 A 
ATOM     14  C   UNL     1      87.898  70.637  86.778  0.00  0.00    +0.000 A 
ATOM     15  C   UNL     1      87.711  70.814  85.399  0.00  0.00    +0.000 A 
ATOM     16  C   UNL     1      86.552  71.418  84.914  0.00  0.00    +0.000 A 
ATOM     17  C   UNL     1      85.564  71.845  85.799  0.00  0.00    +0.000 A 
ENDBRANCH  10  14
ENDBRANCH   1  10
TORSDOF 2
ENDMDL
