MODEL 1
REMARK VINA RESULT:      -4.3      0.000      0.000
REMARK  Name = *****
REMARK  4 active torsions:
REMARK  status: ('A' for Active; 'I' for Inactive)
REMARK    1  A    between atoms: C_1  and  C_2
REMARK    2  A    between atoms: N_5  and  S_8
REMARK    3  A    between atoms: S_8  and  C_11
REMARK    4  A    between atoms: C_11  and  C_12
REMARK                            x       y       z     vdW  Elec       q    Type
REMARK                         _______ _______ _______ _____ _____    ______ ____
ROOT
ATOM      1  S   UNL     1      89.629  67.476  85.430  0.00  0.00    +0.000 S 
ATOM      2  O   UNL     1      90.124  67.791  84.107  0.00  0.00    +0.000 OA
ATOM      3  O   UNL     1      90.537  67.225  86.532  0.00  0.00    +0.000 OA
ENDROOT
BRANCH   1   8
ATOM      4  C   UNL     1      89.513  72.461  83.881  0.00  0.00    +0.000 C 
ATOM      5  C   UNL     1      88.846  71.453  84.815  0.00  0.00    +0.000 C 
ATOM      6  C   UNL     1      88.180  70.326  84.017  0.00  0.00    +0.000 C 
ATOM      7  C   UNL     1      87.598  69.246  84.927  0.00  0.00    +0.000 C 
ATOM      8  N   UNL     1      88.593  68.746  85.907  0.00  0.00    +0.000 NA
ATOM      9  C   UNL     1      89.204  69.837  86.709  0.00  0.00    +0.000 C 
ATOM     10  C   UNL     1      89.862  70.873  85.808  0.00  0.00    +0.000 C 
ENDBRANCH   1   8
BRANCH   1  11
ATOM     11  C   UNL     1      88.472  66.100  85.328  0.00  0.00    +0.000 C 
BRANCH  11  12
ATOM     12  C   UNL     1      88.198  65.575  86.716  0.00  0.00    +0.000 A 
ATOM     13  C   UNL     1      88.836  64.414  87.176  0.00  0.00    +0.000 A 
ATOM     14  C   UNL     1      88.579  63.926  88.460  0.00  0.00    +0.000 A 
ATOM     15  C   UNL     1      87.680  64.593  89.288  0.00  0.00    +0.000 A 
ATOM     16  C   UNL     1      87.033  65.744  88.843  0.00  0.00    +0.000 A 
ATOM     17  C   UNL     1      87.290  66.233  87.560  0.00  0.00    +0.000 A 
ATOM     18 CL   UNL     1      87.365  63.994  90.870  0.00  0.00    +0.000 Cl
ENDBRANCH  11  12
ENDBRANCH   1  11
TORSDOF 3
ENDMDL
