MODEL 1
REMARK VINA RESULT:      -4.5      0.000      0.000
REMARK  Name = *****
REMARK  2 active torsions:
REMARK  status: ('A' for Active; 'I' for Inactive)
REMARK    1  A    between atoms: C_6  and  C_7
REMARK    2  A    between atoms: C_8  and  C_10
REMARK                            x       y       z     vdW  Elec       q    Type
REMARK                         _______ _______ _______ _____ _____    ______ ____
ROOT
ATOM      1  C   UNL     1      87.732  65.545  87.312  0.00  0.00    +0.000 C 
ATOM      2  C   UNL     1      88.313  64.603  88.356  0.00  0.00    +0.000 C 
ATOM      3  O   UNL     1      88.562  64.429  86.953  0.00  0.00    +0.000 OA
ENDROOT
BRANCH   1   9
ATOM      4  C   UNL     1      87.692  68.040  87.761  0.00  0.00    +0.000 A 
ATOM      5  C   UNL     1      88.209  69.329  87.606  0.00  0.00    +0.000 A 
ATOM      6  C   UNL     1      89.346  69.521  86.834  0.00  0.00    +0.000 A 
ATOM      7  C   UNL     1      89.974  68.450  86.216  0.00  0.00    +0.000 A 
ATOM      8  C   UNL     1      89.453  67.163  86.374  0.00  0.00    +0.000 A 
ATOM      9  C   UNL     1      88.305  66.929  87.153  0.00  0.00    +0.000 A 
ATOM     10  F   UNL     1      89.841  70.756  86.682  0.00  0.00    +0.000 F 
ENDBRANCH   1   9
BRANCH   2  11
ATOM     11  C   UNL     1      87.405  63.615  89.043  0.00  0.00    +0.000 A 
ATOM     12  C   UNL     1      87.019  62.414  88.422  0.00  0.00    +0.000 A 
ATOM     13  C   UNL     1      86.177  61.501  89.062  0.00  0.00    +0.000 A 
ATOM     14  C   UNL     1      85.717  61.780  90.341  0.00  0.00    +0.000 A 
ATOM     15  C   UNL     1      86.083  62.951  90.989  0.00  0.00    +0.000 A 
ATOM     16  C   UNL     1      86.922  63.861  90.342  0.00  0.00    +0.000 A 
ATOM     17  F   UNL     1      84.910  60.907  90.959  0.00  0.00    +0.000 F 
ENDBRANCH   2  11
TORSDOF 2
ENDMDL
