MODEL 1
REMARK VINA RESULT:      -4.9      0.000      0.000
REMARK  Name = *****
REMARK  3 active torsions:
REMARK  status: ('A' for Active; 'I' for Inactive)
REMARK    1  A    between atoms: C_4  and  C_7
REMARK    2  A    between atoms: C_8  and  C_9
REMARK    3  A    between atoms: C_12  and  S_15
REMARK                            x       y       z     vdW  Elec       q    Type
REMARK                         _______ _______ _______ _____ _____    ______ ____
ROOT
ATOM      1  C   UNL     1     103.791 124.704  81.589  0.00  0.00    +0.000 A 
ATOM      2  C   UNL     1     104.218 123.966  82.703  0.00  0.00    +0.000 A 
ATOM      3  C   UNL     1     105.224 123.004  82.578  0.00  0.00    +0.000 A 
ATOM      4  C   UNL     1     105.807 122.776  81.329  0.00  0.00    +0.000 A 
ATOM      5  C   UNL     1     105.373 123.480  80.203  0.00  0.00    +0.000 A 
ATOM      6  C   UNL     1     104.366 124.439  80.338  0.00  0.00    +0.000 A 
ENDROOT
BRANCH   4   7
ATOM      7  S   UNL     1     107.064 121.541  81.157  0.00  0.00    +0.000 S 
ATOM      8  O   UNL     1     106.475 120.233  81.357  0.00  0.00    +0.000 OA
ATOM      9  O   UNL     1     107.889 121.863  80.011  0.00  0.00    +0.000 OA
ATOM     10 CL   UNL     1     108.217 121.898  82.805  0.00  0.00    +0.000 Cl
ENDBRANCH   4   7
BRANCH   1  12
ATOM     11  C   UNL     1     102.012 125.945  82.795  0.00  0.00    +0.000 C 
ATOM     12  C   UNL     1     102.713 125.699  81.677  0.00  0.00    +0.000 C 
BRANCH  11  16
ATOM     13  C   UNL     1      98.945 128.906  83.161  0.00  0.00    +0.000 A 
ATOM     14  C   UNL     1      98.651 127.685  82.557  0.00  0.00    +0.000 A 
ATOM     15  C   UNL     1      99.645 126.712  82.425  0.00  0.00    +0.000 A 
ATOM     16  C   UNL     1     100.946 126.955  82.886  0.00  0.00    +0.000 A 
ATOM     17  C   UNL     1     101.224 128.179  83.506  0.00  0.00    +0.000 A 
ATOM     18  C   UNL     1     100.230 129.153  83.638  0.00  0.00    +0.000 A 
ENDBRANCH  11  16
ENDBRANCH   1  12
TORSDOF 3
ENDMDL
