MODEL 1
REMARK VINA RESULT:      -4.5      0.000      0.000
REMARK  Name = *****
REMARK  4 active torsions:
REMARK  status: ('A' for Active; 'I' for Inactive)
REMARK    1  A    between atoms: C_4  and  S_7
REMARK    2  A    between atoms: S_7  and  C_9
REMARK    3  A    between atoms: C_9  and  C_10
REMARK    4  A    between atoms: C_15  and  C_16
REMARK                            x       y       z     vdW  Elec       q    Type
REMARK                         _______ _______ _______ _____ _____    ______ ____
ROOT
ATOM      1  C   UNL     1      95.974 114.792  79.617  0.00  0.00    +0.000 A 
ATOM      2  C   UNL     1      95.207 113.657  79.932  0.00  0.00    +0.000 A 
ATOM      3  C   UNL     1      94.702 112.829  78.930  0.00  0.00    +0.000 A 
ATOM      4  C   UNL     1      94.959 113.119  77.595  0.00  0.00    +0.000 A 
ATOM      5  C   UNL     1      95.727 114.234  77.262  0.00  0.00    +0.000 A 
ATOM      6  C   UNL     1      96.252 115.080  78.258  0.00  0.00    +0.000 A 
ENDROOT
BRANCH   6   7
ATOM      7  C   UNL     1      97.076 116.279  77.845  0.00  0.00    +0.000 C 
ATOM      8  F   UNL     1      96.464 117.463  78.137  0.00  0.00    +0.000 F 
ATOM      9  F   UNL     1      98.300 116.341  78.438  0.00  0.00    +0.000 F 
ATOM     10  F   UNL     1      97.310 116.308  76.503  0.00  0.00    +0.000 F 
ENDBRANCH   6   7
BRANCH   1  11
ATOM     11  C   UNL     1      96.498 115.642  80.756  0.00  0.00    +0.000 C 
BRANCH  11  12
ATOM     12  S   UNL     1      95.221 116.789  81.385  0.00  0.00    +0.000 S 
ATOM     13  O   UNL     1      94.208 116.979  80.291  0.00  0.00    +0.000 OA
BRANCH  12  17
ATOM     14  C   UNL     1      97.859 120.564  81.339  0.00  0.00    +0.000 A 
ATOM     15  C   UNL     1      96.494 120.677  81.602  0.00  0.00    +0.000 A 
ATOM     16  C   UNL     1      95.689 119.538  81.619  0.00  0.00    +0.000 A 
ATOM     17  C   UNL     1      96.246 118.279  81.370  0.00  0.00    +0.000 A 
ATOM     18  C   UNL     1      97.618 118.170  81.117  0.00  0.00    +0.000 A 
ATOM     19  C   UNL     1      98.421 119.311  81.098  0.00  0.00    +0.000 A 
ENDBRANCH  12  17
ENDBRANCH  11  12
ENDBRANCH   1  11
TORSDOF 4
ENDMDL
