REMARK  Name = *****
REMARK  4 active torsions:
REMARK  status: ('A' for Active; 'I' for Inactive)
REMARK    1  A    between atoms: C_1  and  C_2
REMARK    2  A    between atoms: C_5  and  C_8
REMARK    3  A    between atoms: C_8  and  C_9
REMARK    4  A    between atoms: C_9  and  C_11
REMARK                            x       y       z     vdW  Elec       q    Type
REMARK                         _______ _______ _______ _____ _____    ______ ____
ROOT
ATOM      1  C   UNL     1      -2.240  -2.043   0.353  0.00  0.00    +0.000 C 
ENDROOT
BRANCH   1   6
ATOM      2  C   UNL     1       2.527   1.199  -0.501  0.00  0.00    +0.000 C 
ATOM      3  C   UNL     1       1.313   0.348  -0.278  0.00  0.00    +0.000 A 
ATOM      4  C   UNL     1       0.627  -0.213  -1.361  0.00  0.00    +0.000 A 
ATOM      5  C   UNL     1      -0.514  -0.980  -1.142  0.00  0.00    +0.000 A 
ATOM      6  C   UNL     1      -1.013  -1.193   0.145  0.00  0.00    +0.000 A 
ATOM      7  C   UNL     1      -0.329  -0.628   1.229  0.00  0.00    +0.000 A 
ATOM      8  C   UNL     1       0.819   0.142   1.017  0.00  0.00    +0.000 A 
ATOM      9  F   UNL     1      -1.149  -1.510  -2.198  0.00  0.00    +0.000 F 
ENDBRANCH   1   6
BRANCH   1  10
ATOM     10  C   UNL     1      -1.939  -3.526   0.499  0.00  0.00    +0.000 C 
ATOM     11  O   UNL     1      -0.815  -3.959   0.752  0.00  0.00    +0.000 OA
BRANCH  10  12
ATOM     12  C   UNL     1      -3.069  -4.497   0.369  0.00  0.00    +0.000 A 
ATOM     13  C   UNL     1      -4.409  -4.092   0.341  0.00  0.00    +0.000 A 
ATOM     14  C   UNL     1      -5.428  -5.043   0.224  0.00  0.00    +0.000 A 
ATOM     15  C   UNL     1      -5.115  -6.399   0.138  0.00  0.00    +0.000 A 
ATOM     16  C   UNL     1      -3.785  -6.811   0.171  0.00  0.00    +0.000 A 
ATOM     17  C   UNL     1      -2.765  -5.864   0.288  0.00  0.00    +0.000 A 
ENDBRANCH  10  12
ENDBRANCH   1  10
TORSDOF 3
