REMARK  Name = *****
REMARK  4 active torsions:
REMARK  status: ('A' for Active; 'I' for Inactive)
REMARK    1  A    between atoms: C_1  and  C_2
REMARK    2  A    between atoms: C_5  and  C_8
REMARK    3  A    between atoms: C_9  and  C_10
REMARK    4  A    between atoms: C_10  and  C_11
REMARK                            x       y       z     vdW  Elec       q    Type
REMARK                         _______ _______ _______ _____ _____    ______ ____
ROOT
ATOM      1  C   UNL     1      -3.248   0.046   0.048  0.00  0.00    +0.000 C 
ATOM      2  C   UNL     1      -4.019   1.141  -0.062  0.00  0.00    +0.000 C 
ENDROOT
BRANCH   1   7
ATOM      3  C   UNL     1       2.538  -0.050  -0.104  0.00  0.00    +0.000 C 
ATOM      4  C   UNL     1       1.040   0.003  -0.090  0.00  0.00    +0.000 A 
ATOM      5  C   UNL     1       0.372   1.044   0.564  0.00  0.00    +0.000 A 
ATOM      6  C   UNL     1      -1.026   1.075   0.605  0.00  0.00    +0.000 A 
ATOM      7  C   UNL     1      -1.780   0.067  -0.006  0.00  0.00    +0.000 A 
ATOM      8  C   UNL     1      -1.109  -0.990  -0.631  0.00  0.00    +0.000 A 
ATOM      9  C   UNL     1       0.288  -1.022  -0.674  0.00  0.00    +0.000 A 
ENDBRANCH   1   7
BRANCH   2  10
ATOM     10  C   UNL     1      -5.520   1.115  -0.006  0.00  0.00    +0.000 C 
BRANCH  10  11
ATOM     11  C   UNL     1      -6.065   1.980   1.106  0.00  0.00    +0.000 A 
ATOM     12  C   UNL     1      -6.606   3.244   0.829  0.00  0.00    +0.000 A 
ATOM     13  C   UNL     1      -7.099   4.044   1.862  0.00  0.00    +0.000 A 
ATOM     14  C   UNL     1      -7.052   3.592   3.180  0.00  0.00    +0.000 A 
ATOM     15  C   UNL     1      -6.509   2.341   3.467  0.00  0.00    +0.000 A 
ATOM     16  C   UNL     1      -6.017   1.539   2.437  0.00  0.00    +0.000 A 
ENDBRANCH  10  11
ENDBRANCH   2  10
TORSDOF 3
