MODEL 1
REMARK VINA RESULT:      -4.9      0.000      0.000
REMARK  Name = *****
REMARK  4 active torsions:
REMARK  status: ('A' for Active; 'I' for Inactive)
REMARK    1  A    between atoms: C_1  and  O_2
REMARK    2  A    between atoms: O_2  and  C_3
REMARK    3  A    between atoms: C_6  and  C_9
REMARK    4  A    between atoms: C_10  and  C_11
REMARK                            x       y       z     vdW  Elec       q    Type
REMARK                         _______ _______ _______ _____ _____    ______ ____
ROOT
ATOM      1  C   UNL     1     102.839 126.200  81.571  0.00  0.00    +0.000 C 
ATOM      2  C   UNL     1     101.809 126.065  82.424  0.00  0.00    +0.000 C 
ENDROOT
BRANCH   2   3
ATOM      3  C   UNL     1     100.893 127.151  82.813  0.00  0.00    +0.000 A 
ATOM      4  C   UNL     1     101.332 128.314  83.462  0.00  0.00    +0.000 A 
ATOM      5  C   UNL     1     100.432 129.335  83.787  0.00  0.00    +0.000 A 
ATOM      6  C   UNL     1      99.083 129.215  83.456  0.00  0.00    +0.000 A 
ATOM      7  C   UNL     1      98.633 128.076  82.794  0.00  0.00    +0.000 A 
ATOM      8  C   UNL     1      99.536 127.061  82.474  0.00  0.00    +0.000 A 
ATOM      9  F   UNL     1      99.070 125.981  81.827  0.00  0.00    +0.000 F 
ENDBRANCH   2   3
BRANCH   1  13
ATOM     10  C   UNL     1     105.550 123.012  80.621  0.00  0.00    +0.000 A 
ATOM     11  C   UNL     1     105.350 124.045  79.706  0.00  0.00    +0.000 A 
ATOM     12  C   UNL     1     104.461 125.087  80.002  0.00  0.00    +0.000 A 
ATOM     13  C   UNL     1     103.751 125.105  81.210  0.00  0.00    +0.000 A 
ATOM     14  C   UNL     1     103.969 124.074  82.129  0.00  0.00    +0.000 A 
ATOM     15  C   UNL     1     104.857 123.035  81.832  0.00  0.00    +0.000 A 
BRANCH  10  17
ATOM     16  C   UNL     1     106.527 121.065  81.571  0.00  0.00    +0.000 C 
ATOM     17  O   UNL     1     106.386 121.943  80.460  0.00  0.00    +0.000 OA
ENDBRANCH  10  17
ENDBRANCH   1  13
TORSDOF 3
ENDMDL
