MODEL 1
REMARK VINA RESULT:      -5.0      0.000      0.000
REMARK  Name = *****
REMARK  7 active torsions:
REMARK  status: ('A' for Active; 'I' for Inactive)
REMARK    1  A    between atoms: C_1  and  C_2
REMARK    2  A    between atoms: C_4  and  C_19
REMARK    3  A    between atoms: C_6  and  C_8
REMARK    4  A    between atoms: C_8  and  O_9
REMARK    5  A    between atoms: O_9  and  C_10
REMARK    6  A    between atoms: N_16  and  C_17
REMARK    7  A    between atoms: N_16  and  C_18
REMARK                            x       y       z     vdW  Elec       q    Type
REMARK                         _______ _______ _______ _____ _____    ______ ____
ROOT
ATOM      1  O   UNL     1      89.190  69.935  85.262  0.00  0.00    +0.000 OA
ENDROOT
BRANCH   1   2
ATOM      2  C   UNL     1      89.635  68.635  85.168  0.00  0.00    +0.000 A 
ATOM      3  N   UNL     1      89.881  68.070  83.973  0.00  0.00    +0.000 NA
ATOM      4  N   UNL     1      90.330  66.769  83.916  0.00  0.00    +0.000 NA
ATOM      5  C   UNL     1      90.513  66.033  85.039  0.00  0.00    +0.000 A 
ATOM      6  C   UNL     1      90.270  66.629  86.276  0.00  0.00    +0.000 A 
ATOM      7  C   UNL     1      89.820  67.946  86.346  0.00  0.00    +0.000 A 
ATOM      8  N   UNL     1      90.984  64.703  84.974  0.00  0.00    +0.000 N 
ATOM      9  C   UNL     1      91.386  64.315  83.620  0.00  0.00    +0.000 C 
ATOM     10  C   UNL     1      90.095  63.746  85.632  0.00  0.00    +0.000 C 
ENDBRANCH   1   2
BRANCH   1  11
ATOM     11  C   UNL     1      89.037  70.373  86.614  0.00  0.00    +0.000 C 
BRANCH  11  17
ATOM     12  C   UNL     1      84.853  72.374  84.621  0.00  0.00    +0.000 C 
ATOM     13  C   UNL     1      85.622  71.898  85.818  0.00  0.00    +0.000 A 
ATOM     14  C   UNL     1      85.093  72.053  87.106  0.00  0.00    +0.000 A 
ATOM     15  C   UNL     1      85.813  71.638  88.232  0.00  0.00    +0.000 A 
ATOM     16  C   UNL     1      87.093  71.097  88.062  0.00  0.00    +0.000 A 
ATOM     17  C   UNL     1      87.646  70.941  86.782  0.00  0.00    +0.000 A 
ATOM     18  C   UNL     1      86.903  71.353  85.666  0.00  0.00    +0.000 A 
ATOM     19  C   UNL     1      85.250  71.834  89.609  0.00  0.00    +0.000 C 
ENDBRANCH  11  17
ENDBRANCH   1  11
TORSDOF 3
ENDMDL
