MODEL 1
REMARK VINA RESULT:      -4.8      0.000      0.000
REMARK  Name = *****
REMARK  4 active torsions:
REMARK  status: ('A' for Active; 'I' for Inactive)
REMARK    1  A    between atoms: C_4  and  C_7
REMARK    2  A    between atoms: C_7  and  O_8
REMARK    3  A    between atoms: O_8  and  C_9
REMARK    4  A    between atoms: C_9  and  C_11
REMARK                            x       y       z     vdW  Elec       q    Type
REMARK                         _______ _______ _______ _____ _____    ______ ____
ROOT
ATOM      1  C   UNL     1     101.792 126.011  83.023  0.00  0.00    +0.000 C 
ATOM      2  O   UNL     1     102.143 125.254  83.911  0.00  0.00    +0.000 OA
ENDROOT
BRANCH   1   3
ATOM      3  C   UNL     1     101.054 127.277  83.240  0.00  0.00    +0.000 A 
ATOM      4  C   UNL     1      99.740 127.389  82.776  0.00  0.00    +0.000 A 
ATOM      5  C   UNL     1      99.020 128.568  82.946  0.00  0.00    +0.000 A 
ATOM      6  C   UNL     1      99.622 129.644  83.586  0.00  0.00    +0.000 A 
ATOM      7  C   UNL     1     100.929 129.559  84.056  0.00  0.00    +0.000 A 
ATOM      8  C   UNL     1     101.649 128.375  83.883  0.00  0.00    +0.000 A 
ATOM      9  F   UNL     1      98.934 130.781  83.754  0.00  0.00    +0.000 F 
ATOM     10  F   UNL     1      99.127 126.361  82.174  0.00  0.00    +0.000 F 
ENDBRANCH   1   3
BRANCH   1  11
ATOM     11  O   UNL     1     102.008 125.843  81.694  0.00  0.00    +0.000 OA
BRANCH  11  12
ATOM     12  C   UNL     1     103.277 126.287  81.184  0.00  0.00    +0.000 C 
BRANCH  12  16
ATOM     13  C   UNL     1     106.236 123.357  79.832  0.00  0.00    +0.000 C 
ATOM     14  C   UNL     1     104.969 122.836  80.501  0.00  0.00    +0.000 C 
ATOM     15  C   UNL     1     104.243 123.935  81.273  0.00  0.00    +0.000 C 
ATOM     16  C   UNL     1     103.944 125.155  80.387  0.00  0.00    +0.000 C 
ATOM     17  C   UNL     1     105.226 125.666  79.713  0.00  0.00    +0.000 C 
ATOM     18  C   UNL     1     105.943 124.561  78.943  0.00  0.00    +0.000 C 
ENDBRANCH  12  16
ENDBRANCH  11  12
ENDBRANCH   1  11
TORSDOF 4
ENDMDL
