MODEL 1
REMARK VINA RESULT:      -4.7      0.000      0.000
REMARK  Name = *****
REMARK  2 active torsions:
REMARK  status: ('A' for Active; 'I' for Inactive)
REMARK    1  A    between atoms: C_4  and  C_7
REMARK    2  A    between atoms: C_8  and  C_10
REMARK                            x       y       z     vdW  Elec       q    Type
REMARK                         _______ _______ _______ _____ _____    ______ ____
ROOT
ATOM      1  C   UNL     1      88.436  67.327  86.572  0.00  0.00    +0.000 A 
ATOM      2  C   UNL     1      89.205  67.641  85.441  0.00  0.00    +0.000 A 
ATOM      3  C   UNL     1      89.694  68.927  85.219  0.00  0.00    +0.000 A 
ATOM      4  C   UNL     1      89.419  69.940  86.123  0.00  0.00    +0.000 A 
ATOM      5  C   UNL     1      88.651  69.668  87.244  0.00  0.00    +0.000 A 
ATOM      6  C   UNL     1      88.166  68.381  87.459  0.00  0.00    +0.000 A 
ATOM      7  F   UNL     1      87.417  68.142  88.547  0.00  0.00    +0.000 F 
ATOM      8  F   UNL     1      88.372  70.643  88.119  0.00  0.00    +0.000 F 
ATOM      9  F   UNL     1      89.885  71.178  85.910  0.00  0.00    +0.000 F 
ATOM     10  F   UNL     1      90.425  69.185  84.125  0.00  0.00    +0.000 F 
ATOM     11  F   UNL     1      89.470  66.684  84.540  0.00  0.00    +0.000 F 
ENDROOT
BRANCH   1  13
ATOM     12  C   UNL     1      88.552  65.027  87.841  0.00  0.00    +0.000 C 
ATOM     13  C   UNL     1      87.902  65.941  86.807  0.00  0.00    +0.000 C 
ATOM     14  O   UNL     1      88.744  64.840  86.432  0.00  0.00    +0.000 OA
BRANCH  12  18
ATOM     15  C   UNL     1      86.092  62.195  90.005  0.00  0.00    +0.000 A 
ATOM     16  C   UNL     1      86.448  61.939  88.684  0.00  0.00    +0.000 A 
ATOM     17  C   UNL     1      87.241  62.852  87.984  0.00  0.00    +0.000 A 
ATOM     18  C   UNL     1      87.691  64.040  88.584  0.00  0.00    +0.000 A 
ATOM     19  C   UNL     1      87.320  64.272  89.920  0.00  0.00    +0.000 A 
ATOM     20  C   UNL     1      86.529  63.362  90.625  0.00  0.00    +0.000 A 
ENDBRANCH  12  18
ENDBRANCH   1  13
TORSDOF 2
ENDMDL
