MODEL 1
REMARK VINA RESULT:      -4.4      0.000      0.000
REMARK  Name = *****
REMARK  4 active torsions:
REMARK  status: ('A' for Active; 'I' for Inactive)
REMARK    1  A    between atoms: C_4  and  C_7
REMARK    2  A    between atoms: C_7  and  C_8
REMARK    3  A    between atoms: C_8  and  C_9
REMARK    4  A    between atoms: C_9  and  C_11
REMARK                            x       y       z     vdW  Elec       q    Type
REMARK                         _______ _______ _______ _____ _____    ______ ____
ROOT
ATOM      1  C   UNL     1      87.477  70.071  88.351  0.00  0.00    +0.000 C 
ENDROOT
BRANCH   1   2
ATOM      2  C   UNL     1      86.541  71.257  88.531  0.00  0.00    +0.000 C 
ATOM      3  O   UNL     1      86.430  71.848  89.604  0.00  0.00    +0.000 OA
BRANCH   2   4
ATOM      4  C   UNL     1      85.726  71.709  87.360  0.00  0.00    +0.000 A 
ATOM      5  C   UNL     1      86.149  71.530  86.037  0.00  0.00    +0.000 A 
ATOM      6  C   UNL     1      85.349  71.970  84.978  0.00  0.00    +0.000 A 
ATOM      7  C   UNL     1      84.125  72.588  85.233  0.00  0.00    +0.000 A 
ATOM      8  C   UNL     1      83.697  72.769  86.546  0.00  0.00    +0.000 A 
ATOM      9  C   UNL     1      84.494  72.332  87.607  0.00  0.00    +0.000 A 
ENDBRANCH   2   4
ENDBRANCH   1   2
BRANCH   1  10
ATOM     10  C   UNL     1      88.945  70.500  88.272  0.00  0.00    +0.000 C 
BRANCH  10  14
ATOM     11  C   UNL     1      89.713  68.914  84.255  0.00  0.00    +0.000 C 
ATOM     12  C   UNL     1      90.307  70.273  84.605  0.00  0.00    +0.000 C 
ATOM     13  C   UNL     1      89.643  70.882  85.840  0.00  0.00    +0.000 C 
ATOM     14  C   UNL     1      89.688  69.930  87.047  0.00  0.00    +0.000 C 
ATOM     15  C   UNL     1      89.094  68.561  86.673  0.00  0.00    +0.000 C 
ATOM     16  C   UNL     1      89.766  67.960  85.442  0.00  0.00    +0.000 C 
ENDBRANCH  10  14
ENDBRANCH   1  10
TORSDOF 4
ENDMDL
