REMARK  Name = *****
REMARK  3 active torsions:
REMARK  status: ('A' for Active; 'I' for Inactive)
REMARK    1  A    between atoms: C_3  and  C_4
REMARK    2  A    between atoms: C_9  and  C_10
REMARK    3  A    between atoms: C_11  and  C_12
REMARK                            x       y       z     vdW  Elec       q    Type
REMARK                         _______ _______ _______ _____ _____    ______ ____
ROOT
ATOM      1  C   UNL     1       4.405  -0.536  -1.351  0.00  0.00    +0.000 A 
ATOM      2  C   UNL     1       4.035   0.101  -2.551  0.00  0.00    +0.000 A 
ATOM      3  C   UNL     1       4.818  -0.007  -3.704  0.00  0.00    +0.000 A 
ATOM      4  C   UNL     1       5.990  -0.753  -3.682  0.00  0.00    +0.000 A 
ATOM      5  C   UNL     1       6.379  -1.392  -2.506  0.00  0.00    +0.000 A 
ATOM      6  C   UNL     1       5.599  -1.289  -1.344  0.00  0.00    +0.000 A 
ENDROOT
BRANCH   1   9
ATOM      7  C   UNL     1       1.257   0.796  -0.048  0.00  0.00    +0.000 C 
ATOM      8  C   UNL     1       2.409   0.200  -0.102  0.00  0.00    +0.000 C 
ATOM      9  C   UNL     1       3.562  -0.404  -0.143  0.00  0.00    +0.000 C 
ENDBRANCH   1   9
BRANCH   6  10
ATOM     10  C   UNL     1       6.068  -1.979  -0.175  0.00  0.00    +0.000 C 
ATOM     11  C   UNL     1       6.464  -2.560   0.800  0.00  0.00    +0.000 C 
BRANCH  11  12
ATOM     12  C   UNL     1       6.931  -3.249   1.963  0.00  0.00    +0.000 A 
ATOM     13  C   UNL     1       8.056  -4.072   1.884  0.00  0.00    +0.000 A 
ATOM     14  C   UNL     1       8.511  -4.745   3.020  0.00  0.00    +0.000 A 
ATOM     15  C   UNL     1       7.841  -4.595   4.234  0.00  0.00    +0.000 A 
ATOM     16  C   UNL     1       6.717  -3.774   4.315  0.00  0.00    +0.000 A 
ATOM     17  C   UNL     1       6.261  -3.100   3.180  0.00  0.00    +0.000 A 
ENDBRANCH  11  12
ENDBRANCH   6  10
TORSDOF 3
