MODEL 1
REMARK VINA RESULT:      -4.8      0.000      0.000
REMARK  Name = *****
REMARK  2 active torsions:
REMARK  status: ('A' for Active; 'I' for Inactive)
REMARK    1  A    between atoms: C_4  and  C_7
REMARK    2  A    between atoms: C_8  and  C_9
REMARK                            x       y       z     vdW  Elec       q    Type
REMARK                         _______ _______ _______ _____ _____    ______ ____
ROOT
ATOM      1  C   UNL     1      89.012  64.500  86.657  0.00  0.00    +0.000 A 
ATOM      2  C   UNL     1      89.861  63.934  85.693  0.00  0.00    +0.000 A 
ATOM      3  C   UNL     1      90.796  64.758  85.029  0.00  0.00    +0.000 A 
ATOM      4  C   UNL     1      90.925  66.107  85.343  0.00  0.00    +0.000 A 
ATOM      5  C   UNL     1      90.099  66.656  86.324  0.00  0.00    +0.000 A 
ATOM      6  C   UNL     1      89.149  65.860  86.974  0.00  0.00    +0.000 A 
ATOM      7  S   UNL     1      91.766  63.923  83.791  0.00  0.00    +0.000 S 
ATOM      8  S   UNL     1      91.022  62.080  84.292  0.00  0.00    +0.000 S 
ATOM      9  N   UNL     1      89.747  62.585  85.254  0.00  0.00    +0.000 N 
ATOM     10  H   UNL     1      88.990  62.003  85.493  0.00  0.00    +0.000 HD
ENDROOT
BRANCH   1  12
ATOM     11  C   UNL     1      87.892  63.725  88.690  0.00  0.00    +0.000 C 
ATOM     12  C   UNL     1      87.995  63.706  87.352  0.00  0.00    +0.000 C 
BRANCH  11  16
ATOM     13  C   UNL     1      85.072  61.493  91.009  0.00  0.00    +0.000 A 
ATOM     14  C   UNL     1      85.511  60.983  89.789  0.00  0.00    +0.000 A 
ATOM     15  C   UNL     1      86.426  61.705  89.017  0.00  0.00    +0.000 A 
ATOM     16  C   UNL     1      86.903  62.949  89.452  0.00  0.00    +0.000 A 
ATOM     17  C   UNL     1      86.465  63.442  90.689  0.00  0.00    +0.000 A 
ATOM     18  C   UNL     1      85.551  62.721  91.460  0.00  0.00    +0.000 A 
ENDBRANCH  11  16
ENDBRANCH   1  12
TORSDOF 2
ENDMDL
