MODEL 1
REMARK VINA RESULT:      -5.1      0.000      0.000
REMARK  Name = *****
REMARK  4 active torsions:
REMARK  status: ('A' for Active; 'I' for Inactive)
REMARK    1  A    between atoms: C_1  and  C_2
REMARK    2  A    between atoms: C_5  and  C_8
REMARK    3  A    between atoms: C_8  and  C_9
REMARK    4  A    between atoms: C_9  and  C_10
REMARK                            x       y       z     vdW  Elec       q    Type
REMARK                         _______ _______ _______ _____ _____    ______ ____
ROOT
ATOM      1  C   UNL     1      88.748  70.434  86.685  0.00  0.00    +0.000 C 
ATOM      2  F   UNL     1      87.865  70.976  87.587  0.00  0.00    +0.000 F 
ATOM      3  F   UNL     1      89.963  70.971  87.032  0.00  0.00    +0.000 F 
ENDROOT
BRANCH   1   8
ATOM      4  C   UNL     1      88.856  64.612  87.145  0.00  0.00    +0.000 C 
ATOM      5  C   UNL     1      88.817  66.105  87.003  0.00  0.00    +0.000 A 
ATOM      6  C   UNL     1      89.896  66.792  86.436  0.00  0.00    +0.000 A 
ATOM      7  C   UNL     1      89.874  68.185  86.333  0.00  0.00    +0.000 A 
ATOM      8  C   UNL     1      88.776  68.918  86.805  0.00  0.00    +0.000 A 
ATOM      9  C   UNL     1      87.703  68.228  87.389  0.00  0.00    +0.000 A 
ATOM     10  C   UNL     1      87.728  66.835  87.491  0.00  0.00    +0.000 A 
ENDBRANCH   1   8
BRANCH   1  11
ATOM     11  C   UNL     1      88.369  70.904  85.245  0.00  0.00    +0.000 C 
ATOM     12  F   UNL     1      87.375  71.851  85.348  0.00  0.00    +0.000 F 
ATOM     13  F   UNL     1      87.766  69.852  84.594  0.00  0.00    +0.000 F 
BRANCH  11  14
ATOM     14  C   UNL     1      89.500  71.453  84.376  0.00  0.00    +0.000 A 
ATOM     15  C   UNL     1      90.589  70.694  83.920  0.00  0.00    +0.000 A 
ATOM     16  C   UNL     1      91.583  71.276  83.129  0.00  0.00    +0.000 A 
ATOM     17  C   UNL     1      91.507  72.623  82.781  0.00  0.00    +0.000 A 
ATOM     18  C   UNL     1      90.434  73.392  83.223  0.00  0.00    +0.000 A 
ATOM     19  C   UNL     1      89.442  72.811  84.014  0.00  0.00    +0.000 A 
ENDBRANCH  11  14
ENDBRANCH   1  11
TORSDOF 3
ENDMDL
