MODEL 1
REMARK VINA RESULT:      -4.5      0.000      0.000
REMARK  Name = *****
REMARK  4 active torsions:
REMARK  status: ('A' for Active; 'I' for Inactive)
REMARK    1  A    between atoms: C_1  and  C_2
REMARK    2  A    between atoms: C_2  and  C_12
REMARK    3  A    between atoms: C_3  and  C_5
REMARK    4  A    between atoms: C_3  and  C_6
REMARK                            x       y       z     vdW  Elec       q    Type
REMARK                         _______ _______ _______ _____ _____    ______ ____
ROOT
ATOM      1  C   UNL     1     102.917 128.071  84.411  0.00  0.00    +0.000 C 
ATOM      2  C   UNL     1     102.060 127.191  83.536  0.00  0.00    +0.000 C 
ATOM      3  C   UNL     1     100.522 127.359  83.502  0.00  0.00    +0.000 C 
ATOM      4  O   UNL     1     101.174 126.364  84.309  0.00  0.00    +0.000 OA
ATOM      5  C   UNL     1      99.699 126.743  82.401  0.00  0.00    +0.000 C 
ENDROOT
BRANCH   3   6
ATOM      6  C   UNL     1      99.890 128.545  84.201  0.00  0.00    +0.000 A 
ATOM      7  C   UNL     1      99.815 129.802  83.574  0.00  0.00    +0.000 A 
ATOM      8  C   UNL     1      99.227 130.898  84.209  0.00  0.00    +0.000 A 
ATOM      9  C   UNL     1      98.697 130.759  85.488  0.00  0.00    +0.000 A 
ATOM     10  C   UNL     1      98.754 129.526  86.130  0.00  0.00    +0.000 A 
ATOM     11  C   UNL     1      99.342 128.432  85.490  0.00  0.00    +0.000 A 
ENDBRANCH   3   6
BRANCH   2  12
ATOM     12  C   UNL     1     102.766 126.570  82.348  0.00  0.00    +0.000 A 
ATOM     13  C   UNL     1     103.107 125.207  82.324  0.00  0.00    +0.000 A 
ATOM     14  C   UNL     1     103.763 124.639  81.231  0.00  0.00    +0.000 A 
ATOM     15  C   UNL     1     104.099 125.428  80.134  0.00  0.00    +0.000 A 
ATOM     16  C   UNL     1     103.778 126.782  80.131  0.00  0.00    +0.000 A 
ATOM     17  C   UNL     1     103.120 127.344  81.229  0.00  0.00    +0.000 A 
ENDBRANCH   2  12
TORSDOF 2
ENDMDL
