MODEL 1
REMARK VINA RESULT:      -3.7      0.000      0.000
REMARK  Name = *****
REMARK  4 active torsions:
REMARK  status: ('A' for Active; 'I' for Inactive)
REMARK    1  A    between atoms: C_4  and  O_7
REMARK    2  A    between atoms: O_7  and  S_8
REMARK    3  A    between atoms: S_8  and  O_10
REMARK    4  A    between atoms: O_10  and  C_11
REMARK                            x       y       z     vdW  Elec       q    Type
REMARK                         _______ _______ _______ _____ _____    ______ ____
ROOT
ATOM      1  S   UNL     1      89.631  69.104  83.827  0.00  0.00    +0.000 S 
ATOM      2  O   UNL     1      90.220  69.452  82.492  0.00  0.00    +0.000 OA
ENDROOT
BRANCH   1   3
ATOM      3  O   UNL     1      90.321  70.053  84.928  0.00  0.00    +0.000 OA
BRANCH   3   7
ATOM      4  C   UNL     1      87.047  70.492  87.575  0.00  0.00    +0.000 C 
ATOM      5  C   UNL     1      88.457  70.479  88.158  0.00  0.00    +0.000 C 
ATOM      6  C   UNL     1      89.472  69.939  87.155  0.00  0.00    +0.000 C 
ATOM      7  C   UNL     1      89.431  70.710  85.831  0.00  0.00    +0.000 C 
ATOM      8  C   UNL     1      88.011  70.707  85.252  0.00  0.00    +0.000 C 
ATOM      9  C   UNL     1      86.992  71.248  86.251  0.00  0.00    +0.000 C 
ENDBRANCH   3   7
ENDBRANCH   1   3
BRANCH   1  10
ATOM     10  O   UNL     1      90.294  67.718  84.305  0.00  0.00    +0.000 OA
BRANCH  10  11
ATOM     11  C   UNL     1      89.408  66.788  84.930  0.00  0.00    +0.000 C 
ATOM     12  C   UNL     1      87.981  67.347  84.914  0.00  0.00    +0.000 C 
ATOM     13  C   UNL     1      87.022  66.471  85.716  0.00  0.00    +0.000 C 
ATOM     14  C   UNL     1      87.514  66.260  87.145  0.00  0.00    +0.000 C 
ATOM     15  C   UNL     1      88.938  65.714  87.175  0.00  0.00    +0.000 C 
ATOM     16  C   UNL     1      89.892  66.591  86.371  0.00  0.00    +0.000 C 
ENDBRANCH  10  11
ENDBRANCH   1  10
TORSDOF 4
ENDMDL
