MODEL 1
REMARK VINA RESULT:      -4.9      0.000      0.000
REMARK  Name = *****
REMARK  4 active torsions:
REMARK  status: ('A' for Active; 'I' for Inactive)
REMARK    1  A    between atoms: C_3  and  C_11
REMARK    2  A    between atoms: C_5  and  C_7
REMARK    3  A    between atoms: C_11  and  O_12
REMARK    4  A    between atoms: O_12  and  C_13
REMARK                            x       y       z     vdW  Elec       q    Type
REMARK                         _______ _______ _______ _____ _____    ______ ____
ROOT
ATOM      1  C   UNL     1      98.780 127.230  82.441  0.00  0.00    +0.000 A 
ATOM      2  C   UNL     1     100.015 126.581  82.438  0.00  0.00    +0.000 A 
ATOM      3  C   UNL     1     101.151 127.212  82.960  0.00  0.00    +0.000 A 
ATOM      4  C   UNL     1     101.032 128.515  83.469  0.00  0.00    +0.000 A 
ATOM      5  C   UNL     1      99.791 129.174  83.487  0.00  0.00    +0.000 A 
ATOM      6  C   UNL     1      98.668 128.518  82.962  0.00  0.00    +0.000 A 
ENDROOT
BRANCH   5   7
ATOM      7  C   UNL     1      99.677 130.582  84.018  0.00  0.00    +0.000 C 
ATOM      8  F   UNL     1      99.354 131.492  83.056  0.00  0.00    +0.000 F 
ATOM      9  F   UNL     1      98.722 130.699  84.981  0.00  0.00    +0.000 F 
ATOM     10  F   UNL     1     100.834 131.034  84.580  0.00  0.00    +0.000 F 
ENDBRANCH   5   7
BRANCH   3  11
ATOM     11  C   UNL     1     102.494 126.523  82.938  0.00  0.00    +0.000 C 
BRANCH  11  12
ATOM     12  O   UNL     1     102.444 125.495  81.951  0.00  0.00    +0.000 OA
BRANCH  12  13
ATOM     13  C   UNL     1     103.577 125.282  81.217  0.00  0.00    +0.000 A 
ATOM     14  C   UNL     1     104.141 124.044  80.916  0.00  0.00    +0.000 A 
ATOM     15  C   UNL     1     105.306 123.989  80.154  0.00  0.00    +0.000 A 
ATOM     16  C   UNL     1     105.921 125.143  79.683  0.00  0.00    +0.000 A 
ATOM     17  C   UNL     1     105.361 126.383  79.982  0.00  0.00    +0.000 A 
ATOM     18  C   UNL     1     104.194 126.448  80.746  0.00  0.00    +0.000 A 
ATOM     19  F   UNL     1     105.844 122.796  79.866  0.00  0.00    +0.000 F 
ENDBRANCH  12  13
ENDBRANCH  11  12
ENDBRANCH   3  11
TORSDOF 4
ENDMDL
