MODEL 1
REMARK VINA RESULT:      -3.5      0.000      0.000
REMARK  Name = *****
REMARK  4 active torsions:
REMARK  status: ('A' for Active; 'I' for Inactive)
REMARK    1  A    between atoms: C_4  and  N_7
REMARK    2  A    between atoms: N_7  and  C_8
REMARK    3  A    between atoms: C_8  and  S_9
REMARK    4  A    between atoms: S_9  and  C_10
REMARK                            x       y       z     vdW  Elec       q    Type
REMARK                         _______ _______ _______ _____ _____    ______ ____
ROOT
ATOM      1  C   UNL     1      89.568  69.342  83.600  0.00  0.00    +0.000 C 
ENDROOT
BRANCH   1   2
ATOM      2  N   UNL     1      90.160  68.208  83.708  0.00  0.00    +0.000 NA
BRANCH   2   6
ATOM      3  C   UNL     1      87.880  66.660  86.973  0.00  0.00    +0.000 C 
ATOM      4  C   UNL     1      87.206  66.726  85.606  0.00  0.00    +0.000 C 
ATOM      5  C   UNL     1      87.966  67.637  84.647  0.00  0.00    +0.000 C 
ATOM      6  C   UNL     1      89.436  67.219  84.518  0.00  0.00    +0.000 C 
ATOM      7  C   UNL     1      90.107  67.162  85.895  0.00  0.00    +0.000 C 
ATOM      8  C   UNL     1      89.346  66.253  86.857  0.00  0.00    +0.000 C 
ENDBRANCH   2   6
ENDBRANCH   1   2
BRANCH   1   9
ATOM      9  S   UNL     1      90.202  70.718  84.476  0.00  0.00    +0.000 S 
BRANCH   9  10
ATOM     10  C   UNL     1      89.060  70.745  85.843  0.00  0.00    +0.000 A 
ATOM     11  C   UNL     1      89.493  70.435  87.136  0.00  0.00    +0.000 A 
ATOM     12  C   UNL     1      88.594  70.455  88.203  0.00  0.00    +0.000 A 
ATOM     13  C   UNL     1      87.259  70.792  87.983  0.00  0.00    +0.000 A 
ATOM     14  C   UNL     1      86.824  71.111  86.697  0.00  0.00    +0.000 A 
ATOM     15  C   UNL     1      87.723  71.092  85.628  0.00  0.00    +0.000 A 
ENDBRANCH   9  10
ENDBRANCH   1   9
TORSDOF 4
ENDMDL
