REMARK  Name = *****
REMARK  4 active torsions:
REMARK  status: ('A' for Active; 'I' for Inactive)
REMARK    1  A    between atoms: C_1  and  C_2
REMARK    2  A    between atoms: C_4  and  C_17
REMARK    3  A    between atoms: C_6  and  C_8
REMARK    4  A    between atoms: N_9  and  C_10
REMARK                            x       y       z     vdW  Elec       q    Type
REMARK                         _______ _______ _______ _____ _____    ______ ____
ROOT
ATOM      1  C   UNL     1      -2.634   0.864   0.072  0.00  0.00    +0.000 C 
ATOM      2  N   UNL     1      -3.737   0.237  -0.197  0.00  0.00    +0.000 NA
ENDROOT
BRANCH   1   8
ATOM      3  C   UNL     1       2.322   1.118   0.595  0.00  0.00    +0.000 C 
ATOM      4  C   UNL     1       1.082   0.319   0.320  0.00  0.00    +0.000 A 
ATOM      5  C   UNL     1       1.175  -1.043  -0.003  0.00  0.00    +0.000 A 
ATOM      6  C   UNL     1       0.030  -1.793  -0.305  0.00  0.00    +0.000 A 
ATOM      7  C   UNL     1      -1.223  -1.171  -0.265  0.00  0.00    +0.000 A 
ATOM      8  C   UNL     1      -1.322   0.189   0.042  0.00  0.00    +0.000 A 
ATOM      9  C   UNL     1      -0.175   0.936   0.326  0.00  0.00    +0.000 A 
ATOM     10  C   UNL     1       0.139  -3.259  -0.606  0.00  0.00    +0.000 C 
ENDBRANCH   1   8
BRANCH   2  11
ATOM     11  C   UNL     1      -4.910   1.001  -0.131  0.00  0.00    +0.000 A 
ATOM     12  C   UNL     1      -5.317   1.774  -1.220  0.00  0.00    +0.000 A 
ATOM     13  C   UNL     1      -6.495   2.515  -1.144  0.00  0.00    +0.000 A 
ATOM     14  C   UNL     1      -7.280   2.484   0.009  0.00  0.00    +0.000 A 
ATOM     15  C   UNL     1      -6.885   1.700   1.092  0.00  0.00    +0.000 A 
ATOM     16  C   UNL     1      -5.705   0.958   1.018  0.00  0.00    +0.000 A 
ATOM     17 CL   UNL     1      -6.988   3.477  -2.483  0.00  0.00    +0.000 Cl
ENDBRANCH   2  11
TORSDOF 2
