REMARK  Name = *****
REMARK  4 active torsions:
REMARK  status: ('A' for Active; 'I' for Inactive)
REMARK    1  A    between atoms: C_1  and  S_2
REMARK    2  A    between atoms: S_2  and  C_3
REMARK    3  A    between atoms: C_3  and  C_9
REMARK    4  A    between atoms: C_10  and  C_11
REMARK                            x       y       z     vdW  Elec       q    Type
REMARK                         _______ _______ _______ _____ _____    ______ ____
ROOT
ATOM      1  C   UNL     1       3.469   1.072   1.065  0.00  0.00    +0.000 C 
ATOM      2  S   UNL     1       2.811   0.579   2.711  0.00  0.00    +0.000 S 
ATOM      3  C   UNL     1       3.505  -1.089   2.880  0.00  0.00    +0.000 C 
ATOM      4  C   UNL     1       5.024  -1.110   2.856  0.00  0.00    +0.000 C 
ATOM      5  C   UNL     1       5.620  -0.705   1.517  0.00  0.00    +0.000 C 
ATOM      6  S   UNL     1       5.312   1.032   1.101  0.00  0.00    +0.000 S 
ENDROOT
BRANCH   1   8
ATOM      7  C   UNL     1       1.044   0.351  -0.195  0.00  0.00    +0.000 C 
ATOM      8  S   UNL     1       2.820  -0.002  -0.285  0.00  0.00    +0.000 S 
ENDBRANCH   1   8
BRANCH   1   9
ATOM      9  C   UNL     1       3.072   2.522   0.818  0.00  0.00    +0.000 C 
ATOM     10  C   UNL     1       3.310   3.239  -0.299  0.00  0.00    +0.000 C 
BRANCH  10  11
ATOM     11  C   UNL     1       2.887   4.633  -0.490  0.00  0.00    +0.000 A 
ATOM     12  C   UNL     1       2.954   5.583   0.537  0.00  0.00    +0.000 A 
ATOM     13  C   UNL     1       2.568   6.906   0.306  0.00  0.00    +0.000 A 
ATOM     14  C   UNL     1       2.122   7.294  -0.955  0.00  0.00    +0.000 A 
ATOM     15  C   UNL     1       2.067   6.362  -1.989  0.00  0.00    +0.000 A 
ATOM     16  C   UNL     1       2.453   5.039  -1.759  0.00  0.00    +0.000 A 
ENDBRANCH  10  11
ENDBRANCH   1   9
TORSDOF 3
