MODEL 1
REMARK VINA RESULT:      -4.5      0.000      0.000
REMARK  Name = *****
REMARK  3 active torsions:
REMARK  status: ('A' for Active; 'I' for Inactive)
REMARK    1  A    between atoms: C_4  and  C_7
REMARK    2  A    between atoms: C_7  and  S_9
REMARK    3  A    between atoms: S_9  and  C_10
REMARK                            x       y       z     vdW  Elec       q    Type
REMARK                         _______ _______ _______ _____ _____    ______ ____
ROOT
ATOM      1  C   UNL     1     103.010 125.508  83.683  0.00  0.00    +0.000 C 
ATOM      2  O   UNL     1     102.472 125.039  84.680  0.00  0.00    +0.000 OA
ENDROOT
BRANCH   1   6
ATOM      3  C   UNL     1     104.887 123.059  80.684  0.00  0.00    +0.000 A 
ATOM      4  C   UNL     1     104.806 122.582  81.991  0.00  0.00    +0.000 A 
ATOM      5  C   UNL     1     104.198 123.354  82.986  0.00  0.00    +0.000 A 
ATOM      6  C   UNL     1     103.665 124.614  82.679  0.00  0.00    +0.000 A 
ATOM      7  C   UNL     1     103.756 125.083  81.359  0.00  0.00    +0.000 A 
ATOM      8  C   UNL     1     104.363 124.309  80.366  0.00  0.00    +0.000 A 
ENDBRANCH   1   6
BRANCH   1   9
ATOM      9  S   UNL     1     103.066 127.249  83.431  0.00  0.00    +0.000 S 
BRANCH   9  10
ATOM     10  C   UNL     1     101.322 127.580  83.203  0.00  0.00    +0.000 A 
ATOM     11  C   UNL     1     100.563 126.630  82.503  0.00  0.00    +0.000 A 
ATOM     12  C   UNL     1      99.194 126.819  82.296  0.00  0.00    +0.000 A 
ATOM     13  C   UNL     1      98.566 127.957  82.791  0.00  0.00    +0.000 A 
ATOM     14  C   UNL     1      99.305 128.909  83.493  0.00  0.00    +0.000 A 
ATOM     15  C   UNL     1     100.677 128.724  83.699  0.00  0.00    +0.000 A 
ATOM     16 BR   UNL     1     101.592 130.083  84.667  0.00  0.00    +0.000 Br
ENDBRANCH   9  10
ENDBRANCH   1   9
TORSDOF 3
ENDMDL
