REMARK  Name = *****
REMARK  6 active torsions:
REMARK  status: ('A' for Active; 'I' for Inactive)
REMARK    1  A    between atoms: C_1  and  C_2
REMARK    2  A    between atoms: C_5  and  S_8
REMARK    3  A    between atoms: S_8  and  S_10
REMARK    4  A    between atoms: S_10  and  C_11
REMARK    5  A    between atoms: C_14  and  O_17
REMARK    6  A    between atoms: O_17  and  C_18
REMARK                            x       y       z     vdW  Elec       q    Type
REMARK                         _______ _______ _______ _____ _____    ______ ____
ROOT
ATOM      1  S   UNL     1      -3.684   0.036  -0.217  0.00  0.00    +0.000 S 
ATOM      2  O   UNL     1      -4.120  -0.580   1.082  0.00  0.00    +0.000 OA
ENDROOT
BRANCH   1   7
ATOM      3  C   UNL     1       2.412   0.540   0.055  0.00  0.00    +0.000 C 
ATOM      4  C   UNL     1       0.919   0.405   0.001  0.00  0.00    +0.000 A 
ATOM      5  C   UNL     1       0.201  -0.083   1.098  0.00  0.00    +0.000 A 
ATOM      6  C   UNL     1      -1.191  -0.196   1.040  0.00  0.00    +0.000 A 
ATOM      7  C   UNL     1      -1.883   0.186  -0.114  0.00  0.00    +0.000 A 
ATOM      8  C   UNL     1      -1.167   0.672  -1.214  0.00  0.00    +0.000 A 
ATOM      9  C   UNL     1       0.224   0.784  -1.155  0.00  0.00    +0.000 A 
ENDBRANCH   1   7
BRANCH   1  10
ATOM     10  S   UNL     1      -4.221   1.964   0.128  0.00  0.00    +0.000 S 
BRANCH  10  11
ATOM     11  C   UNL     1      -5.988   1.900  -0.093  0.00  0.00    +0.000 A 
ATOM     12  C   UNL     1      -6.811   1.241   0.826  0.00  0.00    +0.000 A 
ATOM     13  C   UNL     1      -8.200   1.215   0.651  0.00  0.00    +0.000 A 
ATOM     14  C   UNL     1      -8.780   1.859  -0.441  0.00  0.00    +0.000 A 
ATOM     15  C   UNL     1      -7.960   2.525  -1.355  0.00  0.00    +0.000 A 
ATOM     16  C   UNL     1      -6.573   2.550  -1.183  0.00  0.00    +0.000 A 
BRANCH  14  17
ATOM     17  O   UNL     1     -10.116   1.913  -0.727  0.00  0.00    +0.000 OA
ATOM     18  C   UNL     1     -10.996   1.279   0.193  0.00  0.00    +0.000 C 
ENDBRANCH  14  17
ENDBRANCH  10  11
ENDBRANCH   1  10
TORSDOF 4
