REMARK  Name = *****
REMARK  4 active torsions:
REMARK  status: ('A' for Active; 'I' for Inactive)
REMARK    1  A    between atoms: C_4  and  C_7
REMARK    2  A    between atoms: C_7  and  N_8
REMARK    3  A    between atoms: N_8  and  C_9
REMARK    4  A    between atoms: N_8  and  N_16
REMARK                            x       y       z     vdW  Elec       q    Type
REMARK                         _______ _______ _______ _____ _____    ______ ____
ROOT
ATOM      1  N   UNL     1      -3.614  -0.815  -0.450  0.00  0.00    +0.000 N 
ENDROOT
BRANCH   1   2
ATOM      2  C   UNL     1      -3.959  -1.260   0.866  0.00  0.00    +0.000 A 
ATOM      3  C   UNL     1      -4.888  -2.312   1.045  0.00  0.00    +0.000 A 
ATOM      4  C   UNL     1      -5.253  -2.782   2.314  0.00  0.00    +0.000 A 
ATOM      5  C   UNL     1      -4.692  -2.212   3.447  0.00  0.00    +0.000 A 
ATOM      6  C   UNL     1      -3.770  -1.182   3.318  0.00  0.00    +0.000 A 
ATOM      7  C   UNL     1      -3.411  -0.715   2.044  0.00  0.00    +0.000 A 
ATOM      8 CL   UNL     1      -5.132  -2.782   5.008  0.00  0.00    +0.000 Cl
ENDBRANCH   1   2
BRANCH   1   9
ATOM      9  N   UNL     1      -4.114  -1.473  -1.538  0.00  0.00    +0.000 NA
ATOM     10  O   UNL     1      -3.719  -1.036  -2.623  0.00  0.00    +0.000 OA
ENDBRANCH   1   9
BRANCH   1  11
ATOM     11  C   UNL     1      -2.787   0.414  -0.554  0.00  0.00    +0.000 C 
BRANCH  11  15
ATOM     12  C   UNL     1       1.472  -0.134   0.010  0.00  0.00    +0.000 A 
ATOM     13  C   UNL     1       0.725  -1.136  -0.603  0.00  0.00    +0.000 A 
ATOM     14  C   UNL     1      -0.650  -0.974  -0.786  0.00  0.00    +0.000 A 
ATOM     15  C   UNL     1      -1.299   0.187  -0.342  0.00  0.00    +0.000 A 
ATOM     16  C   UNL     1      -0.527   1.199   0.256  0.00  0.00    +0.000 A 
ATOM     17  C   UNL     1       0.848   1.035   0.437  0.00  0.00    +0.000 A 
ENDBRANCH  11  15
ENDBRANCH   1  11
TORSDOF 4
