MODEL 1
REMARK VINA RESULT:      -4.6      0.000      0.000
REMARK  Name = *****
REMARK  5 active torsions:
REMARK  status: ('A' for Active; 'I' for Inactive)
REMARK    1  A    between atoms: C_1  and  C_2
REMARK    2  A    between atoms: C_7  and  C_8
REMARK    3  A    between atoms: C_8  and  O_9
REMARK    4  A    between atoms: O_9  and  C_10
REMARK    5  A    between atoms: C_10  and  C_12
REMARK                            x       y       z     vdW  Elec       q    Type
REMARK                         _______ _______ _______ _____ _____    ______ ____
ROOT
ATOM      1  C   UNL     1     104.846 124.379  80.482  0.00  0.00    +0.000 C 
ATOM      2  O   UNL     1     105.928 124.847  80.172  0.00  0.00    +0.000 OA
ENDROOT
BRANCH   1   3
ATOM      3  C   UNL     1     104.705 123.206  81.366  0.00  0.00    +0.000 A 
ATOM      4  C   UNL     1     104.623 123.296  82.761  0.00  0.00    +0.000 A 
ATOM      5  C   UNL     1     104.496 122.131  83.526  0.00  0.00    +0.000 A 
ATOM      6  C   UNL     1     104.440 120.888  82.897  0.00  0.00    +0.000 A 
ATOM      7  C   UNL     1     104.498 120.792  81.508  0.00  0.00    +0.000 A 
ATOM      8  C   UNL     1     104.626 121.951  80.741  0.00  0.00    +0.000 A 
ATOM      9 CL   UNL     1     104.284 119.460  83.843  0.00  0.00    +0.000 Cl
ATOM     10 CL   UNL     1     104.607 124.802  83.608  0.00  0.00    +0.000 Cl
ENDBRANCH   1   3
BRANCH   1  11
ATOM     11  O   UNL     1     103.623 124.890  80.220  0.00  0.00    +0.000 OA
BRANCH  11  12
ATOM     12  C   UNL     1     103.549 126.319  80.165  0.00  0.00    +0.000 C 
BRANCH  12  19
ATOM     13  C   UNL     1     104.527 128.780  81.593  0.00  0.00    +0.000 C 
ATOM     14  C   UNL     1     103.344 127.995  82.088  0.00  0.00    +0.000 A 
ATOM     15  C   UNL     1     102.676 128.426  83.246  0.00  0.00    +0.000 A 
ATOM     16  C   UNL     1     101.577 127.724  83.741  0.00  0.00    +0.000 A 
ATOM     17  C   UNL     1     101.130 126.582  83.087  0.00  0.00    +0.000 A 
ATOM     18  C   UNL     1     101.777 126.145  81.932  0.00  0.00    +0.000 A 
ATOM     19  C   UNL     1     102.878 126.848  81.410  0.00  0.00    +0.000 A 
ENDBRANCH  12  19
ENDBRANCH  11  12
ENDBRANCH   1  11
TORSDOF 4
ENDMDL
