MODEL 1
REMARK VINA RESULT:      -4.7      0.000      0.000
REMARK  Name = *****
REMARK  2 active torsions:
REMARK  status: ('A' for Active; 'I' for Inactive)
REMARK    1  A    between atoms: C_4  and  C_7
REMARK    2  A    between atoms: C_8  and  C_9
REMARK                            x       y       z     vdW  Elec       q    Type
REMARK                         _______ _______ _______ _____ _____    ______ ____
ROOT
ATOM      1  C   UNL     1     102.074 126.026  82.141  0.00  0.00    +0.000 C 
ATOM      2  C   UNL     1     103.006 126.223  81.194  0.00  0.00    +0.000 C 
ENDROOT
BRANCH   1   6
ATOM      3  C   UNL     1      99.227 129.133  83.174  0.00  0.00    +0.000 C 
ATOM      4  C   UNL     1     100.475 129.030  84.039  0.00  0.00    +0.000 C 
ATOM      5  C   UNL     1     101.585 128.256  83.320  0.00  0.00    +0.000 C 
ATOM      6  C   UNL     1     101.103 127.009  82.609  0.00  0.00    +0.000 C 
ATOM      7  C   UNL     1      99.788 126.790  82.407  0.00  0.00    +0.000 C 
ATOM      8  C   UNL     1      98.703 127.747  82.809  0.00  0.00    +0.000 C 
ENDBRANCH   1   6
BRANCH   2   9
ATOM      9  C   UNL     1     103.962 125.192  80.762  0.00  0.00    +0.000 A 
ATOM     10  C   UNL     1     104.839 125.390  79.687  0.00  0.00    +0.000 A 
ATOM     11  C   UNL     1     105.756 124.398  79.326  0.00  0.00    +0.000 A 
ATOM     12  C   UNL     1     105.812 123.205  80.044  0.00  0.00    +0.000 A 
ATOM     13  C   UNL     1     104.957 123.004  81.124  0.00  0.00    +0.000 A 
ATOM     14  C   UNL     1     104.041 123.995  81.485  0.00  0.00    +0.000 A 
ENDBRANCH   2   9
TORSDOF 2
ENDMDL
