REMARK  Name = *****
REMARK  3 active torsions:
REMARK  status: ('A' for Active; 'I' for Inactive)
REMARK    1  A    between atoms: C_4  and  C_7
REMARK    2  A    between atoms: C_7  and  C_15
REMARK    3  A    between atoms: N_8  and  C_9
REMARK                            x       y       z     vdW  Elec       q    Type
REMARK                         _______ _______ _______ _____ _____    ______ ____
ROOT
ATOM      1  C   UNL     1      -2.823   0.510  -0.166  0.00  0.00    +0.000 C 
ATOM      2  N   UNL     1      -3.277   1.728  -0.259  0.00  0.00    +0.000 NA
ENDROOT
BRANCH   1   6
ATOM      3  C   UNL     1       1.277  -0.675  -0.046  0.00  0.00    +0.000 A 
ATOM      4  C   UNL     1       0.453  -0.911   1.056  0.00  0.00    +0.000 A 
ATOM      5  C   UNL     1      -0.886  -0.519   1.025  0.00  0.00    +0.000 A 
ATOM      6  C   UNL     1      -1.392   0.115  -0.113  0.00  0.00    +0.000 A 
ATOM      7  C   UNL     1      -0.571   0.348  -1.220  0.00  0.00    +0.000 A 
ATOM      8  C   UNL     1       0.767  -0.045  -1.182  0.00  0.00    +0.000 A 
ENDBRANCH   1   6
BRANCH   2   9
ATOM      9  C   UNL     1      -2.408   2.828  -0.236  0.00  0.00    +0.000 A 
ATOM     10  C   UNL     1      -2.224   3.584  -1.396  0.00  0.00    +0.000 A 
ATOM     11  C   UNL     1      -1.382   4.698  -1.391  0.00  0.00    +0.000 A 
ATOM     12  C   UNL     1      -0.730   5.072  -0.217  0.00  0.00    +0.000 A 
ATOM     13  C   UNL     1      -0.928   4.340   0.953  0.00  0.00    +0.000 A 
ATOM     14  C   UNL     1      -1.773   3.227   0.944  0.00  0.00    +0.000 A 
ENDBRANCH   2   9
BRANCH   1  15
ATOM     15  C   UNL     1      -3.823  -0.629  -0.150  0.00  0.00    +0.000 C 
ATOM     16 CL   UNL     1      -4.491  -0.797   1.487  0.00  0.00    +0.000 Cl
ENDBRANCH   1  15
TORSDOF 3
