MODEL 1
REMARK VINA RESULT:      -4.4      0.000      0.000
REMARK  Name = *****
REMARK  5 active torsions:
REMARK  status: ('A' for Active; 'I' for Inactive)
REMARK    1  A    between atoms: C_4  and  C_7
REMARK    2  A    between atoms: C_7  and  O_8
REMARK    3  A    between atoms: O_8  and  C_9
REMARK    4  A    between atoms: C_14  and  C_15
REMARK    5  A    between atoms: C_15  and  C_16
REMARK                            x       y       z     vdW  Elec       q    Type
REMARK                         _______ _______ _______ _____ _____    ______ ____
ROOT
ATOM      1  C   UNL     1     103.821 126.440  80.782  0.00  0.00    +0.000 A 
ATOM      2  C   UNL     1     104.865 127.293  80.413  0.00  0.00    +0.000 A 
ATOM      3  C   UNL     1     105.012 128.539  81.029  0.00  0.00    +0.000 A 
ATOM      4  C   UNL     1     104.120 128.939  82.019  0.00  0.00    +0.000 A 
ATOM      5  C   UNL     1     103.077 128.095  82.395  0.00  0.00    +0.000 A 
ATOM      6  C   UNL     1     102.915 126.843  81.782  0.00  0.00    +0.000 A 
ENDROOT
BRANCH   1   7
ATOM      7  O   UNL     1     103.600 125.197  80.251  0.00  0.00    +0.000 OA
BRANCH   7   8
ATOM      8  C   UNL     1     104.725 124.335  80.084  0.00  0.00    +0.000 C 
BRANCH   8  12
ATOM      9  C   UNL     1     104.459 121.072  82.904  0.00  0.00    +0.000 A 
ATOM     10  C   UNL     1     104.450 122.387  83.364  0.00  0.00    +0.000 A 
ATOM     11  C   UNL     1     104.544 123.445  82.460  0.00  0.00    +0.000 A 
ATOM     12  C   UNL     1     104.663 123.201  81.083  0.00  0.00    +0.000 A 
ATOM     13  C   UNL     1     104.656 121.872  80.633  0.00  0.00    +0.000 A 
ATOM     14  C   UNL     1     104.559 120.814  81.539  0.00  0.00    +0.000 A 
ENDBRANCH   8  12
ENDBRANCH   7   8
ENDBRANCH   1   7
BRANCH   6  15
ATOM     15  C   UNL     1     101.774 125.947  82.218  0.00  0.00    +0.000 C 
BRANCH  15  16
ATOM     16  C   UNL     1     100.805 126.671  83.145  0.00  0.00    +0.000 C 
ATOM     17 CL   UNL     1      99.251 126.955  82.319  0.00  0.00    +0.000 Cl
ENDBRANCH  15  16
ENDBRANCH   6  15
TORSDOF 5
ENDMDL
