MODEL 1
REMARK VINA RESULT:      -5.0      0.000      0.000
REMARK  Name = *****
REMARK  2 active torsions:
REMARK  status: ('A' for Active; 'I' for Inactive)
REMARK    1  A    between atoms: C_6  and  C_7
REMARK    2  A    between atoms: N_8  and  C_9
REMARK                            x       y       z     vdW  Elec       q    Type
REMARK                         _______ _______ _______ _____ _____    ______ ____
ROOT
ATOM      1  C   UNL     1     102.776 126.205  81.653  0.00  0.00    +0.000 C 
ATOM      2  N   UNL     1     101.740 125.865  82.352  0.00  0.00    +0.000 NA
ENDROOT
BRANCH   1   8
ATOM      3  C   UNL     1     104.063 124.123  82.029  0.00  0.00    +0.000 A 
ATOM      4  C   UNL     1     104.994 123.168  81.614  0.00  0.00    +0.000 A 
ATOM      5  C   UNL     1     105.612 123.305  80.375  0.00  0.00    +0.000 A 
ATOM      6  C   UNL     1     105.310 124.384  79.550  0.00  0.00    +0.000 A 
ATOM      7  C   UNL     1     104.386 125.341  79.951  0.00  0.00    +0.000 A 
ATOM      8  C   UNL     1     103.761 125.208  81.195  0.00  0.00    +0.000 A 
ATOM      9  F   UNL     1     105.911 124.508  78.359  0.00  0.00    +0.000 F 
ATOM     10  F   UNL     1     106.504 122.385  79.983  0.00  0.00    +0.000 F 
ENDBRANCH   1   8
BRANCH   2  11
ATOM     11  C   UNL     1     100.878 126.904  82.729  0.00  0.00    +0.000 A 
ATOM     12  C   UNL     1     101.399 128.082  83.270  0.00  0.00    +0.000 A 
ATOM     13  C   UNL     1     100.542 129.119  83.621  0.00  0.00    +0.000 A 
ATOM     14  C   UNL     1      99.170 129.012  83.437  0.00  0.00    +0.000 A 
ATOM     15  C   UNL     1      98.664 127.845  82.884  0.00  0.00    +0.000 A 
ATOM     16  C   UNL     1      99.502 126.794  82.524  0.00  0.00    +0.000 A 
ATOM     17  F   UNL     1      97.343 127.727  82.693  0.00  0.00    +0.000 F 
ATOM     18  F   UNL     1     101.048 130.243  84.147  0.00  0.00    +0.000 F 
ENDBRANCH   2  11
TORSDOF 2
ENDMDL
