REMARK  Name = *****
REMARK  3 active torsions:
REMARK  status: ('A' for Active; 'I' for Inactive)
REMARK    1  A    between atoms: C_4  and  O_7
REMARK    2  A    between atoms: O_7  and  S_8
REMARK    3  A    between atoms: S_8  and  C_9
REMARK                            x       y       z     vdW  Elec       q    Type
REMARK                         _______ _______ _______ _____ _____    ______ ____
ROOT
ATOM      1  O   UNL     1       1.957  -1.791  -1.691  0.00  0.00    +0.000 OA
ENDROOT
BRANCH   1   5
ATOM      2  C   UNL     1      -0.742   0.668   0.455  0.00  0.00    +0.000 C 
ATOM      3  C   UNL     1      -0.914  -0.844   0.575  0.00  0.00    +0.000 C 
ATOM      4  C   UNL     1      -0.158  -1.584  -0.524  0.00  0.00    +0.000 C 
ATOM      5  C   UNL     1       1.324  -1.197  -0.553  0.00  0.00    +0.000 C 
ATOM      6  C   UNL     1       1.482   0.322  -0.683  0.00  0.00    +0.000 C 
ATOM      7  C   UNL     1       0.731   1.066   0.416  0.00  0.00    +0.000 C 
ENDBRANCH   1   5
BRANCH   1   8
ATOM      8  S   UNL     1       2.640  -3.289  -1.427  0.00  0.00    +0.000 S 
BRANCH   8   9
ATOM      9  C   UNL     1       4.317  -2.780  -1.076  0.00  0.00    +0.000 A 
ATOM     10  C   UNL     1       4.913  -1.698  -1.735  0.00  0.00    +0.000 A 
ATOM     11  C   UNL     1       6.228  -1.329  -1.442  0.00  0.00    +0.000 A 
ATOM     12  C   UNL     1       6.958  -2.044  -0.494  0.00  0.00    +0.000 A 
ATOM     13  C   UNL     1       6.376  -3.128   0.160  0.00  0.00    +0.000 A 
ATOM     14  C   UNL     1       5.061  -3.496  -0.132  0.00  0.00    +0.000 A 
ENDBRANCH   8   9
ENDBRANCH   1   8
TORSDOF 3
