MODEL 1
REMARK VINA RESULT:      -4.5      0.000      0.000
REMARK  Name = *****
REMARK  5 active torsions:
REMARK  status: ('A' for Active; 'I' for Inactive)
REMARK    1  A    between atoms: C_1  and  C_2
REMARK    2  A    between atoms: C_3  and  C_16
REMARK    3  A    between atoms: C_4  and  O_8
REMARK    4  A    between atoms: O_8  and  C_9
REMARK    5  A    between atoms: C_9  and  C_11
REMARK                            x       y       z     vdW  Elec       q    Type
REMARK                         _______ _______ _______ _____ _____    ______ ____
ROOT
ATOM      1  C   UNL     1      99.413 130.406  84.034  0.00  0.00    +0.000 C 
ATOM      2  C   UNL     1      99.763 129.054  83.474  0.00  0.00    +0.000 A 
ATOM      3  C   UNL     1     101.089 128.570  83.480  0.00  0.00    +0.000 A 
ATOM      4  C   UNL     1     101.336 127.313  82.904  0.00  0.00    +0.000 A 
ATOM      5  C   UNL     1     100.310 126.511  82.400  0.00  0.00    +0.000 A 
ATOM      6  C   UNL     1      99.004 126.984  82.427  0.00  0.00    +0.000 A 
ATOM      7  C   UNL     1      98.734 128.247  82.957  0.00  0.00    +0.000 A 
ATOM      8  C   UNL     1     102.220 129.400  84.022  0.00  0.00    +0.000 C 
ENDROOT
BRANCH   4   9
ATOM      9  O   UNL     1     102.636 126.790  82.895  0.00  0.00    +0.000 OA
BRANCH   9  10
ATOM     10  C   UNL     1     103.198 126.684  81.622  0.00  0.00    +0.000 C 
ATOM     11  O   UNL     1     103.207 127.573  80.778  0.00  0.00    +0.000 OA
BRANCH  10  12
ATOM     12  C   UNL     1     103.770 125.355  81.473  0.00  0.00    +0.000 A 
ATOM     13  C   UNL     1     104.223 124.710  80.334  0.00  0.00    +0.000 A 
ATOM     14  C   UNL     1     104.717 123.400  80.607  0.00  0.00    +0.000 A 
ATOM     15  C   UNL     1     104.627 123.085  81.942  0.00  0.00    +0.000 A 
ATOM     16  S   UNL     1     103.951 124.359  82.858  0.00  0.00    +0.000 S 
ENDBRANCH  10  12
ENDBRANCH   9  10
ENDBRANCH   4   9
TORSDOF 3
ENDMDL
