REMARK  Name = *****
REMARK  5 active torsions:
REMARK  status: ('A' for Active; 'I' for Inactive)
REMARK    1  A    between atoms: C_1  and  C_2
REMARK    2  A    between atoms: C_4  and  C_8
REMARK    3  A    between atoms: C_9  and  C_10
REMARK    4  A    between atoms: C_13  and  O_16
REMARK    5  A    between atoms: O_16  and  C_17
REMARK                            x       y       z     vdW  Elec       q    Type
REMARK                         _______ _______ _______ _____ _____    ______ ____
ROOT
ATOM      1  C   UNL     1       5.350   2.595  -0.616  0.00  0.00    +0.000 C 
ATOM      2  C   UNL     1       5.907   3.645  -0.790  0.00  0.00    +0.000 C 
ENDROOT
BRANCH   1   6
ATOM      3  C   UNL     1       1.137   0.034  -0.004  0.00  0.00    +0.000 C 
ATOM      4  C   UNL     1       2.634   0.084  -0.085  0.00  0.00    +0.000 A 
ATOM      5  C   UNL     1       3.293   1.303  -0.299  0.00  0.00    +0.000 A 
ATOM      6  C   UNL     1       4.686   1.346  -0.407  0.00  0.00    +0.000 A 
ATOM      7  C   UNL     1       5.428   0.167  -0.312  0.00  0.00    +0.000 A 
ATOM      8  C   UNL     1       4.779  -1.052  -0.115  0.00  0.00    +0.000 A 
ATOM      9  C   UNL     1       3.388  -1.093  -0.007  0.00  0.00    +0.000 A 
ENDBRANCH   1   6
BRANCH   2  10
ATOM     10  C   UNL     1       6.570   4.896  -0.994  0.00  0.00    +0.000 A 
ATOM     11  C   UNL     1       5.952   6.087  -0.616  0.00  0.00    +0.000 A 
ATOM     12  C   UNL     1       6.605   7.305  -0.818  0.00  0.00    +0.000 A 
ATOM     13  C   UNL     1       7.877   7.346  -1.396  0.00  0.00    +0.000 A 
ATOM     14  C   UNL     1       8.493   6.152  -1.775  0.00  0.00    +0.000 A 
ATOM     15  C   UNL     1       7.840   4.929  -1.574  0.00  0.00    +0.000 A 
BRANCH  13  16
ATOM     16  O   UNL     1       8.401   8.601  -1.535  0.00  0.00    +0.000 OA
ATOM     17  C   UNL     1       9.698   8.696  -2.111  0.00  0.00    +0.000 C 
ENDBRANCH  13  16
ENDBRANCH   2  10
TORSDOF 3
