MODEL 1
REMARK VINA RESULT:      -4.4      0.000      0.000
REMARK  Name = *****
REMARK  4 active torsions:
REMARK  status: ('A' for Active; 'I' for Inactive)
REMARK    1  A    between atoms: C_4  and  C_8
REMARK    2  A    between atoms: C_8  and  O_9
REMARK    3  A    between atoms: O_9  and  C_10
REMARK    4  A    between atoms: C_10  and  C_12
REMARK                            x       y       z     vdW  Elec       q    Type
REMARK                         _______ _______ _______ _____ _____    ______ ____
ROOT
ATOM      1  O   UNL     1      89.407  65.742  86.774  0.00  0.00    +0.000 OA
ENDROOT
BRANCH   1   2
ATOM      2  C   UNL     1      89.179  64.424  86.576  0.00  0.00    +0.000 C 
ATOM      3  O   UNL     1      89.596  63.748  85.651  0.00  0.00    +0.000 OA
BRANCH   2   4
ATOM      4  C   UNL     1      88.324  63.878  87.668  0.00  0.00    +0.000 A 
ATOM      5  C   UNL     1      88.520  64.210  89.017  0.00  0.00    +0.000 A 
ATOM      6  C   UNL     1      87.687  63.671  90.001  0.00  0.00    +0.000 A 
ATOM      7  C   UNL     1      86.658  62.801  89.642  0.00  0.00    +0.000 A 
ATOM      8  C   UNL     1      86.454  62.464  88.306  0.00  0.00    +0.000 A 
ATOM      9  C   UNL     1      87.285  63.003  87.318  0.00  0.00    +0.000 A 
ATOM     10 CL   UNL     1      85.637  62.139  90.857  0.00  0.00    +0.000 Cl
ENDBRANCH   2   4
ENDBRANCH   1   2
BRANCH   1  11
ATOM     11  C   UNL     1      88.457  66.645  86.191  0.00  0.00    +0.000 C 
BRANCH  11  15
ATOM     12  C   UNL     1      88.283  70.332  88.449  0.00  0.00    +0.000 A 
ATOM     13  C   UNL     1      89.265  70.129  87.485  0.00  0.00    +0.000 A 
ATOM     14  C   UNL     1      89.301  68.931  86.775  0.00  0.00    +0.000 A 
ATOM     15  C   UNL     1      88.368  67.911  86.998  0.00  0.00    +0.000 A 
ATOM     16  C   UNL     1      87.390  68.126  87.979  0.00  0.00    +0.000 A 
ATOM     17  C   UNL     1      87.347  69.329  88.698  0.00  0.00    +0.000 A 
ATOM     18 CL   UNL     1      86.206  66.928  88.367  0.00  0.00    +0.000 Cl
ATOM     19  F   UNL     1      90.273  68.763  85.869  0.00  0.00    +0.000 F 
ENDBRANCH  11  15
ENDBRANCH   1  11
TORSDOF 4
ENDMDL
