MODEL 1
REMARK VINA RESULT:      -4.8      0.000      0.000
REMARK  Name = *****
REMARK  4 active torsions:
REMARK  status: ('A' for Active; 'I' for Inactive)
REMARK    1  A    between atoms: C_1  and  C_2
REMARK    2  A    between atoms: C_5  and  O_8
REMARK    3  A    between atoms: O_8  and  C_9
REMARK    4  A    between atoms: C_9  and  C_10
REMARK                            x       y       z     vdW  Elec       q    Type
REMARK                         _______ _______ _______ _____ _____    ______ ____
ROOT
ATOM      1  C   UNL     1     102.904 125.634  82.778  0.00  0.00    +0.000 C 
ENDROOT
BRANCH   1   2
ATOM      2  C   UNL     1     103.780 125.000  81.730  0.00  0.00    +0.000 A 
ATOM      3  C   UNL     1     104.267 123.704  81.935  0.00  0.00    +0.000 A 
ATOM      4  C   UNL     1     105.090 123.069  81.008  0.00  0.00    +0.000 A 
ATOM      5  C   UNL     1     105.447 123.729  79.837  0.00  0.00    +0.000 A 
ATOM      6  C   UNL     1     104.967 125.017  79.603  0.00  0.00    +0.000 A 
ATOM      7  C   UNL     1     104.138 125.648  80.539  0.00  0.00    +0.000 A 
ATOM      8 CL   UNL     1     103.562 127.230  80.150  0.00  0.00    +0.000 Cl
ATOM      9  F   UNL     1     103.938 123.035  83.050  0.00  0.00    +0.000 F 
ENDBRANCH   1   2
BRANCH   1  10
ATOM     10  O   UNL     1     101.568 125.795  82.288  0.00  0.00    +0.000 OA
BRANCH  10  15
ATOM     11  C   UNL     1      99.179 130.588  84.147  0.00  0.00    +0.000 C 
ATOM     12  C   UNL     1      99.796 129.329  83.613  0.00  0.00    +0.000 A 
ATOM     13  C   UNL     1      98.996 128.334  83.039  0.00  0.00    +0.000 A 
ATOM     14  C   UNL     1      99.566 127.145  82.576  0.00  0.00    +0.000 A 
ATOM     15  C   UNL     1     100.942 126.946  82.678  0.00  0.00    +0.000 A 
ATOM     16  C   UNL     1     101.739 127.912  83.286  0.00  0.00    +0.000 A 
ATOM     17  C   UNL     1     101.171 129.102  83.747  0.00  0.00    +0.000 A 
ENDBRANCH  10  15
ENDBRANCH   1  10
TORSDOF 3
ENDMDL
