MODEL 1
REMARK VINA RESULT:      -4.0      0.000      0.000
REMARK  Name = *****
REMARK  2 active torsions:
REMARK  status: ('A' for Active; 'I' for Inactive)
REMARK    1  A    between atoms: C_4  and  C_7
REMARK    2  A    between atoms: N_8  and  C_9
REMARK                            x       y       z     vdW  Elec       q    Type
REMARK                         _______ _______ _______ _____ _____    ______ ____
ROOT
ATOM      1  C   UNL     1     102.604 126.325  81.778  0.00  0.00    +0.000 C 
ATOM      2  N   UNL     1     101.446 126.061  82.266  0.00  0.00    +0.000 NA
ATOM      3 CL   UNL     1     103.500 124.950  81.241  0.00  0.00    +0.000 Cl
ENDROOT
BRANCH   1   7
ATOM      4  C   UNL     1     105.567 129.512  81.336  0.00  0.00    +0.000 C 
ATOM      5  C   UNL     1     104.760 129.081  80.113  0.00  0.00    +0.000 C 
ATOM      6  C   UNL     1     104.109 127.714  80.318  0.00  0.00    +0.000 C 
ATOM      7  C   UNL     1     103.259 127.688  81.595  0.00  0.00    +0.000 C 
ATOM      8  C   UNL     1     104.082 128.108  82.820  0.00  0.00    +0.000 C 
ATOM      9  C   UNL     1     104.724 129.478  82.610  0.00  0.00    +0.000 C 
ENDBRANCH   1   7
BRANCH   2  10
ATOM     10  C   UNL     1     100.546 127.111  82.732  0.00  0.00    +0.000 C 
ATOM     11  C   UNL     1     100.687 127.272  84.250  0.00  0.00    +0.000 C 
ATOM     12  C   UNL     1      99.658 128.253  84.808  0.00  0.00    +0.000 C 
ATOM     13  C   UNL     1      98.236 127.849  84.433  0.00  0.00    +0.000 C 
ATOM     14  C   UNL     1      98.082 127.664  82.926  0.00  0.00    +0.000 C 
ATOM     15  C   UNL     1      99.115 126.686  82.371  0.00  0.00    +0.000 C 
ENDBRANCH   2  10
TORSDOF 2
ENDMDL
