MODEL 1
REMARK VINA RESULT:      -4.7      0.000      0.000
REMARK  Name = *****
REMARK  2 active torsions:
REMARK  status: ('A' for Active; 'I' for Inactive)
REMARK    1  A    between atoms: C_7  and  C_8
REMARK    2  A    between atoms: C_9  and  C_10
REMARK                            x       y       z     vdW  Elec       q    Type
REMARK                         _______ _______ _______ _____ _____    ______ ____
ROOT
ATOM      1  C   UNL     1     105.400 126.152  80.416  0.00  0.00    +0.000 C 
ATOM      2  C   UNL     1     105.770 125.821  81.870  0.00  0.00    +0.000 C 
ATOM      3  C   UNL     1     105.178 124.406  82.061  0.00  0.00    +0.000 C 
ATOM      4  C   UNL     1     106.048 123.445  81.227  0.00  0.00    +0.000 C 
ATOM      5  C   UNL     1     105.615 123.740  79.782  0.00  0.00    +0.000 C 
ATOM      6  C   UNL     1     104.612 124.902  79.965  0.00  0.00    +0.000 C 
ATOM      7  C   UNL     1     103.880 124.459  81.237  0.00  0.00    +0.000 C 
ATOM      8 BR   UNL     1     105.700 121.593  81.709  0.00  0.00    +0.000 Br
ENDROOT
BRANCH   7   9
ATOM      9  C   UNL     1     102.867 125.400  81.730  0.00  0.00    +0.000 C 
ATOM     10  C   UNL     1     102.037 126.170  82.132  0.00  0.00    +0.000 C 
BRANCH  10  11
ATOM     11  C   UNL     1     101.045 127.086  82.600  0.00  0.00    +0.000 A 
ATOM     12  C   UNL     1      99.691 126.829  82.369  0.00  0.00    +0.000 A 
ATOM     13  C   UNL     1      98.722 127.727  82.823  0.00  0.00    +0.000 A 
ATOM     14  C   UNL     1      99.106 128.880  83.508  0.00  0.00    +0.000 A 
ATOM     15  C   UNL     1     100.456 129.137  83.741  0.00  0.00    +0.000 A 
ATOM     16  C   UNL     1     101.426 128.241  83.287  0.00  0.00    +0.000 A 
ENDBRANCH  10  11
ENDBRANCH   7   9
TORSDOF 2
ENDMDL
