MODEL 1
REMARK VINA RESULT:      -4.7      0.000      0.000
REMARK  Name = *****
REMARK  2 active torsions:
REMARK  status: ('A' for Active; 'I' for Inactive)
REMARK    1  A    between atoms: C_1  and  C_2
REMARK    2  A    between atoms: C_7  and  N_8
REMARK                            x       y       z     vdW  Elec       q    Type
REMARK                         _______ _______ _______ _____ _____    ______ ____
ROOT
ATOM      1  N   UNL     1     101.972 127.153  82.988  0.00  0.00    +0.000 N 
ATOM      2  C   UNL     1     102.446 126.969  81.606  0.00  0.00    +0.000 C 
ATOM      3  C   UNL     1     103.233 125.686  81.544  0.00  0.00    +0.000 A 
ATOM      4  C   UNL     1     103.846 125.161  80.410  0.00  0.00    +0.000 A 
ATOM      5  C   UNL     1     104.547 123.957  80.518  0.00  0.00    +0.000 A 
ATOM      6  C   UNL     1     104.629 123.292  81.748  0.00  0.00    +0.000 A 
ATOM      7  C   UNL     1     104.010 123.825  82.880  0.00  0.00    +0.000 A 
ATOM      8  C   UNL     1     103.317 125.020  82.761  0.00  0.00    +0.000 A 
ATOM      9  S   UNL     1     102.458 125.896  84.024  0.00  0.00    +0.000 S 
ENDROOT
BRANCH   1  16
ATOM     10  C   UNL     1      98.884 127.454  82.582  0.00  0.00    +0.000 C 
ATOM     11  C   UNL     1      99.810 128.430  83.262  0.00  0.00    +0.000 A 
ATOM     12  C   UNL     1      99.164 129.599  83.750  0.00  0.00    +0.000 A 
ATOM     13  C   UNL     1      99.856 130.607  84.407  0.00  0.00    +0.000 A 
ATOM     14  C   UNL     1     101.215 130.468  84.593  0.00  0.00    +0.000 A 
ATOM     15  C   UNL     1     101.868 129.324  84.117  0.00  0.00    +0.000 A 
ATOM     16  C   UNL     1     101.213 128.262  83.434  0.00  0.00    +0.000 A 
ENDBRANCH   1  16
TORSDOF 1
ENDMDL
