MODEL 1
REMARK VINA RESULT:      -4.5      0.000      0.000
REMARK  Name = *****
REMARK  5 active torsions:
REMARK  status: ('A' for Active; 'I' for Inactive)
REMARK    1  A    between atoms: C_1  and  O_2
REMARK    2  A    between atoms: O_2  and  C_3
REMARK    3  A    between atoms: C_6  and  C_9
REMARK    4  A    between atoms: C_9  and  S_11
REMARK    5  A    between atoms: S_11  and  C_12
REMARK                            x       y       z     vdW  Elec       q    Type
REMARK                         _______ _______ _______ _____ _____    ______ ____
ROOT
ATOM      1  C   UNL     1     102.791 127.939  83.080  0.00  0.00    +0.000 C 
ATOM      2  O   UNL     1     103.366 128.083  84.153  0.00  0.00    +0.000 OA
ENDROOT
BRANCH   1   6
ATOM      3  C   UNL     1      98.506 127.496  82.817  0.00  0.00    +0.000 A 
ATOM      4  C   UNL     1      99.367 126.517  82.327  0.00  0.00    +0.000 A 
ATOM      5  C   UNL     1     100.753 126.687  82.427  0.00  0.00    +0.000 A 
ATOM      6  C   UNL     1     101.302 127.837  83.018  0.00  0.00    +0.000 A 
ATOM      7  C   UNL     1     100.429 128.817  83.507  0.00  0.00    +0.000 A 
ATOM      8  C   UNL     1      99.044 128.642  83.404  0.00  0.00    +0.000 A 
BRANCH   3  10
ATOM      9  C   UNL     1      96.490 126.739  83.826  0.00  0.00    +0.000 C 
ATOM     10  O   UNL     1      97.140 127.458  82.784  0.00  0.00    +0.000 OA
ENDBRANCH   3  10
ENDBRANCH   1   6
BRANCH   1  11
ATOM     11  S   UNL     1     103.713 127.868  81.582  0.00  0.00    +0.000 S 
BRANCH  11  12
ATOM     12  C   UNL     1     104.039 126.119  81.488  0.00  0.00    +0.000 A 
ATOM     13  C   UNL     1     104.056 125.317  82.635  0.00  0.00    +0.000 A 
ATOM     14  C   UNL     1     104.325 123.948  82.536  0.00  0.00    +0.000 A 
ATOM     15  C   UNL     1     104.586 123.382  81.292  0.00  0.00    +0.000 A 
ATOM     16  C   UNL     1     104.584 124.173  80.144  0.00  0.00    +0.000 A 
ATOM     17  C   UNL     1     104.314 125.540  80.243  0.00  0.00    +0.000 A 
ATOM     18 CL   UNL     1     104.919 121.698  81.169  0.00  0.00    +0.000 Cl
ENDBRANCH  11  12
ENDBRANCH   1  11
TORSDOF 4
ENDMDL
