REMARK  Name = *****
REMARK  2 active torsions:
REMARK  status: ('A' for Active; 'I' for Inactive)
REMARK    1  A    between atoms: C_1  and  C_2
REMARK    2  A    between atoms: C_11  and  C_13
REMARK                            x       y       z     vdW  Elec       q    Type
REMARK                         _______ _______ _______ _____ _____    ______ ____
ROOT
ATOM      1  C   UNL     1       0.921  -0.111  -0.215  0.00  0.00    +0.000 C 
ATOM      2  C   UNL     1       2.423  -0.116  -0.217  0.00  0.00    +0.000 A 
ATOM      3  C   UNL     1       3.127   1.082  -0.016  0.00  0.00    +0.000 A 
ATOM      4  C   UNL     1       4.536   1.057   0.007  0.00  0.00    +0.000 A 
ATOM      5  C   UNL     1       5.235  -0.145  -0.148  0.00  0.00    +0.000 A 
ATOM      6  C   UNL     1       4.517  -1.343  -0.332  0.00  0.00    +0.000 A 
ATOM      7  C   UNL     1       3.119  -1.317  -0.360  0.00  0.00    +0.000 A 
ATOM      8  C   UNL     1       6.616   0.153  -0.079  0.00  0.00    +0.000 A 
ATOM      9  C   UNL     1       6.738   1.507   0.111  0.00  0.00    +0.000 A 
ATOM     10  N   UNL     1       5.476   2.079   0.189  0.00  0.00    +0.000 N 
ATOM     11  C   UNL     1       5.210   3.459   0.383  0.00  0.00    +0.000 C 
ATOM     12  O   UNL     1       4.065   3.869   0.204  0.00  0.00    +0.000 OA
ENDROOT
BRANCH  11  13
ATOM     13  C   UNL     1       6.234   4.458   0.772  0.00  0.00    +0.000 A 
ATOM     14  C   UNL     1       6.295   5.667   0.072  0.00  0.00    +0.000 A 
ATOM     15  C   UNL     1       7.237   6.631   0.431  0.00  0.00    +0.000 A 
ATOM     16  C   UNL     1       8.106   6.393   1.496  0.00  0.00    +0.000 A 
ATOM     17  C   UNL     1       8.030   5.198   2.212  0.00  0.00    +0.000 A 
ATOM     18  C   UNL     1       7.089   4.230   1.857  0.00  0.00    +0.000 A 
ENDBRANCH  11  13
TORSDOF 1
