REMARK  Name = *****
REMARK  5 active torsions:
REMARK  status: ('A' for Active; 'I' for Inactive)
REMARK    1  A    between atoms: C_1  and  O_2
REMARK    2  A    between atoms: O_2  and  C_3
REMARK    3  A    between atoms: C_3  and  C_11
REMARK    4  A    between atoms: N_4  and  C_5
REMARK    5  A    between atoms: C_11  and  C_12
REMARK                            x       y       z     vdW  Elec       q    Type
REMARK                         _______ _______ _______ _____ _____    ______ ____
ROOT
ATOM      1  C   UNL     1       2.999  -1.122   1.005  0.00  0.00    +0.000 C 
ATOM      2  N   UNL     1       2.305  -2.018   1.636  0.00  0.00    +0.000 NA
ENDROOT
BRANCH   2   3
ATOM      3  C   UNL     1       0.921  -2.123   1.464  0.00  0.00    +0.000 A 
ATOM      4  C   UNL     1       0.365  -2.484   0.233  0.00  0.00    +0.000 A 
ATOM      5  C   UNL     1      -1.018  -2.618   0.091  0.00  0.00    +0.000 A 
ATOM      6  C   UNL     1      -1.853  -2.408   1.187  0.00  0.00    +0.000 A 
ATOM      7  C   UNL     1      -1.306  -2.074   2.425  0.00  0.00    +0.000 A 
ATOM      8  C   UNL     1       0.077  -1.941   2.563  0.00  0.00    +0.000 A 
ENDBRANCH   2   3
BRANCH   1  10
ATOM      9  C   UNL     1       1.542   0.749   0.769  0.00  0.00    +0.000 C 
ATOM     10  O   UNL     1       2.537  -0.117   0.213  0.00  0.00    +0.000 OA
ENDBRANCH   1  10
BRANCH   1  11
ATOM     11  C   UNL     1       4.508  -1.144   1.044  0.00  0.00    +0.000 C 
BRANCH  11  12
ATOM     12  C   UNL     1       5.102  -1.890  -0.125  0.00  0.00    +0.000 A 
ATOM     13  C   UNL     1       5.639  -1.197  -1.218  0.00  0.00    +0.000 A 
ATOM     14  C   UNL     1       6.173  -1.895  -2.303  0.00  0.00    +0.000 A 
ATOM     15  C   UNL     1       6.170  -3.289  -2.308  0.00  0.00    +0.000 A 
ATOM     16  C   UNL     1       5.630  -3.987  -1.230  0.00  0.00    +0.000 A 
ATOM     17  C   UNL     1       5.097  -3.292  -0.144  0.00  0.00    +0.000 A 
ENDBRANCH  11  12
ENDBRANCH   1  11
TORSDOF 4
