REMARK  Name = *****
REMARK  3 active torsions:
REMARK  status: ('A' for Active; 'I' for Inactive)
REMARK    1  A    between atoms: C_4  and  C_7
REMARK    2  A    between atoms: C_7  and  C_14
REMARK    3  A    between atoms: C_8  and  C_9
REMARK                            x       y       z     vdW  Elec       q    Type
REMARK                         _______ _______ _______ _____ _____    ______ ____
ROOT
ATOM      1  C   UNL     1      -2.846   0.364  -0.594  0.00  0.00    +0.000 C 
ATOM      2  C   UNL     1      -3.456   1.478  -0.137  0.00  0.00    +0.000 C 
ENDROOT
BRANCH   1   6
ATOM      3  C   UNL     1       1.298  -0.207   0.331  0.00  0.00    +0.000 A 
ATOM      4  C   UNL     1       0.343  -1.090   0.831  0.00  0.00    +0.000 A 
ATOM      5  C   UNL     1      -1.008  -0.905   0.529  0.00  0.00    +0.000 A 
ATOM      6  C   UNL     1      -1.415   0.170  -0.275  0.00  0.00    +0.000 A 
ATOM      7  C   UNL     1      -0.444   1.051  -0.775  0.00  0.00    +0.000 A 
ATOM      8  C   UNL     1       0.906   0.863  -0.472  0.00  0.00    +0.000 A 
ENDBRANCH   1   6
BRANCH   2   9
ATOM      9  C   UNL     1      -4.821   1.891  -0.301  0.00  0.00    +0.000 A 
ATOM     10  C   UNL     1      -5.456   2.654   0.660  0.00  0.00    +0.000 A 
ATOM     11  S   UNL     1      -7.071   3.033   0.237  0.00  0.00    +0.000 S 
ATOM     12  C   UNL     1      -6.929   2.203  -1.249  0.00  0.00    +0.000 A 
ATOM     13  C   UNL     1      -5.678   1.648  -1.417  0.00  0.00    +0.000 A 
ENDBRANCH   2   9
BRANCH   1  14
ATOM     14  C   UNL     1      -3.521  -0.664  -1.320  0.00  0.00    +0.000 C 
ATOM     15  N   UNL     1      -4.060  -1.504  -1.914  0.00  0.00    +0.000 NA
ENDBRANCH   1  14
TORSDOF 3
