MODEL 1
REMARK VINA RESULT:      -4.2      0.000      0.000
REMARK  Name = *****
REMARK  1 active torsions:
REMARK  status: ('A' for Active; 'I' for Inactive)
REMARK    1  A    between atoms: C_5  and  C_6
REMARK                            x       y       z     vdW  Elec       q    Type
REMARK                         _______ _______ _______ _____ _____    ______ ____
ROOT
ATOM      1  C   UNL     1      89.757  66.434  84.864  0.00  0.00    +0.000 C 
ATOM      2  C   UNL     1      89.895  67.932  84.523  0.00  0.00    +0.000 C 
ATOM      3  C   UNL     1      89.823  68.126  86.030  0.00  0.00    +0.000 C 
ATOM      4  C   UNL     1      89.508  69.120  86.785  0.00  0.00    +0.000 C 
ATOM      5  C   UNL     1      89.188  70.124  87.548  0.00  0.00    +0.000 C 
ATOM      6  C   UNL     1      90.258  66.693  86.300  0.00  0.00    +0.000 C 
ENDROOT
BRANCH   5   7
ATOM      7  C   UNL     1      87.849  70.732  87.604  0.00  0.00    +0.000 A 
ATOM      8  C   UNL     1      87.222  71.069  88.812  0.00  0.00    +0.000 A 
ATOM      9  C   UNL     1      85.949  71.646  88.821  0.00  0.00    +0.000 A 
ATOM     10  C   UNL     1      85.286  71.893  87.622  0.00  0.00    +0.000 A 
ATOM     11  C   UNL     1      85.894  71.564  86.413  0.00  0.00    +0.000 A 
ATOM     12  C   UNL     1      87.168  70.987  86.405  0.00  0.00    +0.000 A 
ENDBRANCH   5   7
TORSDOF 1
ENDMDL
