MODEL 1
REMARK VINA RESULT:      -4.7      0.000      0.000
REMARK  Name = *****
REMARK  3 active torsions:
REMARK  status: ('A' for Active; 'I' for Inactive)
REMARK    1  A    between atoms: C_4  and  C_7
REMARK    2  A    between atoms: C_4  and  C_15
REMARK    3  A    between atoms: C_8  and  C_9
REMARK                            x       y       z     vdW  Elec       q    Type
REMARK                         _______ _______ _______ _____ _____    ______ ____
ROOT
ATOM      1  C   UNL     1      99.098 129.063  83.349  0.00  0.00    +0.000 C 
ATOM      2  C   UNL     1     100.494 129.077  83.958  0.00  0.00    +0.000 C 
ATOM      3  C   UNL     1     101.470 128.201  83.167  0.00  0.00    +0.000 C 
ATOM      4  C   UNL     1     100.974 126.747  82.965  0.00  0.00    +0.000 C 
ATOM      5  C   UNL     1      99.535 126.767  82.389  0.00  0.00    +0.000 C 
ATOM      6  C   UNL     1      98.570 127.643  83.194  0.00  0.00    +0.000 C 
ENDROOT
BRANCH   4   7
ATOM      7  C   UNL     1     101.986 126.025  82.072  0.00  0.00    +0.000 C 
ATOM      8  C   UNL     1     103.052 125.301  82.455  0.00  0.00    +0.000 C 
BRANCH   8   9
ATOM      9  C   UNL     1     103.965 124.642  81.510  0.00  0.00    +0.000 A 
ATOM     10  C   UNL     1     104.413 125.275  80.342  0.00  0.00    +0.000 A 
ATOM     11  C   UNL     1     105.305 124.629  79.481  0.00  0.00    +0.000 A 
ATOM     12  C   UNL     1     105.767 123.350  79.786  0.00  0.00    +0.000 A 
ATOM     13  C   UNL     1     105.342 122.719  80.953  0.00  0.00    +0.000 A 
ATOM     14  C   UNL     1     104.450 123.364  81.814  0.00  0.00    +0.000 A 
ENDBRANCH   8   9
ENDBRANCH   4   7
BRANCH   4  15
ATOM     15  C   UNL     1     100.972 126.032  84.272  0.00  0.00    +0.000 C 
ATOM     16  N   UNL     1     100.968 125.486  85.297  0.00  0.00    +0.000 NA
ENDBRANCH   4  15
TORSDOF 3
ENDMDL
