MODEL 1
REMARK VINA RESULT:      -5.1      0.000      0.000
REMARK  Name = *****
REMARK  2 active torsions:
REMARK  status: ('A' for Active; 'I' for Inactive)
REMARK    1  A    between atoms: C_1  and  C_2
REMARK    2  A    between atoms: C_3  and  C_11
REMARK                            x       y       z     vdW  Elec       q    Type
REMARK                         _______ _______ _______ _____ _____    ______ ____
ROOT
ATOM      1  C   UNL     1     103.625 127.661  79.908  0.00  0.00    +0.000 C 
ATOM      2  C   UNL     1     103.606 126.443  80.757  0.00  0.00    +0.000 C 
ATOM      3  C   UNL     1     102.890 126.169  81.866  0.00  0.00    +0.000 C 
ATOM      4  C   UNL     1     103.171 124.795  82.433  0.00  0.00    +0.000 C 
ATOM      5  C   UNL     1     104.191 124.292  81.456  0.00  0.00    +0.000 A 
ATOM      6  C   UNL     1     104.843 123.070  81.439  0.00  0.00    +0.000 A 
ATOM      7  C   UNL     1     105.762 122.830  80.416  0.00  0.00    +0.000 A 
ATOM      8  C   UNL     1     106.011 123.804  79.434  0.00  0.00    +0.000 A 
ATOM      9  C   UNL     1     105.346 125.033  79.463  0.00  0.00    +0.000 A 
ATOM     10  C   UNL     1     104.435 125.268  80.480  0.00  0.00    +0.000 A 
ENDROOT
BRANCH   3  11
ATOM     11  C   UNL     1     101.926 127.045  82.518  0.00  0.00    +0.000 A 
ATOM     12  C   UNL     1     100.557 126.774  82.429  0.00  0.00    +0.000 A 
ATOM     13  C   UNL     1      99.632 127.618  83.048  0.00  0.00    +0.000 A 
ATOM     14  C   UNL     1     100.073 128.736  83.756  0.00  0.00    +0.000 A 
ATOM     15  C   UNL     1     101.436 129.013  83.844  0.00  0.00    +0.000 A 
ATOM     16  C   UNL     1     102.362 128.171  83.225  0.00  0.00    +0.000 A 
ENDBRANCH   3  11
TORSDOF 1
ENDMDL
