MODEL 1
REMARK VINA RESULT:      -5.5      0.000      0.000
REMARK  Name = *****
REMARK  1 active torsions:
REMARK  status: ('A' for Active; 'I' for Inactive)
REMARK    1  A    between atoms: C_3  and  C_11
REMARK                            x       y       z     vdW  Elec       q    Type
REMARK                         _______ _______ _______ _____ _____    ______ ____
ROOT
ATOM      1  C   UNL     1     103.683 125.494  80.266  0.00  0.00    +0.000 C 
ATOM      2  C   UNL     1     103.037 126.391  81.312  0.00  0.00    +0.000 C 
ATOM      3  C   UNL     1     101.769 125.985  82.041  0.00  0.00    +0.000 C 
ATOM      4  C   UNL     1     103.125 125.733  82.677  0.00  0.00    +0.000 C 
ATOM      5  C   UNL     1     103.849 124.448  82.428  0.00  0.00    +0.000 A 
ATOM      6  C   UNL     1     104.206 123.452  83.326  0.00  0.00    +0.000 A 
ATOM      7  C   UNL     1     104.887 122.325  82.854  0.00  0.00    +0.000 A 
ATOM      8  C   UNL     1     105.206 122.200  81.494  0.00  0.00    +0.000 A 
ATOM      9  C   UNL     1     104.848 123.197  80.586  0.00  0.00    +0.000 A 
ATOM     10  C   UNL     1     104.174 124.310  81.065  0.00  0.00    +0.000 A 
ENDROOT
BRANCH   3  11
ATOM     11  C   UNL     1     100.861 127.051  82.610  0.00  0.00    +0.000 A 
ATOM     12  C   UNL     1     101.381 128.179  83.264  0.00  0.00    +0.000 A 
ATOM     13  C   UNL     1     100.545 129.174  83.778  0.00  0.00    +0.000 A 
ATOM     14  C   UNL     1      99.165 129.061  83.641  0.00  0.00    +0.000 A 
ATOM     15  C   UNL     1      98.624 127.958  82.988  0.00  0.00    +0.000 A 
ATOM     16  C   UNL     1      99.465 126.968  82.476  0.00  0.00    +0.000 A 
ENDBRANCH   3  11
TORSDOF 1
ENDMDL
