REMARK  Name = *****
REMARK  6 active torsions:
REMARK  status: ('A' for Active; 'I' for Inactive)
REMARK    1  A    between atoms: C_1  and  C_2
REMARK    2  A    between atoms: C_5  and  O_8
REMARK    3  A    between atoms: O_8  and  S_9
REMARK    4  A    between atoms: S_9  and  O_10
REMARK    5  A    between atoms: O_10  and  C_11
REMARK    6  A    between atoms: C_14  and  C_17
REMARK                            x       y       z     vdW  Elec       q    Type
REMARK                         _______ _______ _______ _____ _____    ______ ____
ROOT
ATOM      1  S   UNL     1      -4.741   1.205   1.135  0.00  0.00    +0.000 S 
ENDROOT
BRANCH   1   2
ATOM      2  O   UNL     1      -3.593   0.081   1.583  0.00  0.00    +0.000 OA
BRANCH   2   7
ATOM      3  C   UNL     1       1.410   0.142  -1.086  0.00  0.00    +0.000 C 
ATOM      4  C   UNL     1       0.074   0.153  -0.404  0.00  0.00    +0.000 A 
ATOM      5  C   UNL     1      -0.355   1.288   0.298  0.00  0.00    +0.000 A 
ATOM      6  C   UNL     1      -1.583   1.288   0.962  0.00  0.00    +0.000 A 
ATOM      7  C   UNL     1      -2.393   0.152   0.922  0.00  0.00    +0.000 A 
ATOM      8  C   UNL     1      -1.957  -0.997   0.263  0.00  0.00    +0.000 A 
ATOM      9  C   UNL     1      -0.729  -0.995  -0.402  0.00  0.00    +0.000 A 
ENDBRANCH   2   7
ENDBRANCH   1   2
BRANCH   1  10
ATOM     10  O   UNL     1      -5.600   0.261   0.061  0.00  0.00    +0.000 OA
BRANCH  10  11
ATOM     11  C   UNL     1      -5.688   0.753  -1.216  0.00  0.00    +0.000 A 
ATOM     12  C   UNL     1      -4.575   0.917  -2.040  0.00  0.00    +0.000 A 
ATOM     13  C   UNL     1      -4.739   1.378  -3.349  0.00  0.00    +0.000 A 
ATOM     14  C   UNL     1      -6.015   1.674  -3.844  0.00  0.00    +0.000 A 
ATOM     15  C   UNL     1      -7.130   1.470  -3.021  0.00  0.00    +0.000 A 
ATOM     16  C   UNL     1      -6.966   1.009  -1.713  0.00  0.00    +0.000 A 
ATOM     17  C   UNL     1      -6.191   2.134  -5.261  0.00  0.00    +0.000 C 
ENDBRANCH  10  11
ENDBRANCH   1  10
TORSDOF 4
