MODEL 1
REMARK VINA RESULT:      -4.6      0.000      0.000
REMARK  Name = *****
REMARK  3 active torsions:
REMARK  status: ('A' for Active; 'I' for Inactive)
REMARK    1  A    between atoms: C_4  and  C_7
REMARK    2  A    between atoms: C_7  and  C_9
REMARK    3  A    between atoms: C_9  and  C_10
REMARK                            x       y       z     vdW  Elec       q    Type
REMARK                         _______ _______ _______ _____ _____    ______ ____
ROOT
ATOM      1  C   UNL     1     103.111 126.953  82.768  0.00  0.00    +0.000 C 
ENDROOT
BRANCH   1   2
ATOM      2  C   UNL     1     101.652 127.352  82.886  0.00  0.00    +0.000 A 
ATOM      3  C   UNL     1     101.246 128.580  83.456  0.00  0.00    +0.000 A 
ATOM      4  C   UNL     1      99.881 128.916  83.510  0.00  0.00    +0.000 A 
ATOM      5  C   UNL     1      98.919 128.047  82.989  0.00  0.00    +0.000 A 
ATOM      6  C   UNL     1      99.311 126.849  82.403  0.00  0.00    +0.000 A 
ATOM      7  C   UNL     1     100.662 126.510  82.344  0.00  0.00    +0.000 A 
ATOM      8 CL   UNL     1      99.312 130.396  84.205  0.00  0.00    +0.000 Cl
ATOM      9 CL   UNL     1     102.432 129.682  84.084  0.00  0.00    +0.000 Cl
ENDBRANCH   1   2
BRANCH   1  10
ATOM     10  C   UNL     1     103.622 126.844  81.342  0.00  0.00    +0.000 C 
ATOM     11  O   UNL     1     103.503 127.786  80.557  0.00  0.00    +0.000 OA
BRANCH  10  15
ATOM     12  C   UNL     1     105.425 123.147  80.093  0.00  0.00    +0.000 A 
ATOM     13  C   UNL     1     104.577 123.189  81.196  0.00  0.00    +0.000 A 
ATOM     14  C   UNL     1     104.001 124.399  81.585  0.00  0.00    +0.000 A 
ATOM     15  C   UNL     1     104.266 125.578  80.873  0.00  0.00    +0.000 A 
ATOM     16  C   UNL     1     105.121 125.526  79.765  0.00  0.00    +0.000 A 
ATOM     17  C   UNL     1     105.698 124.312  79.379  0.00  0.00    +0.000 A 
ENDBRANCH  10  15
ENDBRANCH   1  10
TORSDOF 3
ENDMDL
