REMARK  Name = *****
REMARK  5 active torsions:
REMARK  status: ('A' for Active; 'I' for Inactive)
REMARK    1  A    between atoms: C_1  and  C_2
REMARK    2  A    between atoms: C_4  and  C_8
REMARK    3  A    between atoms: C_9  and  C_10
REMARK    4  A    between atoms: C_13  and  O_16
REMARK    5  A    between atoms: O_16  and  C_17
REMARK                            x       y       z     vdW  Elec       q    Type
REMARK                         _______ _______ _______ _____ _____    ______ ____
ROOT
ATOM      1  C   UNL     1      -1.801   2.495   0.014  0.00  0.00    +0.000 C 
ATOM      2  C   UNL     1      -1.249   3.719   0.014  0.00  0.00    +0.000 C 
ENDROOT
BRANCH   1   6
ATOM      3  C   UNL     1       2.184  -0.291   1.347  0.00  0.00    +0.000 C 
ATOM      4  C   UNL     1       0.895  -0.122   0.599  0.00  0.00    +0.000 A 
ATOM      5  C   UNL     1       0.187   1.088   0.652  0.00  0.00    +0.000 A 
ATOM      6  C   UNL     1      -1.025   1.246  -0.037  0.00  0.00    +0.000 A 
ATOM      7  C   UNL     1      -1.541   0.160  -0.753  0.00  0.00    +0.000 A 
ATOM      8  C   UNL     1      -0.850  -1.052  -0.802  0.00  0.00    +0.000 A 
ATOM      9  C   UNL     1       0.363  -1.192  -0.129  0.00  0.00    +0.000 A 
ENDBRANCH   1   6
BRANCH   2  10
ATOM     10  C   UNL     1      -2.022   4.970   0.039  0.00  0.00    +0.000 A 
ATOM     11  C   UNL     1      -3.206   5.108   0.773  0.00  0.00    +0.000 A 
ATOM     12  C   UNL     1      -3.900   6.325   0.796  0.00  0.00    +0.000 A 
ATOM     13  C   UNL     1      -3.412   7.425   0.093  0.00  0.00    +0.000 A 
ATOM     14  C   UNL     1      -2.221   7.298  -0.624  0.00  0.00    +0.000 A 
ATOM     15  C   UNL     1      -1.528   6.083  -0.648  0.00  0.00    +0.000 A 
BRANCH  13  16
ATOM     16  O   UNL     1      -3.987   8.664   0.031  0.00  0.00    +0.000 OA
ATOM     17  C   UNL     1      -5.222   8.832   0.716  0.00  0.00    +0.000 C 
ENDBRANCH  13  16
ENDBRANCH   2  10
TORSDOF 3
