REMARK  Name = *****
REMARK  1 active torsions:
REMARK  status: ('A' for Active; 'I' for Inactive)
REMARK    1  A    between atoms: C_4  and  C_6
REMARK                            x       y       z     vdW  Elec       q    Type
REMARK                         _______ _______ _______ _____ _____    ______ ____
ROOT
ATOM      1  C   UNL     1      -1.158   1.229   1.714  0.00  0.00    +0.000 A 
ATOM      2  C   UNL     1      -0.396   0.884   2.843  0.00  0.00    +0.000 A 
ATOM      3  C   UNL     1      -0.789   1.348   4.088  0.00  0.00    +0.000 A 
ATOM      4  C   UNL     1      -1.934   2.136   4.237  0.00  0.00    +0.000 A 
ATOM      5  C   UNL     1      -2.172   2.463   5.678  0.00  0.00    +0.000 C 
ATOM      6  C   UNL     1      -0.791   2.169   6.282  0.00  0.00    +0.000 C 
ATOM      7  C   UNL     1      -0.156   1.072   5.416  0.00  0.00    +0.000 C 
ATOM      8  C   UNL     1      -2.710   2.475   3.145  0.00  0.00    +0.000 A 
ATOM      9  C   UNL     1      -2.315   2.022   1.882  0.00  0.00    +0.000 A 
ENDROOT
BRANCH   1  13
ATOM     10  C   UNL     1       1.358  -0.267  -0.292  0.00  0.00    +0.000 C 
ATOM     11  C   UNL     1       0.228  -1.173  -0.747  0.00  0.00    +0.000 C 
ATOM     12  C   UNL     1      -0.924  -0.770   0.162  0.00  0.00    +0.000 C 
ATOM     13  C   UNL     1      -0.776   0.753   0.328  0.00  0.00    +0.000 C 
ATOM     14  C   UNL     1       0.676   1.079  -0.075  0.00  0.00    +0.000 C 
ENDBRANCH   1  13
TORSDOF 1
