MODEL 1
REMARK VINA RESULT:      -5.1      0.000      0.000
REMARK  Name = *****
REMARK  1 active torsions:
REMARK  status: ('A' for Active; 'I' for Inactive)
REMARK    1  A    between atoms: C_4  and  C_7
REMARK                            x       y       z     vdW  Elec       q    Type
REMARK                         _______ _______ _______ _____ _____    ______ ____
ROOT
ATOM      1  C   UNL     1     102.082 126.021  82.715  0.00  0.00    +0.000 A 
ATOM      2  N   UNL     1     102.586 125.183  83.605  0.00  0.00    +0.000 NA
ATOM      3  C   UNL     1     103.543 124.486  82.907  0.00  0.00    +0.000 A 
ATOM      4  C   UNL     1     103.582 124.940  81.598  0.00  0.00    +0.000 A 
ATOM      5  O   UNL     1     102.648 125.924  81.467  0.00  0.00    +0.000 OA
ATOM      6  C   UNL     1     104.444 124.443  80.629  0.00  0.00    +0.000 A 
ATOM      7  C   UNL     1     105.310 123.427  81.024  0.00  0.00    +0.000 A 
ATOM      8  C   UNL     1     105.303 122.943  82.330  0.00  0.00    +0.000 A 
ATOM      9  C   UNL     1     104.426 123.462  83.285  0.00  0.00    +0.000 A 
ATOM     10  F   UNL     1     104.434 122.984  84.535  0.00  0.00    +0.000 F 
ATOM     11  F   UNL     1     106.151 121.963  82.675  0.00  0.00    +0.000 F 
ATOM     12  F   UNL     1     106.165 122.907  80.131  0.00  0.00    +0.000 F 
ATOM     13  F   UNL     1     104.445 124.912  79.376  0.00  0.00    +0.000 F 
ENDROOT
BRANCH   1  17
ATOM     14  C   UNL     1      99.024 128.961  83.232  0.00  0.00    +0.000 A 
ATOM     15  C   UNL     1     100.318 129.202  83.686  0.00  0.00    +0.000 A 
ATOM     16  C   UNL     1     101.311 128.234  83.511  0.00  0.00    +0.000 A 
ATOM     17  C   UNL     1     101.022 127.013  82.882  0.00  0.00    +0.000 A 
ATOM     18  C   UNL     1      99.713 126.786  82.431  0.00  0.00    +0.000 A 
ATOM     19  C   UNL     1      98.720 127.755  82.605  0.00  0.00    +0.000 A 
ENDBRANCH   1  17
TORSDOF 1
ENDMDL
