MODEL 1
REMARK VINA RESULT:      -4.8      0.000      0.000
REMARK  Name = *****
REMARK  1 active torsions:
REMARK  status: ('A' for Active; 'I' for Inactive)
REMARK    1  A    between atoms: C_6  and  C_10
REMARK                            x       y       z     vdW  Elec       q    Type
REMARK                         _______ _______ _______ _____ _____    ______ ____
ROOT
ATOM      1  C   UNL     1     105.183 123.632  80.342  0.00  0.00    +0.000 C 
ATOM      2  C   UNL     1     105.476 123.281  81.810  0.00  0.00    +0.000 C 
ATOM      3  C   UNL     1     104.285 123.536  82.737  0.00  0.00    +0.000 C 
ATOM      4  C   UNL     1     103.793 124.936  82.577  0.00  0.00    +0.000 C 
ATOM      5  C   UNL     1     102.962 125.628  83.365  0.00  0.00    +0.000 C 
ATOM      6  C   UNL     1     102.677 126.993  82.797  0.00  0.00    +0.000 C 
ATOM      7  C   UNL     1     103.173 126.853  81.341  0.00  0.00    +0.000 C 
ATOM      8  C   UNL     1     104.225 125.739  81.385  0.00  0.00    +0.000 C 
ATOM      9  C   UNL     1     104.269 124.853  80.146  0.00  0.00    +0.000 C 
ENDROOT
BRANCH   6  10
ATOM     10  C   UNL     1     101.227 127.419  82.890  0.00  0.00    +0.000 A 
ATOM     11  C   UNL     1     100.900 128.648  83.481  0.00  0.00    +0.000 A 
ATOM     12  C   UNL     1      99.570 129.066  83.569  0.00  0.00    +0.000 A 
ATOM     13  C   UNL     1      98.550 128.261  83.067  0.00  0.00    +0.000 A 
ATOM     14  C   UNL     1      98.859 127.039  82.475  0.00  0.00    +0.000 A 
ATOM     15  C   UNL     1     100.188 126.621  82.386  0.00  0.00    +0.000 A 
ENDBRANCH   6  10
TORSDOF 1
ENDMDL
