REMARK  Name = *****
REMARK  3 active torsions:
REMARK  status: ('A' for Active; 'I' for Inactive)
REMARK    1  A    between atoms: C_1  and  C_2
REMARK    2  A    between atoms: C_5  and  C_8
REMARK    3  A    between atoms: C_9  and  C_10
REMARK                            x       y       z     vdW  Elec       q    Type
REMARK                         _______ _______ _______ _____ _____    ______ ____
ROOT
ATOM      1  C   UNL     1       5.670  -1.772   0.004  0.00  0.00    +0.000 C 
ATOM      2  C   UNL     1       5.628  -3.113   0.057  0.00  0.00    +0.000 C 
ENDROOT
BRANCH   1   7
ATOM      3  C   UNL     1       2.269   2.009  -0.168  0.00  0.00    +0.000 C 
ATOM      4  C   UNL     1       2.921   0.679  -0.121  0.00  0.00    +0.000 A 
ATOM      5  C   UNL     1       2.300  -0.549  -0.107  0.00  0.00    +0.000 A 
ATOM      6  O   UNL     1       3.208  -1.550  -0.061  0.00  0.00    +0.000 OA
ATOM      7  C   UNL     1       4.473  -0.999  -0.043  0.00  0.00    +0.000 A 
ATOM      8  C   UNL     1       4.313   0.385  -0.080  0.00  0.00    +0.000 A 
ATOM      9 CL   UNL     1       5.545   1.567  -0.076  0.00  0.00    +0.000 Cl
ENDBRANCH   1   7
BRANCH   2  10
ATOM     10  C   UNL     1       6.820  -3.971   0.099  0.00  0.00    +0.000 A 
ATOM     11  C   UNL     1       7.969  -3.626   0.823  0.00  0.00    +0.000 A 
ATOM     12  C   UNL     1       9.071  -4.486   0.860  0.00  0.00    +0.000 A 
ATOM     13  C   UNL     1       9.031  -5.703   0.184  0.00  0.00    +0.000 A 
ATOM     14  C   UNL     1       7.888  -6.065  -0.526  0.00  0.00    +0.000 A 
ATOM     15  C   UNL     1       6.786  -5.206  -0.563  0.00  0.00    +0.000 A 
ENDBRANCH   2  10
TORSDOF 2
