MODEL 1
REMARK VINA RESULT:      -4.6      0.000      0.000
REMARK  Name = *****
REMARK  3 active torsions:
REMARK  status: ('A' for Active; 'I' for Inactive)
REMARK    1  A    between atoms: C_4  and  C_7
REMARK    2  A    between atoms: C_7  and  C_8
REMARK    3  A    between atoms: C_9  and  C_10
REMARK                            x       y       z     vdW  Elec       q    Type
REMARK                         _______ _______ _______ _____ _____    ______ ____
ROOT
ATOM      1  C   UNL     1     100.226 126.763  82.643  0.00  0.00    +0.000 C 
ATOM      2  C   UNL     1      99.157 127.558  82.806  0.00  0.00    +0.000 C 
ATOM      3  F   UNL     1      98.038 127.243  82.113  0.00  0.00    +0.000 F 
ENDROOT
BRANCH   2   4
ATOM      4  C   UNL     1      99.052 128.712  83.703  0.00  0.00    +0.000 A 
ATOM      5  C   UNL     1      99.541 129.976  83.342  0.00  0.00    +0.000 A 
ATOM      6  C   UNL     1      99.406 131.062  84.209  0.00  0.00    +0.000 A 
ATOM      7  C   UNL     1      98.769 130.898  85.438  0.00  0.00    +0.000 A 
ATOM      8  C   UNL     1      98.261 129.652  85.799  0.00  0.00    +0.000 A 
ATOM      9  C   UNL     1      98.396 128.565  84.932  0.00  0.00    +0.000 A 
ENDBRANCH   2   4
BRANCH   1  10
ATOM     10  C   UNL     1     101.548 126.833  83.350  0.00  0.00    +0.000 C 
BRANCH  10  14
ATOM     11  C   UNL     1     104.611 128.692  80.943  0.00  0.00    +0.000 A 
ATOM     12  C   UNL     1     103.839 127.659  80.412  0.00  0.00    +0.000 A 
ATOM     13  C   UNL     1     102.847 127.058  81.186  0.00  0.00    +0.000 A 
ATOM     14  C   UNL     1     102.611 127.490  82.499  0.00  0.00    +0.000 A 
ATOM     15  C   UNL     1     103.397 128.526  83.026  0.00  0.00    +0.000 A 
ATOM     16  C   UNL     1     104.390 129.125  82.249  0.00  0.00    +0.000 A 
ENDBRANCH  10  14
ENDBRANCH   1  10
TORSDOF 3
ENDMDL
