MODEL 1
REMARK VINA RESULT:      -4.7      0.000      0.000
REMARK  Name = *****
REMARK  3 active torsions:
REMARK  status: ('A' for Active; 'I' for Inactive)
REMARK    1  A    between atoms: C_6  and  C_7
REMARK    2  A    between atoms: C_7  and  C_8
REMARK    3  A    between atoms: C_8  and  C_9
REMARK                            x       y       z     vdW  Elec       q    Type
REMARK                         _______ _______ _______ _____ _____    ______ ____
ROOT
ATOM      1  C   UNL     1      88.874  70.160  86.878  0.00  0.00    +0.000 C 
ENDROOT
BRANCH   1   2
ATOM      2  C   UNL     1      88.980  68.655  86.848  0.00  0.00    +0.000 A 
ATOM      3  C   UNL     1      90.101  68.034  86.280  0.00  0.00    +0.000 A 
ATOM      4  C   UNL     1      90.183  66.644  86.242  0.00  0.00    +0.000 A 
ATOM      5  C   UNL     1      89.156  65.865  86.759  0.00  0.00    +0.000 A 
ATOM      6  C   UNL     1      88.034  66.464  87.321  0.00  0.00    +0.000 A 
ATOM      7  C   UNL     1      87.944  67.858  87.364  0.00  0.00    +0.000 A 
ATOM      8  F   UNL     1      89.237  64.527  86.722  0.00  0.00    +0.000 F 
ATOM      9  F   UNL     1      91.261  66.064  85.697  0.00  0.00    +0.000 F 
ENDBRANCH   1   2
BRANCH   1  10
ATOM     10  C   UNL     1      87.932  70.685  85.791  0.00  0.00    +0.000 C 
BRANCH  10  16
ATOM     11  C   UNL     1      86.494  71.312  87.771  0.00  0.00    +0.000 A 
ATOM     12  C   UNL     1      85.339  71.875  88.319  0.00  0.00    +0.000 A 
ATOM     13  C   UNL     1      84.363  72.406  87.479  0.00  0.00    +0.000 A 
ATOM     14  C   UNL     1      84.531  72.380  86.096  0.00  0.00    +0.000 A 
ATOM     15  C   UNL     1      85.686  71.816  85.549  0.00  0.00    +0.000 A 
ATOM     16  C   UNL     1      86.675  71.273  86.381  0.00  0.00    +0.000 A 
ATOM     17 BR   UNL     1      82.801  73.170  88.220  0.00  0.00    +0.000 Br
ENDBRANCH  10  16
ENDBRANCH   1  10
TORSDOF 3
ENDMDL
