REMARK  Name = *****
REMARK  5 active torsions:
REMARK  status: ('A' for Active; 'I' for Inactive)
REMARK    1  A    between atoms: C_1  and  C_2
REMARK    2  A    between atoms: C_4  and  C_17
REMARK    3  A    between atoms: C_5  and  C_8
REMARK    4  A    between atoms: C_8  and  C_10
REMARK    5  A    between atoms: C_10  and  C_11
REMARK                            x       y       z     vdW  Elec       q    Type
REMARK                         _______ _______ _______ _____ _____    ______ ____
ROOT
ATOM      1  C   UNL     1      -2.451  -1.734   0.355  0.00  0.00    +0.000 C 
ATOM      2  O   UNL     1      -3.376  -1.243   1.001  0.00  0.00    +0.000 OA
ENDROOT
BRANCH   1   7
ATOM      3  C   UNL     1       2.616   1.067  -0.111  0.00  0.00    +0.000 C 
ATOM      4  C   UNL     1       1.298   0.358   0.001  0.00  0.00    +0.000 A 
ATOM      5  C   UNL     1       0.091   1.063  -0.089  0.00  0.00    +0.000 A 
ATOM      6  C   UNL     1      -1.149   0.405   0.010  0.00  0.00    +0.000 A 
ATOM      7  C   UNL     1      -1.164  -0.988   0.217  0.00  0.00    +0.000 A 
ATOM      8  C   UNL     1       0.044  -1.692   0.313  0.00  0.00    +0.000 A 
ATOM      9  C   UNL     1       1.265  -1.024   0.200  0.00  0.00    +0.000 A 
ATOM     10  C   UNL     1      -2.408   1.223  -0.084  0.00  0.00    +0.000 C 
ENDBRANCH   1   7
BRANCH   1  11
ATOM     11  C   UNL     1      -2.584  -3.082  -0.334  0.00  0.00    +0.000 C 
BRANCH  11  12
ATOM     12  C   UNL     1      -2.362  -4.267   0.575  0.00  0.00    +0.000 A 
ATOM     13  C   UNL     1      -3.048  -4.382   1.793  0.00  0.00    +0.000 A 
ATOM     14  C   UNL     1      -2.845  -5.487   2.621  0.00  0.00    +0.000 A 
ATOM     15  C   UNL     1      -1.965  -6.496   2.237  0.00  0.00    +0.000 A 
ATOM     16  C   UNL     1      -1.291  -6.404   1.021  0.00  0.00    +0.000 A 
ATOM     17  C   UNL     1      -1.493  -5.299   0.191  0.00  0.00    +0.000 A 
ENDBRANCH  11  12
ENDBRANCH   1  11
TORSDOF 3
