MODEL 1
REMARK VINA RESULT:      -4.5      0.000      0.000
REMARK  Name = *****
REMARK  3 active torsions:
REMARK  status: ('A' for Active; 'I' for Inactive)
REMARK    1  A    between atoms: C_1  and  C_2
REMARK    2  A    between atoms: C_5  and  S_8
REMARK    3  A    between atoms: S_8  and  C_10
REMARK                            x       y       z     vdW  Elec       q    Type
REMARK                         _______ _______ _______ _____ _____    ______ ____
ROOT
ATOM      1  S   UNL     1      89.042  70.500  86.865  0.00  0.00    +0.000 S 
ATOM      2  O   UNL     1      90.114  70.847  85.872  0.00  0.00    +0.000 OA
ENDROOT
BRANCH   1   7
ATOM      3  C   UNL     1      88.684  64.393  87.028  0.00  0.00    +0.000 C 
ATOM      4  C   UNL     1      88.758  65.890  86.958  0.00  0.00    +0.000 A 
ATOM      5  C   UNL     1      87.754  66.679  87.533  0.00  0.00    +0.000 A 
ATOM      6  C   UNL     1      87.841  68.073  87.495  0.00  0.00    +0.000 A 
ATOM      7  C   UNL     1      88.936  68.697  86.887  0.00  0.00    +0.000 A 
ATOM      8  C   UNL     1      89.949  67.911  86.332  0.00  0.00    +0.000 A 
ATOM      9  C   UNL     1      89.863  66.517  86.370  0.00  0.00    +0.000 A 
ENDBRANCH   1   7
BRANCH   1  10
ATOM     10  C   UNL     1      87.476  70.906  86.110  0.00  0.00    +0.000 C 
ATOM     11  C   UNL     1      86.428  71.347  86.822  0.00  0.00    +0.000 C 
ATOM     12  C   UNL     1      85.099  71.673  86.192  0.00  0.00    +0.000 C 
ATOM     13  C   UNL     1      84.353  72.414  87.294  0.00  0.00    +0.000 C 
ATOM     14  C   UNL     1      84.873  71.773  88.572  0.00  0.00    +0.000 C 
ATOM     15  C   UNL     1      86.364  71.594  88.308  0.00  0.00    +0.000 C 
ATOM     16  F   UNL     1      87.310  70.714  84.780  0.00  0.00    +0.000 F 
ENDBRANCH   1  10
TORSDOF 2
ENDMDL
