MODEL 1
REMARK VINA RESULT:      -4.6      0.000      0.000
REMARK  Name = *****
REMARK  4 active torsions:
REMARK  status: ('A' for Active; 'I' for Inactive)
REMARK    1  A    between atoms: C_1  and  O_2
REMARK    2  A    between atoms: O_2  and  C_3
REMARK    3  A    between atoms: C_8  and  C_9
REMARK    4  A    between atoms: C_10  and  C_11
REMARK                            x       y       z     vdW  Elec       q    Type
REMARK                         _______ _______ _______ _____ _____    ______ ____
ROOT
ATOM      1  C   UNL     1     104.297 123.285  82.662  0.00  0.00    +0.000 A 
ATOM      2  C   UNL     1     105.149 122.410  81.975  0.00  0.00    +0.000 A 
ATOM      3  C   UNL     1     105.514 122.666  80.650  0.00  0.00    +0.000 A 
ATOM      4  C   UNL     1     105.028 123.793  79.997  0.00  0.00    +0.000 A 
ATOM      5  C   UNL     1     104.179 124.672  80.669  0.00  0.00    +0.000 A 
ATOM      6  C   UNL     1     103.813 124.436  82.004  0.00  0.00    +0.000 A 
ENDROOT
BRANCH   1   8
ATOM      7  C   UNL     1     104.521 122.086  84.719  0.00  0.00    +0.000 C 
ATOM      8  O   UNL     1     103.873 123.091  83.953  0.00  0.00    +0.000 OA
ENDBRANCH   1   8
BRANCH   6   9
ATOM      9  C   UNL     1     102.903 125.409  82.630  0.00  0.00    +0.000 C 
ATOM     10  C   UNL     1     101.943 126.052  81.946  0.00  0.00    +0.000 C 
BRANCH  10  11
ATOM     11  C   UNL     1     101.002 127.007  82.546  0.00  0.00    +0.000 A 
ATOM     12  C   UNL     1     101.431 128.153  83.230  0.00  0.00    +0.000 A 
ATOM     13  C   UNL     1     100.504 129.053  83.762  0.00  0.00    +0.000 A 
ATOM     14  C   UNL     1      99.139 128.823  83.606  0.00  0.00    +0.000 A 
ATOM     15  C   UNL     1      98.700 127.697  82.913  0.00  0.00    +0.000 A 
ATOM     16  C   UNL     1      99.627 126.797  82.381  0.00  0.00    +0.000 A 
ENDBRANCH  10  11
ENDBRANCH   6   9
TORSDOF 3
ENDMDL
