MODEL 1
REMARK VINA RESULT:      -3.8      0.000      0.000
REMARK  Name = *****
REMARK  6 active torsions:
REMARK  status: ('A' for Active; 'I' for Inactive)
REMARK    1  A    between atoms: C_1  and  O_2
REMARK    2  A    between atoms: O_2  and  C_3
REMARK    3  A    between atoms: C_3  and  C_4
REMARK    4  A    between atoms: C_3  and  C_12
REMARK    5  A    between atoms: C_4  and  S_5
REMARK    6  A    between atoms: S_5  and  C_6
REMARK                            x       y       z     vdW  Elec       q    Type
REMARK                         _______ _______ _______ _____ _____    ______ ____
ROOT
ATOM      1  C   UNL     1      87.626  65.625  87.448  0.00  0.00    +0.000 C 
ENDROOT
BRANCH   1   2
ATOM      2  C   UNL     1      87.588  65.148  88.890  0.00  0.00    +0.000 A 
ATOM      3  C   UNL     1      86.514  65.503  89.723  0.00  0.00    +0.000 A 
ATOM      4  C   UNL     1      86.459  65.053  91.044  0.00  0.00    +0.000 A 
ATOM      5  C   UNL     1      87.474  64.244  91.550  0.00  0.00    +0.000 A 
ATOM      6  C   UNL     1      88.545  63.883  90.737  0.00  0.00    +0.000 A 
ATOM      7  C   UNL     1      88.601  64.330  89.416  0.00  0.00    +0.000 A 
ENDBRANCH   1   2
BRANCH   1   9
ATOM      8  C   UNL     1      89.682  66.240  86.409  0.00  0.00    +0.000 C 
ATOM      9  O   UNL     1      88.866  65.170  86.869  0.00  0.00    +0.000 OA
ENDBRANCH   1   9
BRANCH   1  10
ATOM     10  C   UNL     1      86.456  65.073  86.611  0.00  0.00    +0.000 C 
BRANCH  10  11
ATOM     11  S   UNL     1      86.614  63.277  86.279  0.00  0.00    +0.000 S 
BRANCH  11  12
ATOM     12  C   UNL     1      85.748  62.627  87.696  0.00  0.00    +0.000 A 
ATOM     13  C   UNL     1      86.368  61.751  88.593  0.00  0.00    +0.000 A 
ATOM     14  C   UNL     1      85.670  61.265  89.700  0.00  0.00    +0.000 A 
ATOM     15  C   UNL     1      84.351  61.658  89.922  0.00  0.00    +0.000 A 
ATOM     16  C   UNL     1      83.732  62.542  89.040  0.00  0.00    +0.000 A 
ATOM     17  C   UNL     1      84.431  63.029  87.933  0.00  0.00    +0.000 A 
ENDBRANCH  11  12
ENDBRANCH  10  11
ENDBRANCH   1  10
TORSDOF 5
ENDMDL
