MODEL 1
REMARK VINA RESULT:      -3.5      0.000      0.000
REMARK  Name = *****
REMARK  4 active torsions:
REMARK  status: ('A' for Active; 'I' for Inactive)
REMARK    1  A    between atoms: C_3  and  S_6
REMARK    2  A    between atoms: S_6  and  S_7
REMARK    3  A    between atoms: S_7  and  S_8
REMARK    4  A    between atoms: S_8  and  C_9
REMARK                            x       y       z     vdW  Elec       q    Type
REMARK                         _______ _______ _______ _____ _____    ______ ____
ROOT
ATOM      1  S   UNL     1      96.896 116.863  83.120  0.00  0.00    +0.000 S 
ENDROOT
BRANCH   1   2
ATOM      2  S   UNL     1      96.388 118.639  84.018  0.00  0.00    +0.000 S 
BRANCH   2   5
ATOM      3  C   UNL     1      97.798 120.478  81.211  0.00  0.00    +0.000 C 
ATOM      4  C   UNL     1      97.135 120.668  82.363  0.00  0.00    +0.000 C 
ATOM      5  C   UNL     1      97.688 119.763  83.432  0.00  0.00    +0.000 C 
ATOM      6  C   UNL     1      98.757 119.027  82.672  0.00  0.00    +0.000 C 
ATOM      7  C   UNL     1      98.803 119.462  81.403  0.00  0.00    +0.000 C 
ENDBRANCH   2   5
ENDBRANCH   1   2
BRANCH   1   8
ATOM      8  S   UNL     1      95.946 116.906  81.299  0.00  0.00    +0.000 S 
BRANCH   8   9
ATOM      9  C   UNL     1      97.032 115.884  80.264  0.00  0.00    +0.000 C 
ATOM     10  C   UNL     1      97.739 116.752  79.255  0.00  0.00    +0.000 C 
ATOM     11  C   UNL     1      97.411 116.370  78.010  0.00  0.00    +0.000 C 
ATOM     12  C   UNL     1      96.486 115.267  78.080  0.00  0.00    +0.000 C 
ATOM     13  C   UNL     1      96.244 114.970  79.366  0.00  0.00    +0.000 C 
ENDBRANCH   8   9
ENDBRANCH   1   8
TORSDOF 4
ENDMDL
