MODEL 1
REMARK VINA RESULT:      -5.2      0.000      0.000
REMARK  Name = *****
REMARK  1 active torsions:
REMARK  status: ('A' for Active; 'I' for Inactive)
REMARK    1  A    between atoms: C_5  and  C_6
REMARK                            x       y       z     vdW  Elec       q    Type
REMARK                         _______ _______ _______ _____ _____    ______ ____
ROOT
ATOM      1  C   UNL     1      87.009  68.973  88.821  0.00  0.00    +0.000 C 
ATOM      2  C   UNL     1      87.209  70.466  89.162  0.00  0.00    +0.000 C 
ATOM      3  C   UNL     1      88.386  70.815  88.235  0.00  0.00    +0.000 C 
ATOM      4  C   UNL     1      87.678  70.370  86.939  0.00  0.00    +0.000 C 
ATOM      5  C   UNL     1      87.278  68.903  87.275  0.00  0.00    +0.000 C 
ATOM      6  C   UNL     1      86.425  71.209  87.088  0.00  0.00    +0.000 A 
ATOM      7  C   UNL     1      85.612  71.812  86.154  0.00  0.00    +0.000 A 
ATOM      8  C   UNL     1      84.484  72.488  86.627  0.00  0.00    +0.000 A 
ATOM      9  C   UNL     1      84.191  72.537  88.006  0.00  0.00    +0.000 A 
ATOM     10  C   UNL     1      85.019  71.910  88.941  0.00  0.00    +0.000 A 
ATOM     11  C   UNL     1      86.132  71.257  88.462  0.00  0.00    +0.000 A 
ENDROOT
BRANCH   5  12
ATOM     12  C   UNL     1      88.263  67.803  86.924  0.00  0.00    +0.000 A 
ATOM     13  C   UNL     1      87.986  66.496  87.365  0.00  0.00    +0.000 A 
ATOM     14  C   UNL     1      88.850  65.438  87.074  0.00  0.00    +0.000 A 
ATOM     15  C   UNL     1      90.007  65.671  86.337  0.00  0.00    +0.000 A 
ATOM     16  C   UNL     1      90.297  66.957  85.891  0.00  0.00    +0.000 A 
ATOM     17  C   UNL     1      89.431  68.016  86.181  0.00  0.00    +0.000 A 
ENDBRANCH   5  12
TORSDOF 1
ENDMDL
