MODEL 1
REMARK VINA RESULT:      -4.2      0.000      0.000
REMARK  Name = *****
REMARK  4 active torsions:
REMARK  status: ('A' for Active; 'I' for Inactive)
REMARK    1  A    between atoms: C_1  and  C_2
REMARK    2  A    between atoms: C_5  and  N_8
REMARK    3  A    between atoms: N_8  and  C_9
REMARK    4  A    between atoms: C_9  and  C_11
REMARK                            x       y       z     vdW  Elec       q    Type
REMARK                         _______ _______ _______ _____ _____    ______ ____
ROOT
ATOM      1  N   UNL     1      89.172  63.821  87.778  0.00  0.00    +0.000 N 
ATOM      2  H   UNL     1      90.074  63.623  88.121  0.00  0.00    +0.000 HD
ENDROOT
BRANCH   1   7
ATOM      3  C   UNL     1      85.181  62.597  91.721  0.00  0.00    +0.000 C 
ATOM      4  C   UNL     1      86.218  62.880  90.675  0.00  0.00    +0.000 A 
ATOM      5  C   UNL     1      86.183  62.239  89.435  0.00  0.00    +0.000 A 
ATOM      6  C   UNL     1      87.142  62.519  88.451  0.00  0.00    +0.000 A 
ATOM      7  C   UNL     1      88.151  63.452  88.683  0.00  0.00    +0.000 A 
ATOM      8  C   UNL     1      88.176  64.097  89.930  0.00  0.00    +0.000 A 
ATOM      9  C   UNL     1      87.221  63.818  90.914  0.00  0.00    +0.000 A 
ENDBRANCH   1   7
BRANCH   1  10
ATOM     10  C   UNL     1      89.193  64.401  86.517  0.00  0.00    +0.000 C 
ATOM     11  S   UNL     1      89.152  63.635  85.025  0.00  0.00    +0.000 S 
BRANCH  10  12
ATOM     12  C   UNL     1      89.245  65.878  86.522  0.00  0.00    +0.000 A 
ATOM     13  C   UNL     1      90.273  66.746  86.171  0.00  0.00    +0.000 A 
ATOM     14  C   UNL     1      89.929  68.122  86.318  0.00  0.00    +0.000 A 
ATOM     15  C   UNL     1      88.645  68.284  86.779  0.00  0.00    +0.000 A 
ATOM     16  S   UNL     1      87.863  66.790  87.029  0.00  0.00    +0.000 S 
ENDBRANCH  10  12
ENDBRANCH   1  10
TORSDOF 3
ENDMDL
