MODEL 1
REMARK VINA RESULT:      -3.9      0.000      0.000
REMARK  Name = *****
REMARK  5 active torsions:
REMARK  status: ('A' for Active; 'I' for Inactive)
REMARK    1  A    between atoms: C_1  and  C_2
REMARK    2  A    between atoms: C_5  and  S_8
REMARK    3  A    between atoms: S_8  and  S_11
REMARK    4  A    between atoms: S_11  and  C_12
REMARK    5  A    between atoms: C_12  and  C_13
REMARK                            x       y       z     vdW  Elec       q    Type
REMARK                         _______ _______ _______ _____ _____    ______ ____
ROOT
ATOM      1  S   UNL     1      89.863  67.129  85.284  0.00  0.00    +0.000 S 
ATOM      2  O   UNL     1      90.369  66.450  84.107  0.00  0.00    +0.000 OA
ATOM      3  O   UNL     1      90.649  67.221  86.497  0.00  0.00    +0.000 OA
ENDROOT
BRANCH   1   8
ATOM      4  C   UNL     1      88.334  72.771  83.641  0.00  0.00    +0.000 C 
ATOM      5  C   UNL     1      88.693  71.377  84.068  0.00  0.00    +0.000 A 
ATOM      6  C   UNL     1      89.611  71.171  85.107  0.00  0.00    +0.000 A 
ATOM      7  C   UNL     1      89.969  69.877  85.489  0.00  0.00    +0.000 A 
ATOM      8  C   UNL     1      89.420  68.785  84.813  0.00  0.00    +0.000 A 
ATOM      9  C   UNL     1      88.504  68.975  83.774  0.00  0.00    +0.000 A 
ATOM     10  C   UNL     1      88.152  70.271  83.399  0.00  0.00    +0.000 A 
ENDBRANCH   1   8
BRANCH   1  11
ATOM     11  S   UNL     1      88.031  66.261  85.767  0.00  0.00    +0.000 S 
BRANCH  11  12
ATOM     12  C   UNL     1      87.751  66.956  87.411  0.00  0.00    +0.000 C 
BRANCH  12  13
ATOM     13  C   UNL     1      87.211  68.363  87.333  0.00  0.00    +0.000 A 
ATOM     14  C   UNL     1      86.179  68.681  86.434  0.00  0.00    +0.000 A 
ATOM     15  C   UNL     1      85.692  69.987  86.353  0.00  0.00    +0.000 A 
ATOM     16  C   UNL     1      86.237  70.974  87.164  0.00  0.00    +0.000 A 
ATOM     17  C   UNL     1      87.263  70.682  88.054  0.00  0.00    +0.000 A 
ATOM     18  C   UNL     1      87.753  69.378  88.138  0.00  0.00    +0.000 A 
ATOM     19  F   UNL     1      85.768  72.226  87.085  0.00  0.00    +0.000 F 
ENDBRANCH  12  13
ENDBRANCH  11  12
ENDBRANCH   1  11
TORSDOF 4
ENDMDL
