REMARK  Name = *****
REMARK  3 active torsions:
REMARK  status: ('A' for Active; 'I' for Inactive)
REMARK    1  A    between atoms: C_4  and  C_7
REMARK    2  A    between atoms: C_7  and  O_8
REMARK    3  A    between atoms: O_8  and  C_9
REMARK                            x       y       z     vdW  Elec       q    Type
REMARK                         _______ _______ _______ _____ _____    ______ ____
ROOT
ATOM      1  O   UNL     1      -3.581  -0.760  -0.112  0.00  0.00    +0.000 OA
ENDROOT
BRANCH   1   2
ATOM      2  C   UNL     1      -4.937  -0.721  -0.309  0.00  0.00    +0.000 A 
ATOM      3  C   UNL     1      -5.692   0.453  -0.412  0.00  0.00    +0.000 A 
ATOM      4  C   UNL     1      -7.076   0.391  -0.605  0.00  0.00    +0.000 A 
ATOM      5  C   UNL     1      -7.721  -0.840  -0.696  0.00  0.00    +0.000 A 
ATOM      6  C   UNL     1      -6.981  -2.016  -0.593  0.00  0.00    +0.000 A 
ATOM      7  C   UNL     1      -5.598  -1.958  -0.399  0.00  0.00    +0.000 A 
ATOM      8 CL   UNL     1      -4.734  -3.452  -0.284  0.00  0.00    +0.000 Cl
ENDBRANCH   1   2
BRANCH   1   9
ATOM      9  C   UNL     1      -2.864   0.472  -0.166  0.00  0.00    +0.000 C 
BRANCH   9  13
ATOM     10  C   UNL     1       1.402  -0.167   0.105  0.00  0.00    +0.000 A 
ATOM     11  C   UNL     1       0.594  -1.136  -0.486  0.00  0.00    +0.000 A 
ATOM     12  C   UNL     1      -0.786  -0.941  -0.567  0.00  0.00    +0.000 A 
ATOM     13  C   UNL     1      -1.376   0.220  -0.047  0.00  0.00    +0.000 A 
ATOM     14  C   UNL     1      -0.548   1.194   0.532  0.00  0.00    +0.000 A 
ATOM     15  C   UNL     1       0.832   0.998   0.612  0.00  0.00    +0.000 A 
ENDBRANCH   9  13
ENDBRANCH   1   9
TORSDOF 3
