MODEL 1
REMARK VINA RESULT:      -4.9      0.000      0.000
REMARK  Name = *****
REMARK  6 active torsions:
REMARK  status: ('A' for Active; 'I' for Inactive)
REMARK    1  A    between atoms: C_1  and  C_2
REMARK    2  A    between atoms: C_4  and  C_19
REMARK    3  A    between atoms: C_5  and  C_9
REMARK    4  A    between atoms: C_6  and  C_8
REMARK    5  A    between atoms: C_9  and  O_11
REMARK    6  A    between atoms: O_11  and  C_12
REMARK                            x       y       z     vdW  Elec       q    Type
REMARK                         _______ _______ _______ _____ _____    ______ ____
ROOT
ATOM      1  C   UNL     1      88.286  70.518  85.687  0.00  0.00    +0.000 C 
ATOM      2  O   UNL     1      89.306  71.141  85.455  0.00  0.00    +0.000 OA
ENDROOT
BRANCH   1   7
ATOM      3  C   UNL     1      83.671  72.733  88.371  0.00  0.00    +0.000 C 
ATOM      4  C   UNL     1      84.855  72.129  87.673  0.00  0.00    +0.000 A 
ATOM      5  C   UNL     1      84.974  72.213  86.280  0.00  0.00    +0.000 A 
ATOM      6  C   UNL     1      86.094  71.690  85.618  0.00  0.00    +0.000 A 
ATOM      7  C   UNL     1      87.106  71.076  86.380  0.00  0.00    +0.000 A 
ATOM      8  C   UNL     1      87.002  70.973  87.782  0.00  0.00    +0.000 A 
ATOM      9  C   UNL     1      85.876  71.523  88.415  0.00  0.00    +0.000 A 
ATOM     10  C   UNL     1      88.071  70.324  88.615  0.00  0.00    +0.000 C 
ATOM     11  C   UNL     1      86.183  71.787  84.119  0.00  0.00    +0.000 C 
ENDBRANCH   1   7
BRANCH   1  12
ATOM     12  O   UNL     1      88.035  69.214  85.420  0.00  0.00    +0.000 OA
BRANCH  12  13
ATOM     13  C   UNL     1      89.193  68.424  85.118  0.00  0.00    +0.000 C 
ATOM     14  C   UNL     1      89.930  68.105  86.434  0.00  0.00    +0.000 C 
ATOM     15  C   UNL     1      89.881  66.567  86.494  0.00  0.00    +0.000 C 
ATOM     16  C   UNL     1      90.803  65.992  85.406  0.00  0.00    +0.000 C 
ATOM     17  C   UNL     1      90.039  66.296  84.108  0.00  0.00    +0.000 C 
ATOM     18  C   UNL     1      88.783  67.024  84.611  0.00  0.00    +0.000 C 
ATOM     19  C   UNL     1      88.497  66.278  85.918  0.00  0.00    +0.000 C 
ENDBRANCH  12  13
ENDBRANCH   1  12
TORSDOF 3
ENDMDL
