REMARK  Name = *****
REMARK  4 active torsions:
REMARK  status: ('A' for Active; 'I' for Inactive)
REMARK    1  A    between atoms: C_4  and  C_7
REMARK    2  A    between atoms: C_7  and  C_8
REMARK    3  A    between atoms: C_8  and  C_10
REMARK    4  A    between atoms: C_10  and  C_11
REMARK                            x       y       z     vdW  Elec       q    Type
REMARK                         _______ _______ _______ _____ _____    ______ ____
ROOT
ATOM      1  C   UNL     1      -0.647  -3.645   0.976  0.00  0.00    +0.000 C 
ATOM      2  O   UNL     1      -1.341  -3.136   1.859  0.00  0.00    +0.000 OA
ENDROOT
BRANCH   1   3
ATOM      3  C   UNL     1       0.515  -2.923   0.289  0.00  0.00    +0.000 C 
BRANCH   3   7
ATOM      4  C   UNL     1       0.975   1.069   2.042  0.00  0.00    +0.000 C 
ATOM      5  C   UNL     1       0.251   0.958   0.706  0.00  0.00    +0.000 C 
ATOM      6  C   UNL     1      -0.243  -0.471   0.462  0.00  0.00    +0.000 C 
ATOM      7  C   UNL     1       0.777  -1.531   0.814  0.00  0.00    +0.000 C 
ATOM      8  C   UNL     1       1.876  -1.241   1.536  0.00  0.00    +0.000 C 
ATOM      9  C   UNL     1       2.172   0.120   2.098  0.00  0.00    +0.000 C 
ENDBRANCH   3   7
ENDBRANCH   1   3
BRANCH   1  10
ATOM     10  C   UNL     1      -0.906  -5.074   0.514  0.00  0.00    +0.000 C 
BRANCH  10  11
ATOM     11  C   UNL     1      -0.020  -6.051   1.244  0.00  0.00    +0.000 C 
ATOM     12  C   UNL     1       1.013  -6.666   0.638  0.00  0.00    +0.000 C 
ATOM     13  C   UNL     1       1.884  -7.689   1.309  0.00  0.00    +0.000 C 
ATOM     14  C   UNL     1       1.292  -8.221   2.614  0.00  0.00    +0.000 C 
ATOM     15  C   UNL     1       0.711  -7.089   3.452  0.00  0.00    +0.000 C 
ATOM     16  C   UNL     1      -0.379  -6.334   2.687  0.00  0.00    +0.000 C 
ENDBRANCH  10  11
ENDBRANCH   1  10
TORSDOF 4
