MODEL 1
REMARK VINA RESULT:      -5.0      0.000      0.000
REMARK  Name = *****
REMARK  8 active torsions:
REMARK  status: ('A' for Active; 'I' for Inactive)
REMARK    1  A    between atoms: C_1  and  C_2
REMARK    2  A    between atoms: C_2  and  N_3
REMARK    3  A    between atoms: N_3  and  C_4
REMARK    4  A    between atoms: N_3  and  C_13
REMARK    5  A    between atoms: C_4  and  C_5
REMARK    6  A    between atoms: C_9  and  C_12
REMARK    7  A    between atoms: C_10  and  C_11
REMARK    8  A    between atoms: C_16  and  C_19
REMARK                            x       y       z     vdW  Elec       q    Type
REMARK                         _______ _______ _______ _____ _____    ______ ____
ROOT
ATOM      1  N   UNL     1     103.599 126.628  82.068  0.00  0.00    +0.000 N 
ENDROOT
BRANCH   1   2
ATOM      2  C   UNL     1     103.984 125.295  81.946  0.00  0.00    +0.000 A 
ATOM      3  C   UNL     1     104.233 124.700  80.697  0.00  0.00    +0.000 A 
ATOM      4  C   UNL     1     104.612 123.356  80.562  0.00  0.00    +0.000 A 
ATOM      5  C   UNL     1     104.745 122.541  81.683  0.00  0.00    +0.000 A 
ATOM      6  C   UNL     1     104.514 123.103  82.936  0.00  0.00    +0.000 A 
ATOM      7  C   UNL     1     104.133 124.449  83.058  0.00  0.00    +0.000 A 
ATOM      8  C   UNL     1     105.184 121.115  81.549  0.00  0.00    +0.000 C 
ENDBRANCH   1   2
BRANCH   1  10
ATOM      9  C   UNL     1     104.520 128.746  81.192  0.00  0.00    +0.000 C 
ATOM     10  C   UNL     1     103.606 127.556  80.931  0.00  0.00    +0.000 C 
ENDBRANCH   1  10
BRANCH   1  11
ATOM     11  C   UNL     1     102.990 127.141  83.309  0.00  0.00    +0.000 C 
BRANCH  11  12
ATOM     12  C   UNL     1     101.535 127.583  83.179  0.00  0.00    +0.000 A 
ATOM     13  C   UNL     1     100.564 126.718  82.642  0.00  0.00    +0.000 A 
ATOM     14  C   UNL     1      99.235 127.110  82.521  0.00  0.00    +0.000 A 
ATOM     15  C   UNL     1      98.846 128.380  82.932  0.00  0.00    +0.000 A 
ATOM     16  C   UNL     1      99.780 129.274  83.475  0.00  0.00    +0.000 A 
ATOM     17  C   UNL     1     101.129 128.869  83.633  0.00  0.00    +0.000 A 
ATOM     18  C   UNL     1     102.145 129.823  84.215  0.00  0.00    +0.000 C 
ATOM     19  C   UNL     1      99.300 130.638  83.896  0.00  0.00    +0.000 C 
ENDBRANCH  11  12
ENDBRANCH   1  11
TORSDOF 4
ENDMDL
