REMARK  Name = *****
REMARK  3 active torsions:
REMARK  status: ('A' for Active; 'I' for Inactive)
REMARK    1  A    between atoms: C_5  and  O_7
REMARK    2  A    between atoms: O_7  and  C_8
REMARK    3  A    between atoms: C_8  and  C_10
REMARK                            x       y       z     vdW  Elec       q    Type
REMARK                         _______ _______ _______ _____ _____    ______ ____
ROOT
ATOM      1  C   UNL     1      -2.931  -2.387  -0.458  0.00  0.00    +0.000 C 
ATOM      2  O   UNL     1      -3.385  -2.226   0.661  0.00  0.00    +0.000 OA
ENDROOT
BRANCH   1   3
ATOM      3  C   UNL     1      -3.611  -3.117  -1.544  0.00  0.00    +0.000 A 
ATOM      4  C   UNL     1      -2.913  -4.135  -2.214  0.00  0.00    +0.000 A 
ATOM      5  C   UNL     1      -3.537  -4.865  -3.226  0.00  0.00    +0.000 A 
ATOM      6  C   UNL     1      -4.858  -4.584  -3.572  0.00  0.00    +0.000 A 
ATOM      7  C   UNL     1      -5.554  -3.570  -2.910  0.00  0.00    +0.000 A 
ATOM      8  C   UNL     1      -4.935  -2.833  -1.894  0.00  0.00    +0.000 A 
ATOM      9 CL   UNL     1      -5.848  -1.563  -1.163  0.00  0.00    +0.000 Cl
ENDBRANCH   1   3
BRANCH   1  10
ATOM     10  O   UNL     1      -1.739  -1.943  -0.926  0.00  0.00    +0.000 OA
BRANCH  10  15
ATOM     11  C   UNL     1      -0.445   1.226   0.631  0.00  0.00    +0.000 C 
ATOM     12  C   UNL     1       0.875   1.188  -0.144  0.00  0.00    +0.000 C 
ATOM     13  C   UNL     1       1.293  -0.202  -0.524  0.00  0.00    +0.000 C 
ATOM     14  C   UNL     1       0.472  -1.261  -0.444  0.00  0.00    +0.000 C 
ATOM     15  C   UNL     1      -0.963  -1.171   0.005  0.00  0.00    +0.000 C 
ATOM     16  C   UNL     1      -1.473   0.279   0.020  0.00  0.00    +0.000 C 
ENDBRANCH  10  15
ENDBRANCH   1  10
TORSDOF 3
