REMARK  Name = *****
REMARK  4 active torsions:
REMARK  status: ('A' for Active; 'I' for Inactive)
REMARK    1  A    between atoms: C_4  and  C_7
REMARK    2  A    between atoms: C_7  and  S_11
REMARK    3  A    between atoms: C_8  and  C_9
REMARK    4  A    between atoms: S_11  and  C_12
REMARK                            x       y       z     vdW  Elec       q    Type
REMARK                         _______ _______ _______ _____ _____    ______ ____
ROOT
ATOM      1  C   UNL     1      -2.891   0.292  -0.365  0.00  0.00    +0.000 C 
ATOM      2  C   UNL     1      -3.444   1.487  -0.099  0.00  0.00    +0.000 C 
ENDROOT
BRANCH   1   6
ATOM      3  C   UNL     1       1.291  -0.517   0.049  0.00  0.00    +0.000 A 
ATOM      4  C   UNL     1       0.494  -0.368   1.183  0.00  0.00    +0.000 A 
ATOM      5  C   UNL     1      -0.871  -0.107   1.048  0.00  0.00    +0.000 A 
ATOM      6  C   UNL     1      -1.452   0.005  -0.224  0.00  0.00    +0.000 A 
ATOM      7  C   UNL     1      -0.639  -0.143  -1.357  0.00  0.00    +0.000 A 
ATOM      8  C   UNL     1       0.726  -0.404  -1.220  0.00  0.00    +0.000 A 
ENDBRANCH   1   6
BRANCH   2   9
ATOM      9  C   UNL     1      -2.720   2.616   0.369  0.00  0.00    +0.000 C 
ATOM     10  N   UNL     1      -2.157   3.553   0.758  0.00  0.00    +0.000 NA
ENDBRANCH   2   9
BRANCH   1  11
ATOM     11  S   UNL     1      -3.858  -1.026  -0.975  0.00  0.00    +0.000 S 
BRANCH  11  12
ATOM     12  C   UNL     1      -4.590  -1.569   0.559  0.00  0.00    +0.000 A 
ATOM     13  C   UNL     1      -5.917  -1.238   0.854  0.00  0.00    +0.000 A 
ATOM     14  C   UNL     1      -6.498  -1.663   2.050  0.00  0.00    +0.000 A 
ATOM     15  C   UNL     1      -5.759  -2.425   2.954  0.00  0.00    +0.000 A 
ATOM     16  C   UNL     1      -4.440  -2.769   2.659  0.00  0.00    +0.000 A 
ATOM     17  C   UNL     1      -3.859  -2.347   1.462  0.00  0.00    +0.000 A 
ENDBRANCH  11  12
ENDBRANCH   1  11
TORSDOF 4
