REMARK  Name = *****
REMARK  5 active torsions:
REMARK  status: ('A' for Active; 'I' for Inactive)
REMARK    1  A    between atoms: C_1  and  C_2
REMARK    2  A    between atoms: C_2  and  C_12
REMARK    3  A    between atoms: N_3  and  O_4
REMARK    4  A    between atoms: O_4  and  C_5
REMARK    5  A    between atoms: C_5  and  C_6
REMARK                            x       y       z     vdW  Elec       q    Type
REMARK                         _______ _______ _______ _____ _____    ______ ____
ROOT
ATOM      1  C   UNL     1       1.283   0.026   1.392  0.00  0.00    +0.000 C 
ATOM      2  C   UNL     1       2.489   0.052   0.480  0.00  0.00    +0.000 C 
ATOM      3  N   UNL     1       2.884   1.215   0.050  0.00  0.00    +0.000 NA
ENDROOT
BRANCH   2   4
ATOM      4  C   UNL     1       3.116  -1.253   0.162  0.00  0.00    +0.000 A 
ATOM      5  C   UNL     1       4.485  -1.451   0.377  0.00  0.00    +0.000 A 
ATOM      6  C   UNL     1       5.061  -2.691   0.095  0.00  0.00    +0.000 A 
ATOM      7  C   UNL     1       4.273  -3.735  -0.395  0.00  0.00    +0.000 A 
ATOM      8  C   UNL     1       2.908  -3.540  -0.604  0.00  0.00    +0.000 A 
ATOM      9  C   UNL     1       2.336  -2.302  -0.323  0.00  0.00    +0.000 A 
ATOM     10  F   UNL     1       1.021  -2.139  -0.532  0.00  0.00    +0.000 F 
ENDBRANCH   2   4
BRANCH   3  11
ATOM     11  O   UNL     1       3.965   1.113  -0.838  0.00  0.00    +0.000 OA
BRANCH  11  12
ATOM     12  C   UNL     1       4.311   2.418  -1.299  0.00  0.00    +0.000 C 
BRANCH  12  13
ATOM     13  C   UNL     1       5.521   2.304  -2.188  0.00  0.00    +0.000 A 
ATOM     14  C   UNL     1       5.375   2.033  -3.556  0.00  0.00    +0.000 A 
ATOM     15  C   UNL     1       6.497   1.907  -4.377  0.00  0.00    +0.000 A 
ATOM     16  C   UNL     1       7.775   2.042  -3.837  0.00  0.00    +0.000 A 
ATOM     17  C   UNL     1       7.933   2.297  -2.476  0.00  0.00    +0.000 A 
ATOM     18  C   UNL     1       6.812   2.423  -1.654  0.00  0.00    +0.000 A 
ENDBRANCH  12  13
ENDBRANCH  11  12
ENDBRANCH   3  11
TORSDOF 4
