MODEL 1
REMARK VINA RESULT:      -4.9      0.000      0.000
REMARK  Name = *****
REMARK  3 active torsions:
REMARK  status: ('A' for Active; 'I' for Inactive)
REMARK    1  A    between atoms: C_4  and  C_7
REMARK    2  A    between atoms: C_7  and  C_16
REMARK    3  A    between atoms: C_8  and  C_9
REMARK                            x       y       z     vdW  Elec       q    Type
REMARK                         _______ _______ _______ _____ _____    ______ ____
ROOT
ATOM      1  C   UNL     1     100.147 128.172  83.417  0.00  0.00    +0.000 C 
ATOM      2  C   UNL     1     101.491 128.075  83.361  0.00  0.00    +0.000 C 
ENDROOT
BRANCH   2   3
ATOM      3  C   UNL     1     102.251 127.077  82.596  0.00  0.00    +0.000 A 
ATOM      4  C   UNL     1     102.765 127.427  81.341  0.00  0.00    +0.000 A 
ATOM      5  C   UNL     1     103.508 126.504  80.600  0.00  0.00    +0.000 A 
ATOM      6  C   UNL     1     103.745 125.231  81.117  0.00  0.00    +0.000 A 
ATOM      7  C   UNL     1     103.248 124.876  82.369  0.00  0.00    +0.000 A 
ATOM      8  C   UNL     1     102.505 125.799  83.110  0.00  0.00    +0.000 A 
ATOM      9 CL   UNL     1     104.662 124.097  80.206  0.00  0.00    +0.000 Cl
ENDBRANCH   2   3
BRANCH   1  13
ATOM     10  C   UNL     1      98.415 131.302  85.779  0.00  0.00    +0.000 A 
ATOM     11  C   UNL     1      98.027 129.979  85.979  0.00  0.00    +0.000 A 
ATOM     12  C   UNL     1      98.591 128.960  85.209  0.00  0.00    +0.000 A 
ATOM     13  C   UNL     1      99.548 129.255  84.227  0.00  0.00    +0.000 A 
ATOM     14  C   UNL     1      99.932 130.592  84.038  0.00  0.00    +0.000 A 
ATOM     15  C   UNL     1      99.367 131.609  84.809  0.00  0.00    +0.000 A 
ENDBRANCH   1  13
BRANCH   1  16
ATOM     16  C   UNL     1      99.280 127.298  82.687  0.00  0.00    +0.000 C 
ATOM     17  N   UNL     1      98.570 126.594  82.096  0.00  0.00    +0.000 NA
ENDBRANCH   1  16
TORSDOF 3
ENDMDL
