REMARK  Name = *****
REMARK  3 active torsions:
REMARK  status: ('A' for Active; 'I' for Inactive)
REMARK    1  A    between atoms: C_1  and  C_2
REMARK    2  A    between atoms: C_4  and  C_9
REMARK    3  A    between atoms: C_5  and  C_8
REMARK                            x       y       z     vdW  Elec       q    Type
REMARK                         _______ _______ _______ _____ _____    ______ ____
ROOT
ATOM      1  C   UNL     1      -1.527   2.468   0.085  0.00  0.00    +0.000 A 
ATOM      2  N   UNL     1      -2.767   2.702   0.479  0.00  0.00    +0.000 NA
ATOM      3  C   UNL     1      -2.916   4.056   0.325  0.00  0.00    +0.000 A 
ATOM      4  C   UNL     1      -4.006   4.900   0.577  0.00  0.00    +0.000 A 
ATOM      5  C   UNL     1      -3.857   6.270   0.311  0.00  0.00    +0.000 A 
ATOM      6  C   UNL     1      -2.655   6.783  -0.194  0.00  0.00    +0.000 A 
ATOM      7  C   UNL     1      -1.557   5.952  -0.449  0.00  0.00    +0.000 A 
ATOM      8  C   UNL     1      -1.746   4.604  -0.170  0.00  0.00    +0.000 A 
ATOM      9  O   UNL     1      -0.846   3.592  -0.324  0.00  0.00    +0.000 OA
ENDROOT
BRANCH   1  13
ATOM     10  C   UNL     1       2.883   0.106  -0.133  0.00  0.00    +0.000 C 
ATOM     11  C   UNL     1       1.385   0.052  -0.107  0.00  0.00    +0.000 A 
ATOM     12  C   UNL     1       0.625   1.228  -0.044  0.00  0.00    +0.000 A 
ATOM     13  C   UNL     1      -0.785   1.202   0.014  0.00  0.00    +0.000 A 
ATOM     14  C   UNL     1      -1.435  -0.053   0.012  0.00  0.00    +0.000 A 
ATOM     15  C   UNL     1      -0.666  -1.229  -0.033  0.00  0.00    +0.000 A 
ATOM     16  C   UNL     1       0.727  -1.178  -0.090  0.00  0.00    +0.000 A 
ATOM     17  C   UNL     1      -2.935  -0.185   0.069  0.00  0.00    +0.000 C 
ENDBRANCH   1  13
TORSDOF 1
