REMARK  Name = *****
REMARK  5 active torsions:
REMARK  status: ('A' for Active; 'I' for Inactive)
REMARK    1  A    between atoms: C_1  and  C_2
REMARK    2  A    between atoms: C_3  and  C_9
REMARK    3  A    between atoms: C_9  and  O_11
REMARK    4  A    between atoms: O_11  and  C_12
REMARK    5  A    between atoms: C_12  and  C_13
REMARK                            x       y       z     vdW  Elec       q    Type
REMARK                         _______ _______ _______ _____ _____    ______ ____
ROOT
ATOM      1  C   UNL     1       2.326   2.702   0.621  0.00  0.00    +0.000 C 
ATOM      2  O   UNL     1       2.944   3.750   0.740  0.00  0.00    +0.000 OA
ENDROOT
BRANCH   1   5
ATOM      3  C   UNL     1       1.090  -0.350  -0.111  0.00  0.00    +0.000 C 
ATOM      4  C   UNL     1       2.426   0.274  -0.283  0.00  0.00    +0.000 C 
ATOM      5  C   UNL     1       2.914   1.496   0.012  0.00  0.00    +0.000 C 
ATOM      6  C   UNL     1       4.374   1.504  -0.407  0.00  0.00    +0.000 C 
ATOM      7  C   UNL     1       5.147   0.587   0.564  0.00  0.00    +0.000 C 
ATOM      8  C   UNL     1       4.588  -0.819   0.226  0.00  0.00    +0.000 C 
ATOM      9  C   UNL     1       3.570  -0.520  -0.893  0.00  0.00    +0.000 C 
ATOM     10  C   UNL     1       4.277   0.610  -1.645  0.00  0.00    +0.000 C 
ENDBRANCH   1   5
BRANCH   1  11
ATOM     11  O   UNL     1       1.059   2.474   1.028  0.00  0.00    +0.000 OA
BRANCH  11  12
ATOM     12  C   UNL     1       0.374   3.595   1.596  0.00  0.00    +0.000 C 
BRANCH  12  13
ATOM     13  C   UNL     1      -0.517   4.216   0.553  0.00  0.00    +0.000 A 
ATOM     14  C   UNL     1      -1.795   3.696   0.305  0.00  0.00    +0.000 A 
ATOM     15  C   UNL     1      -2.609   4.260  -0.678  0.00  0.00    +0.000 A 
ATOM     16  C   UNL     1      -2.151   5.342  -1.428  0.00  0.00    +0.000 A 
ATOM     17  C   UNL     1      -0.877   5.857  -1.200  0.00  0.00    +0.000 A 
ATOM     18  C   UNL     1      -0.061   5.295  -0.217  0.00  0.00    +0.000 A 
ENDBRANCH  12  13
ENDBRANCH  11  12
ENDBRANCH   1  11
TORSDOF 4
