MODEL 1
REMARK VINA RESULT:      -4.8      0.000      0.000
REMARK  Name = *****
REMARK  3 active torsions:
REMARK  status: ('A' for Active; 'I' for Inactive)
REMARK    1  A    between atoms: C_2  and  C_3
REMARK    2  A    between atoms: C_3  and  C_13
REMARK    3  A    between atoms: C_5  and  C_6
REMARK                            x       y       z     vdW  Elec       q    Type
REMARK                         _______ _______ _______ _____ _____    ______ ____
ROOT
ATOM      1  C   UNL     1      88.149  70.224  86.469  0.00  0.00    +0.000 C 
ATOM      2  C   UNL     1      88.675  69.565  87.736  0.00  0.00    +0.000 C 
ATOM      3  C   UNL     1      88.043  68.699  86.683  0.00  0.00    +0.000 C 
ENDROOT
BRANCH   3   4
ATOM      4  C   UNL     1      88.871  67.713  85.887  0.00  0.00    +0.000 A 
ATOM      5  C   UNL     1      90.079  67.191  86.387  0.00  0.00    +0.000 A 
ATOM      6  C   UNL     1      90.827  66.263  85.658  0.00  0.00    +0.000 A 
ATOM      7  C   UNL     1      90.369  65.837  84.420  0.00  0.00    +0.000 A 
ATOM      8  C   UNL     1      89.176  66.317  83.900  0.00  0.00    +0.000 A 
ATOM      9  C   UNL     1      88.432  67.245  84.633  0.00  0.00    +0.000 A 
ATOM     10  F   UNL     1      91.085  64.947  83.720  0.00  0.00    +0.000 F 
ENDBRANCH   3   4
BRANCH   1  11
ATOM     11  C   UNL     1      86.837  71.012  86.578  0.00  0.00    +0.000 A 
ATOM     12  C   UNL     1      86.154  71.456  85.431  0.00  0.00    +0.000 A 
ATOM     13  C   UNL     1      84.964  72.182  85.527  0.00  0.00    +0.000 A 
ATOM     14  C   UNL     1      84.435  72.490  86.777  0.00  0.00    +0.000 A 
ATOM     15  C   UNL     1      85.097  72.076  87.929  0.00  0.00    +0.000 A 
ATOM     16  C   UNL     1      86.287  71.349  87.828  0.00  0.00    +0.000 A 
ENDBRANCH   1  11
BRANCH   1  18
ATOM     17  C   UNL     1      90.046  71.125  84.845  0.00  0.00    +0.000 C 
ATOM     18  C   UNL     1      89.185  70.720  85.578  0.00  0.00    +0.000 C 
ENDBRANCH   1  18
TORSDOF 3
ENDMDL
