MODEL 1
REMARK VINA RESULT:      -4.6      0.000      0.000
REMARK  Name = *****
REMARK  1 active torsions:
REMARK  status: ('A' for Active; 'I' for Inactive)
REMARK    1  A    between atoms: C_9  and  C_12
REMARK                            x       y       z     vdW  Elec       q    Type
REMARK                         _______ _______ _______ _____ _____    ______ ____
ROOT
ATOM      1  C   UNL     1      89.532  70.820  84.944  0.00  0.00    +0.000 C 
ATOM      2  C   UNL     1      89.158  70.582  86.404  0.00  0.00    +0.000 C 
ATOM      3  C   UNL     1      89.813  69.315  86.952  0.00  0.00    +0.000 C 
ATOM      4  C   UNL     1      89.502  68.076  86.098  0.00  0.00    +0.000 C 
ATOM      5  C   UNL     1      89.894  68.342  84.634  0.00  0.00    +0.000 C 
ATOM      6  C   UNL     1      89.231  69.601  84.079  0.00  0.00    +0.000 C 
ATOM      7  O   UNL     1      90.271  66.999  86.664  0.00  0.00    +0.000 OA
ATOM      8  O   UNL     1      89.936  65.765  85.936  0.00  0.00    +0.000 OA
ATOM      9  C   UNL     1      88.532  65.511  86.123  0.00  0.00    +0.000 C 
ATOM     10  O   UNL     1      87.772  66.577  85.526  0.00  0.00    +0.000 OA
ATOM     11  O   UNL     1      88.093  67.819  86.245  0.00  0.00    +0.000 OA
ENDROOT
BRANCH   9  12
ATOM     12  C   UNL     1      88.137  65.180  87.558  0.00  0.00    +0.000 A 
ATOM     13  C   UNL     1      87.040  65.812  88.168  0.00  0.00    +0.000 A 
ATOM     14  C   UNL     1      86.655  65.479  89.470  0.00  0.00    +0.000 A 
ATOM     15  C   UNL     1      87.355  64.500  90.171  0.00  0.00    +0.000 A 
ATOM     16  C   UNL     1      88.434  63.850  89.579  0.00  0.00    +0.000 A 
ATOM     17  C   UNL     1      88.820  64.183  88.277  0.00  0.00    +0.000 A 
ATOM     18 CL   UNL     1      86.881  64.089  91.772  0.00  0.00    +0.000 Cl
ENDBRANCH   9  12
TORSDOF 1
ENDMDL
