MODEL 1
REMARK VINA RESULT:      -4.9      0.000      0.000
REMARK  Name = *****
REMARK  5 active torsions:
REMARK  status: ('A' for Active; 'I' for Inactive)
REMARK    1  A    between atoms: C_1  and  O_2
REMARK    2  A    between atoms: O_2  and  C_3
REMARK    3  A    between atoms: C_6  and  C_9
REMARK    4  A    between atoms: C_10  and  C_11
REMARK    5  A    between atoms: C_14  and  C_17
REMARK                            x       y       z     vdW  Elec       q    Type
REMARK                         _______ _______ _______ _____ _____    ______ ____
ROOT
ATOM      1  C   UNL     1      87.400  66.197  87.887  0.00  0.00    +0.000 C 
ATOM      2  C   UNL     1      88.003  65.125  88.425  0.00  0.00    +0.000 C 
ENDROOT
BRANCH   1   6
ATOM      3  C   UNL     1      89.419  69.672  86.388  0.00  0.00    +0.000 A 
ATOM      4  C   UNL     1      89.900  68.403  86.072  0.00  0.00    +0.000 A 
ATOM      5  C   UNL     1      89.253  67.260  86.562  0.00  0.00    +0.000 A 
ATOM      6  C   UNL     1      88.123  67.373  87.382  0.00  0.00    +0.000 A 
ATOM      7  C   UNL     1      87.636  68.649  87.680  0.00  0.00    +0.000 A 
ATOM      8  C   UNL     1      88.283  69.788  87.191  0.00  0.00    +0.000 A 
BRANCH   3  10
ATOM      9  C   UNL     1      90.375  70.944  84.622  0.00  0.00    +0.000 C 
ATOM     10  O   UNL     1      89.953  70.863  85.977  0.00  0.00    +0.000 OA
ENDBRANCH   3  10
ENDBRANCH   1   6
BRANCH   2  11
ATOM     11  C   UNL     1      87.281  63.958  88.949  0.00  0.00    +0.000 A 
ATOM     12  C   UNL     1      87.077  62.803  88.185  0.00  0.00    +0.000 A 
ATOM     13  C   UNL     1      86.411  61.698  88.727  0.00  0.00    +0.000 A 
ATOM     14  C   UNL     1      85.938  61.726  90.046  0.00  0.00    +0.000 A 
ATOM     15  C   UNL     1      86.164  62.875  90.818  0.00  0.00    +0.000 A 
ATOM     16  C   UNL     1      86.832  63.977  90.274  0.00  0.00    +0.000 A 
BRANCH  14  17
ATOM     17  C   UNL     1      85.238  60.531  90.644  0.00  0.00    +0.000 C 
ATOM     18  F   UNL     1      85.109  60.603  91.999  0.00  0.00    +0.000 F 
ATOM     19  F   UNL     1      83.976  60.374  90.157  0.00  0.00    +0.000 F 
ATOM     20  F   UNL     1      85.884  59.358  90.395  0.00  0.00    +0.000 F 
ENDBRANCH  14  17
ENDBRANCH   2  11
TORSDOF 4
ENDMDL
