MODEL 1
REMARK VINA RESULT:      -5.1      0.000      0.000
REMARK  Name = *****
REMARK  4 active torsions:
REMARK  status: ('A' for Active; 'I' for Inactive)
REMARK    1  A    between atoms: C_1  and  C_2
REMARK    2  A    between atoms: C_5  and  C_8
REMARK    3  A    between atoms: C_14  and  C_18
REMARK    4  A    between atoms: C_15  and  C_17
REMARK                            x       y       z     vdW  Elec       q    Type
REMARK                         _______ _______ _______ _____ _____    ______ ____
ROOT
ATOM      1  C   UNL     1     102.240 126.937  82.511  0.00  0.00    +0.000 A 
ATOM      2  N   UNL     1     102.446 125.678  82.856  0.00  0.00    +0.000 NA
ATOM      3  C   UNL     1     103.327 125.221  81.909  0.00  0.00    +0.000 A 
ATOM      4  C   UNL     1     103.623 126.230  81.015  0.00  0.00    +0.000 A 
ATOM      5  O   UNL     1     102.930 127.342  81.393  0.00  0.00    +0.000 OA
ATOM      6  C   UNL     1     104.484 126.103  79.933  0.00  0.00    +0.000 A 
ATOM      7  C   UNL     1     105.091 124.842  79.757  0.00  0.00    +0.000 A 
ATOM      8  C   UNL     1     104.803 123.774  80.641  0.00  0.00    +0.000 A 
ATOM      9  C   UNL     1     103.926 123.968  81.733  0.00  0.00    +0.000 A 
ATOM     10  C   UNL     1     105.459 122.423  80.507  0.00  0.00    +0.000 C 
ATOM     11  C   UNL     1     106.037 124.666  78.597  0.00  0.00    +0.000 C 
ENDROOT
BRANCH   1  16
ATOM     12  C   UNL     1      98.906 130.919  85.067  0.00  0.00    +0.000 C 
ATOM     13  C   UNL     1      99.772 129.889  84.405  0.00  0.00    +0.000 A 
ATOM     14  C   UNL     1     101.166 129.959  84.487  0.00  0.00    +0.000 A 
ATOM     15  C   UNL     1     101.961 128.991  83.863  0.00  0.00    +0.000 A 
ATOM     16  C   UNL     1     101.381 127.936  83.146  0.00  0.00    +0.000 A 
ATOM     17  C   UNL     1      99.983 127.874  83.064  0.00  0.00    +0.000 A 
ATOM     18  C   UNL     1      99.186 128.841  83.686  0.00  0.00    +0.000 A 
ENDBRANCH   1  16
TORSDOF 1
ENDMDL
