MODEL 1
REMARK VINA RESULT:      -4.4      0.000      0.000
REMARK  Name = *****
REMARK  3 active torsions:
REMARK  status: ('A' for Active; 'I' for Inactive)
REMARK    1  A    between atoms: C_4  and  C_7
REMARK    2  A    between atoms: C_8  and  P_9
REMARK    3  A    between atoms: P_9  and  C_10
REMARK                            x       y       z     vdW  Elec       q    Type
REMARK                         _______ _______ _______ _____ _____    ______ ____
ROOT
ATOM      1  C   UNL     1      98.787 127.682  82.694  0.00  0.00    +0.000 C 
ATOM      2  C   UNL     1      99.704 126.720  82.509  0.00  0.00    +0.000 C 
ENDROOT
BRANCH   1   6
ATOM      3  C   UNL     1      98.901 130.839  85.557  0.00  0.00    +0.000 A 
ATOM      4  C   UNL     1      98.338 129.611  85.903  0.00  0.00    +0.000 A 
ATOM      5  C   UNL     1      98.298 128.574  84.969  0.00  0.00    +0.000 A 
ATOM      6  C   UNL     1      98.817 128.763  83.684  0.00  0.00    +0.000 A 
ATOM      7  C   UNL     1      99.384 129.996  83.344  0.00  0.00    +0.000 A 
ATOM      8  C   UNL     1      99.424 131.032  84.279  0.00  0.00    +0.000 A 
ENDBRANCH   1   6
BRANCH   2   9
ATOM      9  P   UNL     1     101.218 126.558  83.494  0.00  0.00    +0.000 P 
ATOM     10  H   UNL     1     101.273 125.351  84.158  0.00  0.00    +0.000 HD
BRANCH   9  11
ATOM     11  C   UNL     1     102.448 126.658  82.165  0.00  0.00    +0.000 A 
ATOM     12  C   UNL     1     103.099 127.869  81.890  0.00  0.00    +0.000 A 
ATOM     13  C   UNL     1     104.051 127.950  80.870  0.00  0.00    +0.000 A 
ATOM     14  C   UNL     1     104.363 126.819  80.117  0.00  0.00    +0.000 A 
ATOM     15  C   UNL     1     103.726 125.610  80.383  0.00  0.00    +0.000 A 
ATOM     16  C   UNL     1     102.774 125.528  81.404  0.00  0.00    +0.000 A 
ENDBRANCH   9  11
ENDBRANCH   2   9
TORSDOF 3
ENDMDL
