MODEL 1
REMARK VINA RESULT:      -4.3      0.000      0.000
REMARK  Name = *****
REMARK  5 active torsions:
REMARK  status: ('A' for Active; 'I' for Inactive)
REMARK    1  A    between atoms: C_1  and  C_2
REMARK    2  A    between atoms: C_4  and  C_17
REMARK    3  A    between atoms: C_7  and  C_8
REMARK    4  A    between atoms: C_8  and  S_10
REMARK    5  A    between atoms: S_10  and  C_11
REMARK                            x       y       z     vdW  Elec       q    Type
REMARK                         _______ _______ _______ _____ _____    ______ ____
ROOT
ATOM      1  C   UNL     1      87.720  69.606  84.303  0.00  0.00    +0.000 C 
ATOM      2  O   UNL     1      86.746  68.901  84.073  0.00  0.00    +0.000 OA
ENDROOT
BRANCH   1   9
ATOM      3  C   UNL     1      90.077  67.260  86.290  0.00  0.00    +0.000 C 
ATOM      4  C   UNL     1      88.791  68.051  86.005  0.00  0.00    +0.000 C 
ATOM      5  C   UNL     1      88.237  68.668  87.308  0.00  0.00    +0.000 C 
ATOM      6  C   UNL     1      88.860  69.988  87.688  0.00  0.00    +0.000 C 
ATOM      7  C   UNL     1      89.608  70.703  86.831  0.00  0.00    +0.000 C 
ATOM      8  C   UNL     1      89.883  70.294  85.414  0.00  0.00    +0.000 C 
ATOM      9  C   UNL     1      89.035  69.116  84.911  0.00  0.00    +0.000 C 
ATOM     10  C   UNL     1      88.579  70.463  89.085  0.00  0.00    +0.000 C 
ENDBRANCH   1   9
BRANCH   1  11
ATOM     11  S   UNL     1      87.689  71.325  83.882  0.00  0.00    +0.000 S 
BRANCH  11  12
ATOM     12  C   UNL     1      86.239  71.835  84.784  0.00  0.00    +0.000 A 
ATOM     13  C   UNL     1      85.144  72.415  84.135  0.00  0.00    +0.000 A 
ATOM     14  C   UNL     1      84.018  72.807  84.863  0.00  0.00    +0.000 A 
ATOM     15  C   UNL     1      83.978  72.614  86.242  0.00  0.00    +0.000 A 
ATOM     16  C   UNL     1      85.060  72.025  86.895  0.00  0.00    +0.000 A 
ATOM     17  C   UNL     1      86.187  71.633  86.167  0.00  0.00    +0.000 A 
ENDBRANCH  11  12
ENDBRANCH   1  11
TORSDOF 3
ENDMDL
