REMARK  Name = *****
REMARK  5 active torsions:
REMARK  status: ('A' for Active; 'I' for Inactive)
REMARK    1  A    between atoms: C_1  and  N_2
REMARK    2  A    between atoms: N_2  and  C_3
REMARK    3  A    between atoms: N_2  and  C_4
REMARK    4  A    between atoms: C_8  and  C_10
REMARK    5  A    between atoms: C_11  and  C_12
REMARK                            x       y       z     vdW  Elec       q    Type
REMARK                         _______ _______ _______ _____ _____    ______ ____
ROOT
ATOM      1  C   UNL     1       6.647  -2.288  -0.819  0.00  0.00    +0.000 C 
ATOM      2  C   UNL     1       7.423  -1.193  -0.873  0.00  0.00    +0.000 C 
ENDROOT
BRANCH   2   3
ATOM      3  C   UNL     1       8.895  -1.196  -0.799  0.00  0.00    +0.000 A 
ATOM      4  C   UNL     1       9.609  -0.177  -1.445  0.00  0.00    +0.000 A 
ATOM      5  C   UNL     1      11.002  -0.106  -1.395  0.00  0.00    +0.000 A 
ATOM      6  C   UNL     1      11.720  -1.059  -0.677  0.00  0.00    +0.000 A 
ATOM      7  C   UNL     1      11.035  -2.071  -0.011  0.00  0.00    +0.000 A 
ATOM      8  C   UNL     1       9.640  -2.131  -0.070  0.00  0.00    +0.000 A 
ATOM      9  F   UNL     1       9.033  -3.113   0.614  0.00  0.00    +0.000 F 
ATOM     10  F   UNL     1       8.956   0.767  -2.141  0.00  0.00    +0.000 F 
ENDBRANCH   2   3
BRANCH   1  15
ATOM     11  C   UNL     1       3.011  -1.253  -0.311  0.00  0.00    +0.000 A 
ATOM     12  C   UNL     1       2.399  -2.231  -1.115  0.00  0.00    +0.000 A 
ATOM     13  C   UNL     1       3.144  -3.190  -1.806  0.00  0.00    +0.000 A 
ATOM     14  C   UNL     1       4.532  -3.196  -1.710  0.00  0.00    +0.000 A 
ATOM     15  C   UNL     1       5.181  -2.241  -0.926  0.00  0.00    +0.000 A 
ATOM     16  C   UNL     1       4.413  -1.296  -0.220  0.00  0.00    +0.000 A 
BRANCH  11  18
ATOM     17  C   UNL     1       1.269   0.413  -0.455  0.00  0.00    +0.000 C 
ATOM     18  N   UNL     1       2.220  -0.321   0.385  0.00  0.00    +0.000 N 
ATOM     19  C   UNL     1       2.856   0.486   1.425  0.00  0.00    +0.000 C 
ENDBRANCH  11  18
ENDBRANCH   1  15
TORSDOF 3
