MODEL 1
REMARK VINA RESULT:      -4.6      0.000      0.000
REMARK  Name = *****
REMARK  3 active torsions:
REMARK  status: ('A' for Active; 'I' for Inactive)
REMARK    1  A    between atoms: C_3  and  C_15
REMARK    2  A    between atoms: C_6  and  C_7
REMARK    3  A    between atoms: C_8  and  C_9
REMARK                            x       y       z     vdW  Elec       q    Type
REMARK                         _______ _______ _______ _____ _____    ______ ____
ROOT
ATOM      1  C   UNL     1     102.096 128.063  83.142  0.00  0.00    +0.000 A 
ATOM      2  C   UNL     1     101.248 129.040  83.678  0.00  0.00    +0.000 A 
ATOM      3  C   UNL     1      99.857 128.898  83.600  0.00  0.00    +0.000 A 
ATOM      4  C   UNL     1      99.334 127.745  83.005  0.00  0.00    +0.000 A 
ATOM      5  C   UNL     1     100.182 126.768  82.470  0.00  0.00    +0.000 A 
ATOM      6  C   UNL     1     101.571 126.926  82.519  0.00  0.00    +0.000 A 
ENDROOT
BRANCH   3   7
ATOM      7  C   UNL     1      98.931 129.883  84.174  0.00  0.00    +0.000 C 
ATOM      8  C   UNL     1      98.838 130.148  85.481  0.00  0.00    +0.000 C 
ATOM      9 CL   UNL     1      97.752 131.318  86.106  0.00  0.00    +0.000 Cl
ENDBRANCH   3   7
BRANCH   6  10
ATOM     10  C   UNL     1     102.428 125.865  81.973  0.00  0.00    +0.000 C 
ATOM     11  C   UNL     1     103.469 126.098  81.157  0.00  0.00    +0.000 C 
BRANCH  11  12
ATOM     12  C   UNL     1     104.332 125.043  80.604  0.00  0.00    +0.000 A 
ATOM     13  C   UNL     1     105.242 125.283  79.573  0.00  0.00    +0.000 A 
ATOM     14  C   UNL     1     106.040 124.236  79.136  0.00  0.00    +0.000 A 
ATOM     15  N   UNL     1     105.996 122.991  79.652  0.00  0.00    +0.000 NA
ATOM     16  C   UNL     1     105.121 122.785  80.658  0.00  0.00    +0.000 A 
ATOM     17  C   UNL     1     104.284 123.766  81.166  0.00  0.00    +0.000 A 
ENDBRANCH  11  12
ENDBRANCH   6  10
TORSDOF 3
ENDMDL
