MODEL 1
REMARK VINA RESULT:      -4.6      0.000      0.000
REMARK  Name = *****
REMARK  5 active torsions:
REMARK  status: ('A' for Active; 'I' for Inactive)
REMARK    1  A    between atoms: C_1  and  C_2
REMARK    2  A    between atoms: C_2  and  C_3
REMARK    3  A    between atoms: C_2  and  C_11
REMARK    4  A    between atoms: C_3  and  C_4
REMARK    5  A    between atoms: C_14  and  C_17
REMARK                            x       y       z     vdW  Elec       q    Type
REMARK                         _______ _______ _______ _____ _____    ______ ____
ROOT
ATOM      1  C   UNL     1      87.193  71.570  89.536  0.00  0.00    +0.000 C 
ATOM      2  C   UNL     1      87.152  70.859  88.176  0.00  0.00    +0.000 C 
ENDROOT
BRANCH   2   3
ATOM      3  C   UNL     1      86.108  71.494  87.266  0.00  0.00    +0.000 A 
ATOM      4  C   UNL     1      86.313  71.511  85.878  0.00  0.00    +0.000 A 
ATOM      5  C   UNL     1      85.366  72.083  85.023  0.00  0.00    +0.000 A 
ATOM      6  C   UNL     1      84.199  72.646  85.544  0.00  0.00    +0.000 A 
ATOM      7  C   UNL     1      83.983  72.634  86.924  0.00  0.00    +0.000 A 
ATOM      8  C   UNL     1      84.931  72.062  87.779  0.00  0.00    +0.000 A 
BRANCH   6   9
ATOM      9  C   UNL     1      83.228  73.233  84.668  0.00  0.00    +0.000 C 
ATOM     10  N   UNL     1      82.441  73.708  83.961  0.00  0.00    +0.000 NA
ENDBRANCH   6   9
ENDBRANCH   2   3
BRANCH   2  11
ATOM     11  C   UNL     1      86.899  69.341  88.313  0.00  0.00    +0.000 C 
BRANCH  11  12
ATOM     12  C   UNL     1      87.924  68.487  87.601  0.00  0.00    +0.000 A 
ATOM     13  C   UNL     1      87.798  67.091  87.584  0.00  0.00    +0.000 A 
ATOM     14  C   UNL     1      88.750  66.302  86.933  0.00  0.00    +0.000 A 
ATOM     15  C   UNL     1      89.831  66.907  86.297  0.00  0.00    +0.000 A 
ATOM     16  C   UNL     1      89.969  68.293  86.305  0.00  0.00    +0.000 A 
ATOM     17  C   UNL     1      89.017  69.082  86.955  0.00  0.00    +0.000 A 
ATOM     18 CL   UNL     1      91.005  65.936  85.497  0.00  0.00    +0.000 Cl
ENDBRANCH  11  12
ENDBRANCH   2  11
TORSDOF 4
ENDMDL
