REMARK  Name = *****
REMARK  4 active torsions:
REMARK  status: ('A' for Active; 'I' for Inactive)
REMARK    1  A    between atoms: C_1  and  C_2
REMARK    2  A    between atoms: C_4  and  C_9
REMARK    3  A    between atoms: C_5  and  C_8
REMARK    4  A    between atoms: C_10  and  C_11
REMARK                            x       y       z     vdW  Elec       q    Type
REMARK                         _______ _______ _______ _____ _____    ______ ____
ROOT
ATOM      1  C   UNL     1       1.162   0.261  -0.034  0.00  0.00    +0.000 C 
ATOM      2  C   UNL     1       2.656   0.186  -0.138  0.00  0.00    +0.000 A 
ATOM      3  C   UNL     1       3.416   1.351  -0.301  0.00  0.00    +0.000 A 
ATOM      4  C   UNL     1       4.810   1.287  -0.431  0.00  0.00    +0.000 A 
ATOM      5  C   UNL     1       5.464   0.044  -0.410  0.00  0.00    +0.000 A 
ATOM      6  C   UNL     1       4.696  -1.121  -0.264  0.00  0.00    +0.000 A 
ATOM      7  C   UNL     1       3.307  -1.050  -0.134  0.00  0.00    +0.000 A 
ATOM      8  C   UNL     1       6.957  -0.064  -0.552  0.00  0.00    +0.000 C 
ENDROOT
BRANCH   4   9
ATOM      9  C   UNL     1       5.537   2.513  -0.587  0.00  0.00    +0.000 C 
ATOM     10  C   UNL     1       6.142   3.543  -0.716  0.00  0.00    +0.000 C 
BRANCH  10  11
ATOM     11  C   UNL     1       6.889   4.804  -0.868  0.00  0.00    +0.000 C 
ATOM     12  C   UNL     1       6.443   5.818   0.201  0.00  0.00    +0.000 C 
ATOM     13  C   UNL     1       6.925   7.228  -0.136  0.00  0.00    +0.000 C 
ATOM     14  C   UNL     1       6.391   7.689  -1.494  0.00  0.00    +0.000 C 
ATOM     15  C   UNL     1       6.471   6.624  -2.548  0.00  0.00    +0.000 C 
ATOM     16  C   UNL     1       6.709   5.332  -2.269  0.00  0.00    +0.000 C 
ENDBRANCH  10  11
ENDBRANCH   4   9
TORSDOF 2
