REMARK  Name = *****
REMARK  3 active torsions:
REMARK  status: ('A' for Active; 'I' for Inactive)
REMARK    1  A    between atoms: C_5  and  C_7
REMARK    2  A    between atoms: C_7  and  C_9
REMARK    3  A    between atoms: C_9  and  C_10
REMARK                            x       y       z     vdW  Elec       q    Type
REMARK                         _______ _______ _______ _____ _____    ______ ____
ROOT
ATOM      1  C   UNL     1      -0.558  -2.037   0.056  0.00  0.00    +0.000 C 
ATOM      2  O   UNL     1       0.006  -1.615   1.063  0.00  0.00    +0.000 OA
ENDROOT
BRANCH   1   7
ATOM      3  C   UNL     1       2.030  -3.539  -2.199  0.00  0.00    +0.000 A 
ATOM      4  C   UNL     1       1.831  -2.838  -3.387  0.00  0.00    +0.000 A 
ATOM      5  C   UNL     1       0.852  -1.845  -3.459  0.00  0.00    +0.000 A 
ATOM      6  C   UNL     1       0.058  -1.555  -2.345  0.00  0.00    +0.000 A 
ATOM      7  C   UNL     1       0.246  -2.272  -1.161  0.00  0.00    +0.000 A 
ATOM      8  C   UNL     1       1.243  -3.255  -1.084  0.00  0.00    +0.000 A 
ATOM      9 CL   UNL     1      -1.089  -0.274  -2.489  0.00  0.00    +0.000 Cl
ENDBRANCH   1   7
BRANCH   1  10
ATOM     10  C   UNL     1      -2.023  -2.429   0.038  0.00  0.00    +0.000 C 
BRANCH  10  11
ATOM     11  C   UNL     1      -2.223  -3.919  -0.101  0.00  0.00    +0.000 A 
ATOM     12  C   UNL     1      -1.910  -4.774   0.967  0.00  0.00    +0.000 A 
ATOM     13  C   UNL     1      -2.070  -6.154   0.837  0.00  0.00    +0.000 A 
ATOM     14  C   UNL     1      -2.542  -6.687  -0.360  0.00  0.00    +0.000 A 
ATOM     15  C   UNL     1      -2.856  -5.850  -1.429  0.00  0.00    +0.000 A 
ATOM     16  C   UNL     1      -2.695  -4.468  -1.301  0.00  0.00    +0.000 A 
ATOM     17 CL   UNL     1      -2.738  -8.388  -0.521  0.00  0.00    +0.000 Cl
ENDBRANCH  10  11
ENDBRANCH   1  10
TORSDOF 3
