MODEL 1
REMARK VINA RESULT:      -5.0      0.000      0.000
REMARK  Name = *****
REMARK  2 active torsions:
REMARK  status: ('A' for Active; 'I' for Inactive)
REMARK    1  A    between atoms: C_4  and  C_7
REMARK    2  A    between atoms: C_8  and  C_9
REMARK                            x       y       z     vdW  Elec       q    Type
REMARK                         _______ _______ _______ _____ _____    ______ ____
ROOT
ATOM      1  C   UNL     1     103.814 124.789  81.774  0.00  0.00    +0.000 A 
ATOM      2  C   UNL     1     104.141 123.753  82.673  0.00  0.00    +0.000 A 
ATOM      3  C   UNL     1     104.906 122.690  82.218  0.00  0.00    +0.000 A 
ATOM      4  C   UNL     1     105.383 122.548  80.921  0.00  0.00    +0.000 A 
ATOM      5  C   UNL     1     105.037 123.571  80.032  0.00  0.00    +0.000 A 
ATOM      6  C   UNL     1     104.265 124.665  80.445  0.00  0.00    +0.000 A 
ATOM      7  O   UNL     1     105.096 121.831  83.258  0.00  0.00    +0.000 OA
ATOM      8  C   UNL     1     104.429 122.419  84.299  0.00  0.00    +0.000 A 
ATOM      9  N   UNL     1     103.841 123.563  84.004  0.00  0.00    +0.000 NA
ATOM     10  F   UNL     1     104.376 121.888  85.494  0.00  0.00    +0.000 F 
ENDROOT
BRANCH   1  12
ATOM     11  C   UNL     1     101.645 125.936  82.177  0.00  0.00    +0.000 C 
ATOM     12  C   UNL     1     102.984 125.888  82.276  0.00  0.00    +0.000 C 
BRANCH  11  16
ATOM     13  C   UNL     1      99.198 129.175  83.531  0.00  0.00    +0.000 A 
ATOM     14  C   UNL     1     100.574 129.221  83.741  0.00  0.00    +0.000 A 
ATOM     15  C   UNL     1     101.385 128.168  83.311  0.00  0.00    +0.000 A 
ATOM     16  C   UNL     1     100.826 127.051  82.675  0.00  0.00    +0.000 A 
ATOM     17  C   UNL     1      99.442 127.025  82.455  0.00  0.00    +0.000 A 
ATOM     18  C   UNL     1      98.631 128.078  82.885  0.00  0.00    +0.000 A 
ENDBRANCH  11  16
ENDBRANCH   1  12
TORSDOF 2
ENDMDL
