MODEL 1
REMARK VINA RESULT:      -4.2      0.000      0.000
REMARK  Name = *****
REMARK  4 active torsions:
REMARK  status: ('A' for Active; 'I' for Inactive)
REMARK    1  A    between atoms: C_4  and  C_7
REMARK    2  A    between atoms: C_7  and  S_8
REMARK    3  A    between atoms: S_8  and  C_9
REMARK    4  A    between atoms: C_11  and  C_14
REMARK                            x       y       z     vdW  Elec       q    Type
REMARK                         _______ _______ _______ _____ _____    ______ ____
ROOT
ATOM      1  C   UNL     1      89.154  69.803  84.491  0.00  0.00    +0.000 A 
ATOM      2  C   UNL     1      89.487  68.923  85.505  0.00  0.00    +0.000 A 
ATOM      3  C   UNL     1      89.878  67.635  84.967  0.00  0.00    +0.000 A 
ATOM      4  N   UNL     1      89.832  67.559  83.626  0.00  0.00    +0.000 NA
ATOM      5  S   UNL     1      89.316  68.993  83.000  0.00  0.00    +0.000 S 
ATOM      6 CL   UNL     1      89.436  69.306  87.178  0.00  0.00    +0.000 Cl
ENDROOT
BRANCH   3   7
ATOM      7  C   UNL     1      90.311  66.448  85.745  0.00  0.00    +0.000 C 
ATOM      8  O   UNL     1      91.411  65.935  85.558  0.00  0.00    +0.000 OA
ATOM      9 CL   UNL     1      89.181  65.802  86.939  0.00  0.00    +0.000 Cl
ENDBRANCH   3   7
BRANCH   1  10
ATOM     10  S   UNL     1      88.614  71.469  84.592  0.00  0.00    +0.000 S 
BRANCH  10  11
ATOM     11  C   UNL     1      86.836  71.247  84.283  0.00  0.00    +0.000 C 
BRANCH  11  15
ATOM     12  C   UNL     1      84.497  72.309  87.747  0.00  0.00    +0.000 A 
ATOM     13  C   UNL     1      84.016  72.588  86.469  0.00  0.00    +0.000 A 
ATOM     14  C   UNL     1      84.771  72.243  85.347  0.00  0.00    +0.000 A 
ATOM     15  C   UNL     1      86.014  71.610  85.493  0.00  0.00    +0.000 A 
ATOM     16  C   UNL     1      86.491  71.343  86.785  0.00  0.00    +0.000 A 
ATOM     17  C   UNL     1      85.735  71.689  87.905  0.00  0.00    +0.000 A 
ENDBRANCH  11  15
ENDBRANCH  10  11
ENDBRANCH   1  10
TORSDOF 4
ENDMDL
