MODEL 1
REMARK VINA RESULT:      -4.5      0.000      0.000
REMARK  Name = *****
REMARK  2 active torsions:
REMARK  status: ('A' for Active; 'I' for Inactive)
REMARK    1  A    between atoms: C_4  and  N_7
REMARK    2  A    between atoms: C_8  and  C_9
REMARK                            x       y       z     vdW  Elec       q    Type
REMARK                         _______ _______ _______ _____ _____    ______ ____
ROOT
ATOM      1  N   UNL     1     101.448 125.926  82.238  0.00  0.00    +0.000 NA
ATOM      2  C   UNL     1     102.708 125.953  82.547  0.00  0.00    +0.000 C 
ENDROOT
BRANCH   2   3
ATOM      3  C   UNL     1     103.620 124.848  82.174  0.00  0.00    +0.000 A 
ATOM      4  C   UNL     1     104.166 123.984  83.133  0.00  0.00    +0.000 A 
ATOM      5  C   UNL     1     105.024 122.951  82.737  0.00  0.00    +0.000 A 
ATOM      6  C   UNL     1     105.335 122.783  81.389  0.00  0.00    +0.000 A 
ATOM      7  C   UNL     1     104.799 123.636  80.429  0.00  0.00    +0.000 A 
ATOM      8  C   UNL     1     103.943 124.668  80.820  0.00  0.00    +0.000 A 
ATOM      9 CL   UNL     1     106.390 121.512  80.909  0.00  0.00    +0.000 Cl
ATOM     10 CL   UNL     1     103.833 124.125  84.823  0.00  0.00    +0.000 Cl
ENDBRANCH   2   3
BRANCH   1  14
ATOM     11  C   UNL     1      99.189 129.233  83.504  0.00  0.00    +0.000 A 
ATOM     12  C   UNL     1      98.560 128.162  82.871  0.00  0.00    +0.000 A 
ATOM     13  C   UNL     1      99.311 127.063  82.449  0.00  0.00    +0.000 A 
ATOM     14  C   UNL     1     100.694 127.033  82.650  0.00  0.00    +0.000 A 
ATOM     15  C   UNL     1     101.314 128.102  83.299  0.00  0.00    +0.000 A 
ATOM     16  C   UNL     1     100.566 129.203  83.723  0.00  0.00    +0.000 A 
ENDBRANCH   1  14
TORSDOF 2
ENDMDL
