MODEL 1
REMARK VINA RESULT:      -4.1      0.000      0.000
REMARK  Name = *****
REMARK  2 active torsions:
REMARK  status: ('A' for Active; 'I' for Inactive)
REMARK    1  A    between atoms: C_4  and  C_7
REMARK    2  A    between atoms: C_8  and  C_9
REMARK                            x       y       z     vdW  Elec       q    Type
REMARK                         _______ _______ _______ _____ _____    ______ ____
ROOT
ATOM      1  C   UNL     1     103.204 126.201  81.085  0.00  0.00    +0.000 C 
ATOM      2  C   UNL     1     102.107 125.987  81.830  0.00  0.00    +0.000 C 
ENDROOT
BRANCH   1   6
ATOM      3  C   UNL     1     106.272 123.359  79.907  0.00  0.00    +0.000 C 
ATOM      4  C   UNL     1     104.988 122.819  80.532  0.00  0.00    +0.000 C 
ATOM      5  C   UNL     1     104.209 123.917  81.255  0.00  0.00    +0.000 C 
ATOM      6  C   UNL     1     103.918 125.106  80.327  0.00  0.00    +0.000 C 
ATOM      7  C   UNL     1     105.216 125.645  79.707  0.00  0.00    +0.000 C 
ATOM      8  C   UNL     1     105.993 124.544  78.987  0.00  0.00    +0.000 C 
ENDBRANCH   1   6
BRANCH   2   9
ATOM      9  C   UNL     1     101.440 127.027  82.543  0.00  0.00    +0.000 A 
ATOM     10  C   UNL     1     101.929 128.154  83.187  0.00  0.00    +0.000 A 
ATOM     11  C   UNL     1     100.910 128.950  83.788  0.00  0.00    +0.000 A 
ATOM     12  C   UNL     1      99.660 128.415  83.589  0.00  0.00    +0.000 A 
ATOM     13  S   UNL     1      99.719 126.969  82.687  0.00  0.00    +0.000 S 
ENDBRANCH   2   9
TORSDOF 2
ENDMDL
