MODEL 1
REMARK VINA RESULT:      -4.1      0.000      0.000
REMARK  Name = *****
REMARK  4 active torsions:
REMARK  status: ('A' for Active; 'I' for Inactive)
REMARK    1  A    between atoms: C_4  and  C_7
REMARK    2  A    between atoms: C_7  and  O_8
REMARK    3  A    between atoms: O_8  and  N_9
REMARK    4  A    between atoms: C_10  and  C_11
REMARK                            x       y       z     vdW  Elec       q    Type
REMARK                         _______ _______ _______ _____ _____    ______ ____
ROOT
ATOM      1  N   UNL     1      88.350  64.209  86.342  0.00  0.00    +0.000 NA
ATOM      2  C   UNL     1      88.433  65.078  87.307  0.00  0.00    +0.000 C 
ATOM      3 CL   UNL     1      89.069  66.619  86.810  0.00  0.00    +0.000 Cl
ENDROOT
BRANCH   2   4
ATOM      4  C   UNL     1      88.054  64.866  88.729  0.00  0.00    +0.000 A 
ATOM      5  C   UNL     1      86.872  65.414  89.240  0.00  0.00    +0.000 A 
ATOM      6  C   UNL     1      86.512  65.182  90.568  0.00  0.00    +0.000 A 
ATOM      7  C   UNL     1      87.326  64.397  91.384  0.00  0.00    +0.000 A 
ATOM      8  C   UNL     1      88.500  63.840  90.876  0.00  0.00    +0.000 A 
ATOM      9  C   UNL     1      88.864  64.069  89.547  0.00  0.00    +0.000 A 
ENDBRANCH   2   4
BRANCH   1  10
ATOM     10  O   UNL     1      87.762  63.003  86.753  0.00  0.00    +0.000 OA
BRANCH  10  11
ATOM     11  C   UNL     1      86.366  63.042  86.456  0.00  0.00    +0.000 C 
BRANCH  11  15
ATOM     12  C   UNL     1      84.184  61.781  89.953  0.00  0.00    +0.000 A 
ATOM     13  C   UNL     1      85.494  61.350  89.754  0.00  0.00    +0.000 A 
ATOM     14  C   UNL     1      86.201  61.762  88.623  0.00  0.00    +0.000 A 
ATOM     15  C   UNL     1      85.606  62.615  87.683  0.00  0.00    +0.000 A 
ATOM     16  C   UNL     1      84.283  63.032  87.887  0.00  0.00    +0.000 A 
ATOM     17  C   UNL     1      83.578  62.620  89.018  0.00  0.00    +0.000 A 
ENDBRANCH  11  15
ENDBRANCH  10  11
ENDBRANCH   1  10
TORSDOF 4
ENDMDL
