MODEL 1
REMARK VINA RESULT:      -4.1      0.000      0.000
REMARK  Name = *****
REMARK  2 active torsions:
REMARK  status: ('A' for Active; 'I' for Inactive)
REMARK    1  A    between atoms: C_4  and  C_6
REMARK    2  A    between atoms: C_7  and  C_8
REMARK                            x       y       z     vdW  Elec       q    Type
REMARK                         _______ _______ _______ _____ _____    ______ ____
ROOT
ATOM      1  C   UNL     1     101.627 126.248  82.256  0.00  0.00    +0.000 C 
ATOM      2  C   UNL     1     102.568 125.580  81.922  0.00  0.00    +0.000 C 
ENDROOT
BRANCH   2   3
ATOM      3  C   UNL     1     103.694 124.791  81.527  0.00  0.00    +0.000 A 
ATOM      4  C   UNL     1     104.270 123.891  82.428  0.00  0.00    +0.000 A 
ATOM      5  C   UNL     1     105.371 123.123  82.041  0.00  0.00    +0.000 A 
ATOM      6  C   UNL     1     105.892 123.257  80.755  0.00  0.00    +0.000 A 
ATOM      7  C   UNL     1     105.320 124.153  79.851  0.00  0.00    +0.000 A 
ATOM      8  C   UNL     1     104.220 124.921  80.239  0.00  0.00    +0.000 A 
ATOM      9 CL   UNL     1     107.248 122.313  80.279  0.00  0.00    +0.000 Cl
ENDBRANCH   2   3
BRANCH   1  13
ATOM     10  C   UNL     1      98.307 127.748  82.888  0.00  0.00    +0.000 A 
ATOM     11  C   UNL     1      98.978 128.731  83.581  0.00  0.00    +0.000 A 
ATOM     12  S   UNL     1     100.670 128.473  83.581  0.00  0.00    +0.000 S 
ATOM     13  C   UNL     1     100.514 127.046  82.654  0.00  0.00    +0.000 A 
ATOM     14  C   UNL     1      99.198 126.771  82.351  0.00  0.00    +0.000 A 
ENDBRANCH   1  13
TORSDOF 2
ENDMDL
