MODEL 1
REMARK VINA RESULT:      -4.8      0.000      0.000
REMARK  Name = *****
REMARK  3 active torsions:
REMARK  status: ('A' for Active; 'I' for Inactive)
REMARK    1  A    between atoms: C_5  and  C_7
REMARK    2  A    between atoms: C_8  and  C_9
REMARK    3  A    between atoms: C_12  and  C_15
REMARK                            x       y       z     vdW  Elec       q    Type
REMARK                         _______ _______ _______ _____ _____    ______ ____
ROOT
ATOM      1  C   UNL     1     101.969 126.181  82.341  0.00  0.00    +0.000 C 
ATOM      2  C   UNL     1     102.839 125.398  82.071  0.00  0.00    +0.000 C 
ENDROOT
BRANCH   1   7
ATOM      3  C   UNL     1      98.561 127.642  82.680  0.00  0.00    +0.000 A 
ATOM      4  C   UNL     1      98.832 128.863  83.295  0.00  0.00    +0.000 A 
ATOM      5  C   UNL     1     100.148 129.211  83.604  0.00  0.00    +0.000 A 
ATOM      6  C   UNL     1     101.196 128.337  83.297  0.00  0.00    +0.000 A 
ATOM      7  C   UNL     1     100.928 127.108  82.678  0.00  0.00    +0.000 A 
ATOM      8  C   UNL     1      99.604 126.767  82.372  0.00  0.00    +0.000 A 
ATOM      9 CL   UNL     1     102.803 128.827  83.706  0.00  0.00    +0.000 Cl
ENDBRANCH   1   7
BRANCH   2  10
ATOM     10  C   UNL     1     103.873 124.458  81.770  0.00  0.00    +0.000 A 
ATOM     11  C   UNL     1     104.404 123.659  82.786  0.00  0.00    +0.000 A 
ATOM     12  C   UNL     1     105.417 122.740  82.497  0.00  0.00    +0.000 A 
ATOM     13  C   UNL     1     105.901 122.617  81.191  0.00  0.00    +0.000 A 
ATOM     14  C   UNL     1     105.367 123.418  80.174  0.00  0.00    +0.000 A 
ATOM     15  C   UNL     1     104.354 124.337  80.465  0.00  0.00    +0.000 A 
BRANCH  13  16
ATOM     16  C   UNL     1     106.940 121.676  80.892  0.00  0.00    +0.000 C 
ATOM     17  N   UNL     1     107.783 120.915  80.650  0.00  0.00    +0.000 NA
ENDBRANCH  13  16
ENDBRANCH   2  10
TORSDOF 3
ENDMDL
