MODEL 1
REMARK VINA RESULT:      -4.5      0.000      0.000
REMARK  Name = *****
REMARK  3 active torsions:
REMARK  status: ('A' for Active; 'I' for Inactive)
REMARK    1  A    between atoms: C_4  and  C_7
REMARK    2  A    between atoms: C_7  and  O_8
REMARK    3  A    between atoms: O_8  and  C_9
REMARK                            x       y       z     vdW  Elec       q    Type
REMARK                         _______ _______ _______ _____ _____    ______ ____
ROOT
ATOM      1  O   UNL     1     102.503 125.342  82.335  0.00  0.00    +0.000 OA
ENDROOT
BRANCH   1   2
ATOM      2  C   UNL     1     103.517 124.958  81.501  0.00  0.00    +0.000 A 
ATOM      3  C   UNL     1     103.911 125.579  80.314  0.00  0.00    +0.000 A 
ATOM      4  C   UNL     1     104.967 125.079  79.549  0.00  0.00    +0.000 A 
ATOM      5  C   UNL     1     105.653 123.939  79.962  0.00  0.00    +0.000 A 
ATOM      6  C   UNL     1     105.275 123.303  81.142  0.00  0.00    +0.000 A 
ATOM      7  C   UNL     1     104.217 123.814  81.895  0.00  0.00    +0.000 A 
ATOM      8  F   UNL     1     103.881 123.178  83.029  0.00  0.00    +0.000 F 
ATOM      9  F   UNL     1     103.289 126.678  79.858  0.00  0.00    +0.000 F 
ENDBRANCH   1   2
BRANCH   1  10
ATOM     10  C   UNL     1     102.636 126.596  83.005  0.00  0.00    +0.000 C 
BRANCH  10  14
ATOM     11  C   UNL     1      98.823 128.631  83.032  0.00  0.00    +0.000 A 
ATOM     12  C   UNL     1      99.940 129.253  83.583  0.00  0.00    +0.000 A 
ATOM     13  C   UNL     1     101.175 128.599  83.587  0.00  0.00    +0.000 A 
ATOM     14  C   UNL     1     101.301 127.308  83.053  0.00  0.00    +0.000 A 
ATOM     15  C   UNL     1     100.169 126.701  82.487  0.00  0.00    +0.000 A 
ATOM     16  C   UNL     1      98.937 127.357  82.483  0.00  0.00    +0.000 A 
ENDBRANCH  10  14
ENDBRANCH   1  10
TORSDOF 3
ENDMDL
