MODEL 1
REMARK VINA RESULT:      -4.1      0.000      0.000
REMARK  Name = *****
REMARK  3 active torsions:
REMARK  status: ('A' for Active; 'I' for Inactive)
REMARK    1  A    between atoms: C_4  and  N_7
REMARK    2  A    between atoms: C_8  and  C_9
REMARK    3  A    between atoms: C_9  and  C_10
REMARK                            x       y       z     vdW  Elec       q    Type
REMARK                         _______ _______ _______ _____ _____    ______ ____
ROOT
ATOM      1  N   UNL     1      88.739  68.628  86.862  0.00  0.00    +0.000 NA
ATOM      2  C   UNL     1      88.810  67.358  86.669  0.00  0.00    +0.000 C 
ATOM      3 CL   UNL     1      90.370  66.755  86.242  0.00  0.00    +0.000 Cl
ENDROOT
BRANCH   1   7
ATOM      4  C   UNL     1      86.115  71.599  88.424  0.00  0.00    +0.000 C 
ATOM      5  C   UNL     1      86.135  71.389  86.913  0.00  0.00    +0.000 C 
ATOM      6  C   UNL     1      87.365  70.602  86.471  0.00  0.00    +0.000 C 
ATOM      7  C   UNL     1      87.476  69.266  87.215  0.00  0.00    +0.000 C 
ATOM      8  C   UNL     1      87.471  69.491  88.732  0.00  0.00    +0.000 C 
ATOM      9  C   UNL     1      86.241  70.278  89.179  0.00  0.00    +0.000 C 
ENDBRANCH   1   7
BRANCH   2  10
ATOM     10  C   UNL     1      87.713  66.320  86.744  0.00  0.00    +0.000 C 
BRANCH  10  11
ATOM     11  C   UNL     1      87.666  65.569  88.055  0.00  0.00    +0.000 A 
ATOM     12  C   UNL     1      86.686  65.872  89.012  0.00  0.00    +0.000 A 
ATOM     13  C   UNL     1      86.632  65.175  90.222  0.00  0.00    +0.000 A 
ATOM     14  C   UNL     1      87.549  64.161  90.485  0.00  0.00    +0.000 A 
ATOM     15  C   UNL     1      88.518  63.839  89.537  0.00  0.00    +0.000 A 
ATOM     16  C   UNL     1      88.574  64.536  88.328  0.00  0.00    +0.000 A 
ENDBRANCH  10  11
ENDBRANCH   2  10
TORSDOF 3
ENDMDL
