MODEL 1
REMARK VINA RESULT:      -4.9      0.000      0.000
REMARK  Name = *****
REMARK  5 active torsions:
REMARK  status: ('A' for Active; 'I' for Inactive)
REMARK    1  A    between atoms: C_1  and  C_2
REMARK    2  A    between atoms: C_4  and  C_8
REMARK    3  A    between atoms: C_9  and  C_10
REMARK    4  A    between atoms: C_13  and  O_16
REMARK    5  A    between atoms: O_16  and  C_17
REMARK                            x       y       z     vdW  Elec       q    Type
REMARK                         _______ _______ _______ _____ _____    ______ ____
ROOT
ATOM      1  C   UNL     1     101.920 126.234  82.216  0.00  0.00    +0.000 C 
ATOM      2  C   UNL     1     102.806 125.498  81.872  0.00  0.00    +0.000 C 
ENDROOT
BRANCH   1   6
ATOM      3  C   UNL     1     100.467 130.462  84.382  0.00  0.00    +0.000 C 
ATOM      4  C   UNL     1     100.142 129.164  83.704  0.00  0.00    +0.000 A 
ATOM      5  C   UNL     1     101.169 128.304  83.289  0.00  0.00    +0.000 A 
ATOM      6  C   UNL     1     100.868 127.109  82.628  0.00  0.00    +0.000 A 
ATOM      7  C   UNL     1      99.537 126.774  82.368  0.00  0.00    +0.000 A 
ATOM      8  C   UNL     1      98.511 127.632  82.764  0.00  0.00    +0.000 A 
ATOM      9  C   UNL     1      98.813 128.824  83.425  0.00  0.00    +0.000 A 
ENDBRANCH   1   6
BRANCH   2  10
ATOM     10  C   UNL     1     103.860 124.621  81.466  0.00  0.00    +0.000 A 
ATOM     11  C   UNL     1     104.327 123.636  82.335  0.00  0.00    +0.000 A 
ATOM     12  C   UNL     1     105.357 122.783  81.931  0.00  0.00    +0.000 A 
ATOM     13  C   UNL     1     105.927 122.903  80.661  0.00  0.00    +0.000 A 
ATOM     14  C   UNL     1     105.459 123.891  79.793  0.00  0.00    +0.000 A 
ATOM     15  C   UNL     1     104.426 124.749  80.195  0.00  0.00    +0.000 A 
BRANCH  13  16
ATOM     16  O   UNL     1     106.924 122.006  80.395  0.00  0.00    +0.000 OA
ATOM     17  C   UNL     1     107.033 120.889  81.269  0.00  0.00    +0.000 C 
ENDBRANCH  13  16
ENDBRANCH   2  10
TORSDOF 3
ENDMDL
