MODEL 1
REMARK VINA RESULT:      -4.9      0.000      0.000
REMARK  Name = *****
REMARK  4 active torsions:
REMARK  status: ('A' for Active; 'I' for Inactive)
REMARK    1  A    between atoms: C_1  and  C_2
REMARK    2  A    between atoms: C_6  and  C_9
REMARK    3  A    between atoms: C_6  and  C_10
REMARK    4  A    between atoms: C_10  and  C_11
REMARK                            x       y       z     vdW  Elec       q    Type
REMARK                         _______ _______ _______ _____ _____    ______ ____
ROOT
ATOM      1  C   UNL     1     104.468 123.583  81.177  0.00  0.00    +0.000 C 
ATOM      2  C   UNL     1     103.895 124.965  81.242  0.00  0.00    +0.000 C 
ATOM      3  C   UNL     1     103.967 125.840  80.226  0.00  0.00    +0.000 C 
ATOM      4  C   UNL     1     103.424 127.232  80.252  0.00  0.00    +0.000 C 
ATOM      5  C   UNL     1     103.156 127.733  81.665  0.00  0.00    +0.000 C 
ATOM      6  C   UNL     1     102.508 126.708  82.617  0.00  0.00    +0.000 C 
ATOM      7  C   UNL     1     103.185 125.334  82.507  0.00  0.00    +0.000 C 
ATOM      8  O   UNL     1     103.114 124.506  83.416  0.00  0.00    +0.000 OA
ATOM      9  C   UNL     1     102.733 127.221  84.060  0.00  0.00    +0.000 C 
ENDROOT
BRANCH   6  10
ATOM     10  C   UNL     1     100.976 126.548  82.423  0.00  0.00    +0.000 C 
BRANCH  10  11
ATOM     11  C   UNL     1     100.104 126.788  83.628  0.00  0.00    +0.000 C 
ATOM     12  C   UNL     1      99.358 127.873  83.913  0.00  0.00    +0.000 C 
ATOM     13  C   UNL     1      99.203 129.097  83.042  0.00  0.00    +0.000 C 
ATOM     14  C   UNL     1      99.577 130.362  83.817  0.00  0.00    +0.000 C 
ATOM     15  C   UNL     1      98.795 130.478  85.126  0.00  0.00    +0.000 C 
ATOM     16  C   UNL     1      98.945 129.221  85.983  0.00  0.00    +0.000 C 
ATOM     17  C   UNL     1      98.576 127.956  85.207  0.00  0.00    +0.000 C 
ENDBRANCH  10  11
ENDBRANCH   6  10
TORSDOF 2
ENDMDL
