MODEL 1
REMARK VINA RESULT:      -4.3      0.000      0.000
REMARK  Name = *****
REMARK  4 active torsions:
REMARK  status: ('A' for Active; 'I' for Inactive)
REMARK    1  A    between atoms: C_1  and  C_2
REMARK    2  A    between atoms: C_4  and  C_17
REMARK    3  A    between atoms: C_5  and  N_8
REMARK    4  A    between atoms: C_9  and  C_10
REMARK                            x       y       z     vdW  Elec       q    Type
REMARK                         _______ _______ _______ _____ _____    ______ ____
ROOT
ATOM      1  N   UNL     1      86.683  64.533  87.126  0.00  0.00    +0.000 NA
ATOM      2  C   UNL     1      86.701  63.736  88.150  0.00  0.00    +0.000 C 
ATOM      3 CL   UNL     1      85.853  62.240  87.891  0.00  0.00    +0.000 Cl
ENDROOT
BRANCH   1   8
ATOM      4  C   UNL     1      89.475  69.526  87.201  0.00  0.00    +0.000 C 
ATOM      5  C   UNL     1      88.750  68.213  87.207  0.00  0.00    +0.000 A 
ATOM      6  C   UNL     1      89.340  67.080  86.631  0.00  0.00    +0.000 A 
ATOM      7  C   UNL     1      88.665  65.848  86.603  0.00  0.00    +0.000 A 
ATOM      8  C   UNL     1      87.366  65.759  87.132  0.00  0.00    +0.000 A 
ATOM      9  C   UNL     1      86.790  66.889  87.725  0.00  0.00    +0.000 A 
ATOM     10  C   UNL     1      87.467  68.110  87.749  0.00  0.00    +0.000 A 
ATOM     11  C   UNL     1      89.336  64.639  86.016  0.00  0.00    +0.000 C 
ENDBRANCH   1   8
BRANCH   2  12
ATOM     12  C   UNL     1      87.353  63.970  89.466  0.00  0.00    +0.000 A 
ATOM     13  C   UNL     1      86.610  64.426  90.560  0.00  0.00    +0.000 A 
ATOM     14  C   UNL     1      87.239  64.623  91.791  0.00  0.00    +0.000 A 
ATOM     15  C   UNL     1      88.602  64.357  91.929  0.00  0.00    +0.000 A 
ATOM     16  C   UNL     1      89.340  63.889  90.842  0.00  0.00    +0.000 A 
ATOM     17  C   UNL     1      88.717  63.691  89.610  0.00  0.00    +0.000 A 
ENDBRANCH   2  12
TORSDOF 2
ENDMDL
