REMARK  Name = *****
REMARK  4 active torsions:
REMARK  status: ('A' for Active; 'I' for Inactive)
REMARK    1  A    between atoms: C_1  and  C_2
REMARK    2  A    between atoms: C_3  and  C_16
REMARK    3  A    between atoms: C_5  and  C_8
REMARK    4  A    between atoms: C_9  and  C_10
REMARK                            x       y       z     vdW  Elec       q    Type
REMARK                         _______ _______ _______ _____ _____    ______ ____
ROOT
ATOM      1  C   UNL     1       1.213  -0.086   0.380  0.00  0.00    +0.000 C 
ATOM      2  C   UNL     1       2.689  -0.066   0.092  0.00  0.00    +0.000 A 
ATOM      3  C   UNL     1       3.364   1.135  -0.204  0.00  0.00    +0.000 A 
ATOM      4  C   UNL     1       4.745   1.102  -0.466  0.00  0.00    +0.000 A 
ATOM      5  C   UNL     1       5.448  -0.105  -0.445  0.00  0.00    +0.000 A 
ATOM      6  C   UNL     1       4.777  -1.292  -0.161  0.00  0.00    +0.000 A 
ATOM      7  C   UNL     1       3.407  -1.273   0.106  0.00  0.00    +0.000 A 
ATOM      8  C   UNL     1       2.643   2.455  -0.231  0.00  0.00    +0.000 C 
ENDROOT
BRANCH   5   9
ATOM      9  C   UNL     1       6.852  -0.121  -0.716  0.00  0.00    +0.000 C 
ATOM     10  C   UNL     1       8.032  -0.135  -0.942  0.00  0.00    +0.000 C 
BRANCH  10  11
ATOM     11  C   UNL     1       9.437  -0.151  -1.211  0.00  0.00    +0.000 A 
ATOM     12  C   UNL     1      10.140   1.050  -1.334  0.00  0.00    +0.000 A 
ATOM     13  C   UNL     1      11.511   1.034  -1.597  0.00  0.00    +0.000 A 
ATOM     14  C   UNL     1      12.180  -0.181  -1.737  0.00  0.00    +0.000 A 
ATOM     15  C   UNL     1      11.480  -1.382  -1.615  0.00  0.00    +0.000 A 
ATOM     16  C   UNL     1      10.109  -1.367  -1.352  0.00  0.00    +0.000 A 
ENDBRANCH  10  11
ENDBRANCH   5   9
TORSDOF 2
