MODEL 1
REMARK VINA RESULT:      -4.5      0.000      0.000
REMARK  Name = *****
REMARK  4 active torsions:
REMARK  status: ('A' for Active; 'I' for Inactive)
REMARK    1  A    between atoms: C_4  and  C_7
REMARK    2  A    between atoms: C_7  and  O_8
REMARK    3  A    between atoms: O_8  and  C_9
REMARK    4  A    between atoms: C_14  and  N_15
REMARK                            x       y       z     vdW  Elec       q    Type
REMARK                         _______ _______ _______ _____ _____    ______ ____
ROOT
ATOM      1  C   UNL     1     103.535 125.132  80.995  0.00  0.00    +0.000 A 
ATOM      2  C   UNL     1     104.096 123.909  81.376  0.00  0.00    +0.000 A 
ATOM      3  C   UNL     1     105.330 123.515  80.857  0.00  0.00    +0.000 A 
ATOM      4  C   UNL     1     106.010 124.339  79.964  0.00  0.00    +0.000 A 
ATOM      5  C   UNL     1     105.453 125.558  79.575  0.00  0.00    +0.000 A 
ATOM      6  C   UNL     1     104.200 125.959  80.060  0.00  0.00    +0.000 A 
ENDROOT
BRANCH   6   7
ATOM      7  N   UNL     1     103.627 127.222  79.740  0.00  0.00    +0.000 N 
ATOM      8 CL   UNL     1     104.153 128.533  80.740  0.00  0.00    +0.000 Cl
ATOM      9  H   UNL     1     102.982 127.341  79.005  0.00  0.00    +0.000 HD
ENDBRANCH   6   7
BRANCH   1  10
ATOM     10  O   UNL     1     102.330 125.622  81.440  0.00  0.00    +0.000 OA
BRANCH  10  11
ATOM     11  C   UNL     1     102.242 125.990  82.815  0.00  0.00    +0.000 C 
BRANCH  11  15
ATOM     12  C   UNL     1      99.076 128.891  83.227  0.00  0.00    +0.000 A 
ATOM     13  C   UNL     1      98.819 127.664  82.618  0.00  0.00    +0.000 A 
ATOM     14  C   UNL     1      99.841 126.722  82.481  0.00  0.00    +0.000 A 
ATOM     15  C   UNL     1     101.130 127.000  82.956  0.00  0.00    +0.000 A 
ATOM     16  C   UNL     1     101.377 128.241  83.564  0.00  0.00    +0.000 A 
ATOM     17  C   UNL     1     100.355 129.181  83.698  0.00  0.00    +0.000 A 
ENDBRANCH  11  15
ENDBRANCH  10  11
ENDBRANCH   1  10
TORSDOF 4
ENDMDL
