MODEL 1
REMARK VINA RESULT:      -4.2      0.000      0.000
REMARK  Name = *****
REMARK  5 active torsions:
REMARK  status: ('A' for Active; 'I' for Inactive)
REMARK    1  A    between atoms: C_1  and  N_2
REMARK    2  A    between atoms: C_6  and  C_7
REMARK    3  A    between atoms: C_7  and  C_8
REMARK    4  A    between atoms: C_8  and  S_11
REMARK    5  A    between atoms: S_11  and  C_12
REMARK                            x       y       z     vdW  Elec       q    Type
REMARK                         _______ _______ _______ _____ _____    ______ ____
ROOT
ATOM      1  C   UNL     1      88.183  68.424  85.352  0.00  0.00    +0.000 C 
ATOM      2  F   UNL     1      88.420  67.804  84.157  0.00  0.00    +0.000 F 
ATOM      3  F   UNL     1      86.854  68.254  85.609  0.00  0.00    +0.000 F 
ENDROOT
BRANCH   1   4
ATOM      4  C   UNL     1      89.040  67.766  86.470  0.00  0.00    +0.000 C 
ATOM      5  F   UNL     1      88.261  67.530  87.571  0.00  0.00    +0.000 F 
ATOM      6  F   UNL     1      90.002  68.639  86.900  0.00  0.00    +0.000 F 
BRANCH   4  12
ATOM      7  C   UNL     1      87.628  65.014  86.295  0.00  0.00    +0.000 C 
ATOM      8  N   UNL     1      89.021  65.260  85.984  0.00  0.00    +0.000 N 
ATOM      9  C   UNL     1      89.891  64.284  85.567  0.00  0.00    +0.000 A 
ATOM     10  C   UNL     1      91.116  64.867  85.337  0.00  0.00    +0.000 A 
ATOM     11  C   UNL     1      90.984  66.242  85.628  0.00  0.00    +0.000 A 
ATOM     12  C   UNL     1      89.679  66.471  86.036  0.00  0.00    +0.000 A 
ENDBRANCH   4  12
ENDBRANCH   1   4
BRANCH   1  13
ATOM     13  S   UNL     1      88.529  70.217  85.166  0.00  0.00    +0.000 S 
BRANCH  13  14
ATOM     14  C   UNL     1      87.211  70.894  86.155  0.00  0.00    +0.000 A 
ATOM     15  C   UNL     1      87.243  70.844  87.553  0.00  0.00    +0.000 A 
ATOM     16  C   UNL     1      86.204  71.401  88.302  0.00  0.00    +0.000 A 
ATOM     17  C   UNL     1      85.133  72.020  87.660  0.00  0.00    +0.000 A 
ATOM     18  C   UNL     1      85.102  72.089  86.269  0.00  0.00    +0.000 A 
ATOM     19  C   UNL     1      86.141  71.532  85.518  0.00  0.00    +0.000 A 
ENDBRANCH  13  14
ENDBRANCH   1  13
TORSDOF 4
ENDMDL
