MODEL 1
REMARK VINA RESULT:      -3.9      0.000      0.000
REMARK  Name = *****
REMARK  3 active torsions:
REMARK  status: ('A' for Active; 'I' for Inactive)
REMARK    1  A    between atoms: C_4  and  C_6
REMARK    2  A    between atoms: C_7  and  C_8
REMARK    3  A    between atoms: C_11  and  C_13
REMARK                            x       y       z     vdW  Elec       q    Type
REMARK                         _______ _______ _______ _____ _____    ______ ____
ROOT
ATOM      1  C   UNL     1     102.622 126.255  81.761  0.00  0.00    +0.000 C 
ATOM      2  C   UNL     1     101.447 126.010  82.362  0.00  0.00    +0.000 C 
ENDROOT
BRANCH   1   6
ATOM      3  C   UNL     1     104.999 123.728  80.334  0.00  0.00    +0.000 A 
ATOM      4  C   UNL     1     105.084 123.272  81.627  0.00  0.00    +0.000 A 
ATOM      5  S   UNL     1     104.108 124.179  82.691  0.00  0.00    +0.000 S 
ATOM      6  C   UNL     1     103.543 125.215  81.426  0.00  0.00    +0.000 A 
ATOM      7  C   UNL     1     104.115 124.842  80.220  0.00  0.00    +0.000 A 
ENDBRANCH   1   6
BRANCH   2   8
ATOM      8  C   UNL     1     100.524 127.048  82.696  0.00  0.00    +0.000 A 
ATOM      9  C   UNL     1      99.159 127.167  82.480  0.00  0.00    +0.000 A 
ATOM     10  C   UNL     1      98.612 128.384  82.982  0.00  0.00    +0.000 A 
ATOM     11  C   UNL     1      99.570 129.174  83.576  0.00  0.00    +0.000 A 
ATOM     12  S   UNL     1     101.110 128.450  83.521  0.00  0.00    +0.000 S 
BRANCH  11  13
ATOM     13  C   UNL     1      99.402 130.468  84.194  0.00  0.00    +0.000 C 
ATOM     14  O   UNL     1      99.492 131.542  83.603  0.00  0.00    +0.000 OA
ENDBRANCH  11  13
ENDBRANCH   2   8
TORSDOF 3
ENDMDL
