MODEL 1
REMARK VINA RESULT:      -4.6      0.000      0.000
REMARK  Name = *****
REMARK  4 active torsions:
REMARK  status: ('A' for Active; 'I' for Inactive)
REMARK    1  A    between atoms: C_1  and  C_2
REMARK    2  A    between atoms: C_7  and  C_8
REMARK    3  A    between atoms: C_8  and  O_10
REMARK    4  A    between atoms: O_10  and  C_11
REMARK                            x       y       z     vdW  Elec       q    Type
REMARK                         _______ _______ _______ _____ _____    ______ ____
ROOT
ATOM      1  C   UNL     1      88.527  70.422  86.074  0.00  0.00    +0.000 C 
ATOM      2  O   UNL     1      89.659  70.806  86.323  0.00  0.00    +0.000 OA
ENDROOT
BRANCH   1   9
ATOM      3  C   UNL     1      88.106  70.375  89.091  0.00  0.00    +0.000 C 
ATOM      4  C   UNL     1      87.118  70.968  88.127  0.00  0.00    +0.000 A 
ATOM      5  C   UNL     1      85.947  71.555  88.637  0.00  0.00    +0.000 A 
ATOM      6  C   UNL     1      84.985  72.098  87.784  0.00  0.00    +0.000 A 
ATOM      7  C   UNL     1      85.174  72.067  86.405  0.00  0.00    +0.000 A 
ATOM      8  C   UNL     1      86.337  71.505  85.879  0.00  0.00    +0.000 A 
ATOM      9  C   UNL     1      87.319  70.975  86.733  0.00  0.00    +0.000 A 
ENDBRANCH   1   9
BRANCH   1  10
ATOM     10  O   UNL     1      88.144  69.372  85.263  0.00  0.00    +0.000 OA
BRANCH  10  11
ATOM     11  C   UNL     1      88.522  68.124  85.764  0.00  0.00    +0.000 A 
ATOM     12  C   UNL     1      89.717  67.541  85.347  0.00  0.00    +0.000 A 
ATOM     13  C   UNL     1      90.093  66.320  85.900  0.00  0.00    +0.000 A 
ATOM     14  C   UNL     1      89.298  65.701  86.867  0.00  0.00    +0.000 A 
ATOM     15  C   UNL     1      88.113  66.309  87.290  0.00  0.00    +0.000 A 
ATOM     16  C   UNL     1      87.724  67.532  86.742  0.00  0.00    +0.000 A 
ATOM     17 CL   UNL     1      91.559  65.570  85.396  0.00  0.00    +0.000 Cl
ENDBRANCH  10  11
ENDBRANCH   1  10
TORSDOF 3
ENDMDL
