MODEL 1
REMARK VINA RESULT:      -4.6      0.000      0.000
REMARK  Name = *****
REMARK  6 active torsions:
REMARK  status: ('A' for Active; 'I' for Inactive)
REMARK    1  A    between atoms: C_1  and  C_2
REMARK    2  A    between atoms: C_3  and  C_18
REMARK    3  A    between atoms: C_4  and  O_8
REMARK    4  A    between atoms: O_8  and  C_9
REMARK    5  A    between atoms: C_9  and  C_11
REMARK    6  A    between atoms: C_16  and  C_17
REMARK                            x       y       z     vdW  Elec       q    Type
REMARK                         _______ _______ _______ _____ _____    ______ ____
ROOT
ATOM      1  O   UNL     1     102.838 126.770  84.186  0.00  0.00    +0.000 OA
ENDROOT
BRANCH   1   5
ATOM      2  C   UNL     1     104.750 128.974  80.172  0.00  0.00    +0.000 C 
ATOM      3  C   UNL     1     104.089 127.814  80.867  0.00  0.00    +0.000 A 
ATOM      4  C   UNL     1     103.712 127.880  82.226  0.00  0.00    +0.000 A 
ATOM      5  C   UNL     1     103.112 126.750  82.807  0.00  0.00    +0.000 A 
ATOM      6  C   UNL     1     102.882 125.581  82.078  0.00  0.00    +0.000 A 
ATOM      7  C   UNL     1     103.225 125.538  80.732  0.00  0.00    +0.000 A 
ATOM      8  C   UNL     1     103.824 126.646  80.131  0.00  0.00    +0.000 A 
ATOM      9  C   UNL     1     104.000 129.102  83.056  0.00  0.00    +0.000 C 
ENDBRANCH   1   5
BRANCH   1  10
ATOM     10  C   UNL     1     101.515 126.583  84.553  0.00  0.00    +0.000 C 
ATOM     11  O   UNL     1     100.997 125.553  84.956  0.00  0.00    +0.000 OA
BRANCH  10  12
ATOM     12  C   UNL     1     100.783 127.865  84.335  0.00  0.00    +0.000 A 
ATOM     13  C   UNL     1     101.057 128.964  85.169  0.00  0.00    +0.000 A 
ATOM     14  C   UNL     1     100.374 130.170  85.002  0.00  0.00    +0.000 A 
ATOM     15  C   UNL     1      99.407 130.287  84.009  0.00  0.00    +0.000 A 
ATOM     16  C   UNL     1      99.121 129.202  83.180  0.00  0.00    +0.000 A 
ATOM     17  C   UNL     1      99.805 127.982  83.323  0.00  0.00    +0.000 A 
ATOM     18  C   UNL     1      99.453 126.846  82.403  0.00  0.00    +0.000 C 
ENDBRANCH  10  12
ENDBRANCH   1  10
TORSDOF 3
ENDMDL
