REMARK  Name = *****
REMARK  2 active torsions:
REMARK  status: ('A' for Active; 'I' for Inactive)
REMARK    1  A    between atoms: C_2  and  C_11
REMARK    2  A    between atoms: C_3  and  C_4
REMARK                            x       y       z     vdW  Elec       q    Type
REMARK                         _______ _______ _______ _____ _____    ______ ____
ROOT
ATOM      1  C   UNL     1       0.275   0.841  -0.245  0.00  0.00    +0.000 C 
ATOM      2  C   UNL     1       0.976  -0.478  -0.067  0.00  0.00    +0.000 C 
ATOM      3  C   UNL     1      -0.544  -0.424  -0.189  0.00  0.00    +0.000 C 
ENDROOT
BRANCH   3   4
ATOM      4  C   UNL     1      -1.234  -0.945  -1.437  0.00  0.00    +0.000 A 
ATOM      5  C   UNL     1      -0.824  -2.164  -2.014  0.00  0.00    +0.000 A 
ATOM      6  C   UNL     1      -1.437  -2.687  -3.156  0.00  0.00    +0.000 A 
ATOM      7  C   UNL     1      -2.493  -2.007  -3.751  0.00  0.00    +0.000 A 
ATOM      8  C   UNL     1      -2.939  -0.810  -3.197  0.00  0.00    +0.000 A 
ATOM      9  C   UNL     1      -2.321  -0.290  -2.052  0.00  0.00    +0.000 A 
ATOM     10 BR   UNL     1      -3.032   1.326  -1.344  0.00  0.00    +0.000 Br
ENDBRANCH   3   4
BRANCH   2  11
ATOM     11  C   UNL     1       1.606  -0.836   1.258  0.00  0.00    +0.000 A 
ATOM     12  C   UNL     1       1.282  -2.031   1.922  0.00  0.00    +0.000 A 
ATOM     13  C   UNL     1       1.876  -2.373   3.139  0.00  0.00    +0.000 A 
ATOM     14  C   UNL     1       2.817  -1.526   3.717  0.00  0.00    +0.000 A 
ATOM     15  C   UNL     1       3.163  -0.340   3.075  0.00  0.00    +0.000 A 
ATOM     16  C   UNL     1       2.565  -0.004   1.858  0.00  0.00    +0.000 A 
ENDBRANCH   2  11
TORSDOF 2
