MODEL 1
REMARK VINA RESULT:      -5.0      0.000      0.000
REMARK  Name = *****
REMARK  4 active torsions:
REMARK  status: ('A' for Active; 'I' for Inactive)
REMARK    1  A    between atoms: C_1  and  C_2
REMARK    2  A    between atoms: C_5  and  C_8
REMARK    3  A    between atoms: C_9  and  C_10
REMARK    4  A    between atoms: C_15  and  C_16
REMARK                            x       y       z     vdW  Elec       q    Type
REMARK                         _______ _______ _______ _____ _____    ______ ____
ROOT
ATOM      1  C   UNL     1     102.846 125.415  82.101  0.00  0.00    +0.000 C 
ATOM      2  C   UNL     1     101.986 126.207  82.374  0.00  0.00    +0.000 C 
ENDROOT
BRANCH   1   7
ATOM      3  C   UNL     1     106.953 121.611  80.849  0.00  0.00    +0.000 C 
ATOM      4  C   UNL     1     105.861 122.591  81.162  0.00  0.00    +0.000 A 
ATOM      5  C   UNL     1     105.353 123.440  80.172  0.00  0.00    +0.000 A 
ATOM      6  C   UNL     1     104.353 124.367  80.480  0.00  0.00    +0.000 A 
ATOM      7  C   UNL     1     103.858 124.456  81.781  0.00  0.00    +0.000 A 
ATOM      8  C   UNL     1     104.362 123.615  82.775  0.00  0.00    +0.000 A 
ATOM      9  C   UNL     1     105.362 122.689  82.467  0.00  0.00    +0.000 A 
ENDBRANCH   1   7
BRANCH   2  10
ATOM     10  C   UNL     1     100.949 127.139  82.709  0.00  0.00    +0.000 A 
ATOM     11  C   UNL     1      99.625 126.808  82.393  0.00  0.00    +0.000 A 
ATOM     12  C   UNL     1      98.587 127.690  82.691  0.00  0.00    +0.000 A 
ATOM     13  C   UNL     1      98.865 128.908  83.305  0.00  0.00    +0.000 A 
ATOM     14  C   UNL     1     100.182 129.244  83.624  0.00  0.00    +0.000 A 
ATOM     15  C   UNL     1     101.238 128.367  83.332  0.00  0.00    +0.000 A 
ATOM     16  C   UNL     1     102.646 128.756  83.687  0.00  0.00    +0.000 C 
ENDBRANCH   2  10
TORSDOF 2
ENDMDL
