MODEL 1
REMARK VINA RESULT:      -4.2      0.000      0.000
REMARK  Name = *****
REMARK  3 active torsions:
REMARK  status: ('A' for Active; 'I' for Inactive)
REMARK    1  A    between atoms: C_4  and  C_7
REMARK    2  A    between atoms: C_7  and  O_9
REMARK    3  A    between atoms: O_9  and  C_10
REMARK                            x       y       z     vdW  Elec       q    Type
REMARK                         _______ _______ _______ _____ _____    ______ ____
ROOT
ATOM      1  C   UNL     1     102.212 126.060  83.688  0.00  0.00    +0.000 C 
ATOM      2  O   UNL     1     101.931 125.270  84.579  0.00  0.00    +0.000 OA
ENDROOT
BRANCH   1   6
ATOM      3  C   UNL     1      98.896 128.855  83.411  0.00  0.00    +0.000 C 
ATOM      4  C   UNL     1     100.295 129.410  83.667  0.00  0.00    +0.000 C 
ATOM      5  C   UNL     1     101.259 128.320  84.130  0.00  0.00    +0.000 C 
ATOM      6  C   UNL     1     101.291 127.141  83.154  0.00  0.00    +0.000 C 
ATOM      7  C   UNL     1      99.882 126.589  82.907  0.00  0.00    +0.000 C 
ATOM      8  C   UNL     1      98.926 127.681  82.437  0.00  0.00    +0.000 C 
ENDBRANCH   1   6
BRANCH   1   9
ATOM      9  O   UNL     1     103.412 126.116  83.044  0.00  0.00    +0.000 OA
BRANCH   9  10
ATOM     10  C   UNL     1     103.553 125.263  81.888  0.00  0.00    +0.000 C 
ATOM     11  C   UNL     1     104.262 123.975  82.323  0.00  0.00    +0.000 C 
ATOM     12  C   UNL     1     104.609 123.082  81.139  0.00  0.00    +0.000 C 
ATOM     13  C   UNL     1     105.437 123.831  80.099  0.00  0.00    +0.000 C 
ATOM     14  C   UNL     1     104.737 125.109  79.644  0.00  0.00    +0.000 C 
ATOM     15  C   UNL     1     104.385 126.007  80.830  0.00  0.00    +0.000 C 
ATOM     16 CL   UNL     1     103.490 127.445  80.230  0.00  0.00    +0.000 Cl
ENDBRANCH   9  10
ENDBRANCH   1   9
TORSDOF 3
ENDMDL
