MODEL 1
REMARK VINA RESULT:      -4.7      0.000      0.000
REMARK  Name = *****
REMARK  3 active torsions:
REMARK  status: ('A' for Active; 'I' for Inactive)
REMARK    1  A    between atoms: C_1  and  C_2
REMARK    2  A    between atoms: C_2  and  C_10
REMARK    3  A    between atoms: N_3  and  C_4
REMARK                            x       y       z     vdW  Elec       q    Type
REMARK                         _______ _______ _______ _____ _____    ______ ____
ROOT
ATOM      1  C   UNL     1     103.575 125.404  81.666  0.00  0.00    +0.000 A 
ATOM      2  C   UNL     1     103.982 124.263  82.356  0.00  0.00    +0.000 A 
ATOM      3  C   UNL     1     104.856 123.362  81.756  0.00  0.00    +0.000 A 
ATOM      4  C   UNL     1     105.323 123.594  80.470  0.00  0.00    +0.000 A 
ATOM      5  C   UNL     1     104.921 124.730  79.780  0.00  0.00    +0.000 A 
ATOM      6  C   UNL     1     104.048 125.634  80.375  0.00  0.00    +0.000 A 
ATOM      7  F   UNL     1     103.660 126.721  79.690  0.00  0.00    +0.000 F 
ATOM      8  F   UNL     1     105.374 124.957  78.539  0.00  0.00    +0.000 F 
ATOM      9  F   UNL     1     106.169 122.727  79.896  0.00  0.00    +0.000 F 
ATOM     10  F   UNL     1     105.259 122.274  82.428  0.00  0.00    +0.000 F 
ATOM     11  F   UNL     1     103.575 124.037  83.613  0.00  0.00    +0.000 F 
ENDROOT
BRANCH   1  13
ATOM     12  C   UNL     1     103.089 127.764  82.510  0.00  0.00    +0.000 C 
ATOM     13  C   UNL     1     102.617 126.342  82.282  0.00  0.00    +0.000 C 
ATOM     14  N   UNL     1     101.435 125.893  82.574  0.00  0.00    +0.000 NA
BRANCH  14  15
ATOM     15  C   UNL     1     100.490 126.749  83.154  0.00  0.00    +0.000 A 
ATOM     16  C   UNL     1      99.441 127.272  82.392  0.00  0.00    +0.000 A 
ATOM     17  C   UNL     1      98.491 128.110  82.978  0.00  0.00    +0.000 A 
ATOM     18  C   UNL     1      98.577 128.417  84.336  0.00  0.00    +0.000 A 
ATOM     19  C   UNL     1      99.608 127.881  85.107  0.00  0.00    +0.000 A 
ATOM     20  C   UNL     1     100.557 127.044  84.518  0.00  0.00    +0.000 A 
ENDBRANCH  14  15
ENDBRANCH   1  13
TORSDOF 2
ENDMDL
