MODEL 1
REMARK VINA RESULT:      -4.8      0.000      0.000
REMARK  Name = *****
REMARK  5 active torsions:
REMARK  status: ('A' for Active; 'I' for Inactive)
REMARK    1  A    between atoms: C_1  and  C_2
REMARK    2  A    between atoms: C_7  and  C_8
REMARK    3  A    between atoms: C_8  and  O_9
REMARK    4  A    between atoms: O_9  and  C_10
REMARK    5  A    between atoms: C_10  and  C_12
REMARK                            x       y       z     vdW  Elec       q    Type
REMARK                         _______ _______ _______ _____ _____    ______ ____
ROOT
ATOM      1  O   UNL     1     103.601 125.009  80.094  0.00  0.00    +0.000 OA
ENDROOT
BRANCH   1   2
ATOM      2  C   UNL     1     104.715 124.241  80.083  0.00  0.00    +0.000 C 
ATOM      3  O   UNL     1     105.678 124.368  79.344  0.00  0.00    +0.000 OA
BRANCH   2   4
ATOM      4  C   UNL     1     104.628 123.190  81.134  0.00  0.00    +0.000 A 
ATOM      5  C   UNL     1     104.668 121.846  80.733  0.00  0.00    +0.000 A 
ATOM      6  C   UNL     1     104.591 120.822  81.681  0.00  0.00    +0.000 A 
ATOM      7  C   UNL     1     104.469 121.138  83.032  0.00  0.00    +0.000 A 
ATOM      8  C   UNL     1     104.424 122.469  83.445  0.00  0.00    +0.000 A 
ATOM      9  C   UNL     1     104.502 123.496  82.497  0.00  0.00    +0.000 A 
ATOM     10 CL   UNL     1     104.374 119.879  84.200  0.00  0.00    +0.000 Cl
ENDBRANCH   2   4
ENDBRANCH   1   2
BRANCH   1  11
ATOM     11  C   UNL     1     103.814 126.413  80.287  0.00  0.00    +0.000 C 
BRANCH  11  18
ATOM     12  C   UNL     1     104.494 128.925  81.801  0.00  0.00    +0.000 C 
ATOM     13  C   UNL     1     103.330 128.056  82.189  0.00  0.00    +0.000 A 
ATOM     14  C   UNL     1     102.536 128.430  83.286  0.00  0.00    +0.000 A 
ATOM     15  C   UNL     1     101.450 127.650  83.683  0.00  0.00    +0.000 A 
ATOM     16  C   UNL     1     101.143 126.484  82.990  0.00  0.00    +0.000 A 
ATOM     17  C   UNL     1     101.916 126.102  81.896  0.00  0.00    +0.000 A 
ATOM     18  C   UNL     1     103.006 126.885  81.473  0.00  0.00    +0.000 A 
ENDBRANCH  11  18
ENDBRANCH   1  11
TORSDOF 4
ENDMDL
