MODEL 1
REMARK VINA RESULT:      -4.5      0.000      0.000
REMARK  Name = *****
REMARK  3 active torsions:
REMARK  status: ('A' for Active; 'I' for Inactive)
REMARK    1  A    between atoms: C_7  and  O_18
REMARK    2  A    between atoms: N_8  and  C_11
REMARK    3  A    between atoms: O_18  and  O_19
REMARK                            x       y       z     vdW  Elec       q    Type
REMARK                         _______ _______ _______ _____ _____    ______ ____
ROOT
ATOM      1  C   UNL     1      97.922 129.032  85.854  0.00  0.00    +0.000 C 
ATOM      2  C   UNL     1      98.668 130.354  85.661  0.00  0.00    +0.000 C 
ATOM      3  C   UNL     1     100.173 130.130  85.462  0.00  0.00    +0.000 C 
ATOM      4  C   UNL     1     100.448 128.990  84.538  0.00  0.00    +0.000 C 
ATOM      5  C   UNL     1      99.534 128.085  84.173  0.00  0.00    +0.000 C 
ATOM      6  C   UNL     1      98.123 128.083  84.666  0.00  0.00    +0.000 C 
ATOM      7  C   UNL     1     100.034 127.029  83.245  0.00  0.00    +0.000 C 
ATOM      8  N   UNL     1     101.462 127.286  83.041  0.00  0.00    +0.000 N 
ATOM      9  S   UNL     1     102.009 128.718  83.741  0.00  0.00    +0.000 S 
ATOM     10  O   UNL     1     103.001 128.444  84.829  0.00  0.00    +0.000 OA
ENDROOT
BRANCH   8  11
ATOM     11  C   UNL     1     102.300 126.323  82.451  0.00  0.00    +0.000 A 
ATOM     12  C   UNL     1     102.616 126.349  81.076  0.00  0.00    +0.000 A 
ATOM     13  C   UNL     1     103.467 125.404  80.486  0.00  0.00    +0.000 A 
ATOM     14  C   UNL     1     104.031 124.400  81.260  0.00  0.00    +0.000 A 
ATOM     15  C   UNL     1     103.751 124.338  82.617  0.00  0.00    +0.000 A 
ATOM     16  C   UNL     1     102.900 125.289  83.199  0.00  0.00    +0.000 A 
ATOM     17 CL   UNL     1     105.076 123.241  80.540  0.00  0.00    +0.000 Cl
ENDBRANCH   8  11
BRANCH   7  18
ATOM     18  O   UNL     1      99.284 127.037  82.015  0.00  0.00    +0.000 OA
BRANCH  18  19
ATOM     19  O   UNL     1      98.421 125.849  81.997  0.00  0.00    +0.000 OA
ATOM     20  H   UNL     1      98.605 125.328  81.200  0.00  0.00    +0.000 HD
ENDBRANCH  18  19
ENDBRANCH   7  18
TORSDOF 3
ENDMDL
