MODEL 1
REMARK VINA RESULT:      -3.2      0.000      0.000
REMARK  Name = *****
REMARK  5 active torsions:
REMARK  status: ('A' for Active; 'I' for Inactive)
REMARK    1  A    between atoms: C_4  and  S_6
REMARK    2  A    between atoms: S_6  and  C_7
REMARK    3  A    between atoms: C_7  and  C_8
REMARK    4  A    between atoms: C_8  and  S_9
REMARK    5  A    between atoms: S_9  and  C_10
REMARK                            x       y       z     vdW  Elec       q    Type
REMARK                         _______ _______ _______ _____ _____    ______ ____
ROOT
ATOM      1  C   UNL     1     104.242 128.098  81.927  0.00  0.00    +0.000 C 
ENDROOT
BRANCH   1   2
ATOM      2  S   UNL     1     103.693 127.403  80.340  0.00  0.00    +0.000 S 
BRANCH   2   6
ATOM      3  C   UNL     1     104.899 123.536  80.493  0.00  0.00    +0.000 A 
ATOM      4  C   UNL     1     106.098 123.989  79.992  0.00  0.00    +0.000 A 
ATOM      5  S   UNL     1     106.084 125.679  79.739  0.00  0.00    +0.000 S 
ATOM      6  C   UNL     1     104.469 125.824  80.301  0.00  0.00    +0.000 A 
ATOM      7  C   UNL     1     103.959 124.596  80.671  0.00  0.00    +0.000 A 
ENDBRANCH   2   6
ENDBRANCH   1   2
BRANCH   1   8
ATOM      8  C   UNL     1     103.553 127.366  83.077  0.00  0.00    +0.000 C 
BRANCH   8   9
ATOM      9  S   UNL     1     102.428 128.516  83.930  0.00  0.00    +0.000 S 
BRANCH   9  10
ATOM     10  C   UNL     1     100.828 128.063  83.347  0.00  0.00    +0.000 A 
ATOM     11  C   UNL     1     100.552 126.844  82.758  0.00  0.00    +0.000 A 
ATOM     12  C   UNL     1      99.186 126.715  82.370  0.00  0.00    +0.000 A 
ATOM     13  C   UNL     1      98.460 127.843  82.676  0.00  0.00    +0.000 A 
ATOM     14  S   UNL     1      99.425 129.039  83.423  0.00  0.00    +0.000 S 
ENDBRANCH   9  10
ENDBRANCH   8   9
ENDBRANCH   1   8
TORSDOF 5
ENDMDL
