REMARK  Name = *****
REMARK  5 active torsions:
REMARK  status: ('A' for Active; 'I' for Inactive)
REMARK    1  A    between atoms: C_1  and  C_2
REMARK    2  A    between atoms: C_5  and  C_8
REMARK    3  A    between atoms: N_6  and  C_7
REMARK    4  A    between atoms: C_9  and  C_10
REMARK    5  A    between atoms: C_13  and  C_16
REMARK                            x       y       z     vdW  Elec       q    Type
REMARK                         _______ _______ _______ _____ _____    ______ ____
ROOT
ATOM      1  C   UNL     1       7.868  -3.361  -0.246  0.00  0.00    +0.000 A 
ATOM      2  C   UNL     1       9.147  -2.822  -0.400  0.00  0.00    +0.000 A 
ATOM      3  C   UNL     1      10.260  -3.665  -0.475  0.00  0.00    +0.000 A 
ATOM      4  C   UNL     1      10.105  -5.058  -0.398  0.00  0.00    +0.000 A 
ATOM      5  C   UNL     1       8.814  -5.589  -0.242  0.00  0.00    +0.000 A 
ATOM      6  C   UNL     1       7.702  -4.745  -0.167  0.00  0.00    +0.000 A 
ENDROOT
BRANCH   4   7
ATOM      7  C   UNL     1      11.295  -5.984  -0.479  0.00  0.00    +0.000 C 
ATOM      8  F   UNL     1      12.482  -5.335  -0.636  0.00  0.00    +0.000 F 
ATOM      9  F   UNL     1      11.434  -6.751   0.638  0.00  0.00    +0.000 F 
ATOM     10  F   UNL     1      11.205  -6.856  -1.522  0.00  0.00    +0.000 F 
ENDBRANCH   4   7
BRANCH   1  12
ATOM     11  C   UNL     1       5.780  -1.766  -0.114  0.00  0.00    +0.000 C 
ATOM     12  C   UNL     1       6.732  -2.497  -0.172  0.00  0.00    +0.000 C 
BRANCH  11  17
ATOM     13  C   UNL     1       1.105  -0.064   0.042  0.00  0.00    +0.000 C 
ATOM     14  C   UNL     1       2.589  -0.092   0.021  0.00  0.00    +0.000 A 
ATOM     15  N   UNL     1       3.377   0.965   0.057  0.00  0.00    +0.000 NA
ATOM     16  C   UNL     1       4.656   0.476   0.014  0.00  0.00    +0.000 A 
ATOM     17  C   UNL     1       4.658  -0.898  -0.050  0.00  0.00    +0.000 A 
ATOM     18  N   UNL     1       3.333  -1.251  -0.040  0.00  0.00    +0.000 N 
ATOM     19  C   UNL     1       2.792  -2.588  -0.090  0.00  0.00    +0.000 C 
ENDBRANCH  11  17
ENDBRANCH   1  12
TORSDOF 3
