MODEL 1
REMARK VINA RESULT:      -4.6      0.000      0.000
REMARK  Name = *****
REMARK  5 active torsions:
REMARK  status: ('A' for Active; 'I' for Inactive)
REMARK    1  A    between atoms: C_1  and  C_2
REMARK    2  A    between atoms: C_2  and  C_3
REMARK    3  A    between atoms: C_3  and  C_4
REMARK    4  A    between atoms: C_3  and  S_10
REMARK    5  A    between atoms: S_10  and  C_11
REMARK                            x       y       z     vdW  Elec       q    Type
REMARK                         _______ _______ _______ _____ _____    ______ ____
ROOT
ATOM      1  C   UNL     1     103.052 126.641  81.248  0.00  0.00    +0.000 C 
ENDROOT
BRANCH   1   2
ATOM      2  C   UNL     1     103.703 125.272  81.425  0.00  0.00    +0.000 A 
ATOM      3  C   UNL     1     104.267 124.556  80.357  0.00  0.00    +0.000 A 
ATOM      4  C   UNL     1     104.830 123.293  80.558  0.00  0.00    +0.000 A 
ATOM      5  C   UNL     1     104.835 122.723  81.829  0.00  0.00    +0.000 A 
ATOM      6  C   UNL     1     104.274 123.415  82.899  0.00  0.00    +0.000 A 
ATOM      7  C   UNL     1     103.710 124.676  82.699  0.00  0.00    +0.000 A 
ENDBRANCH   1   2
BRANCH   1   9
ATOM      8  C   UNL     1     104.587 128.653  80.603  0.00  0.00    +0.000 C 
ATOM      9  C   UNL     1     103.739 127.473  80.143  0.00  0.00    +0.000 C 
ENDBRANCH   1   9
BRANCH   1  10
ATOM     10  S   UNL     1     102.865 127.535  82.854  0.00  0.00    +0.000 S 
BRANCH  10  11
ATOM     11  C   UNL     1     101.091 127.691  82.937  0.00  0.00    +0.000 A 
ATOM     12  C   UNL     1     100.252 126.702  82.415  0.00  0.00    +0.000 A 
ATOM     13  C   UNL     1      98.865 126.841  82.496  0.00  0.00    +0.000 A 
ATOM     14  C   UNL     1      98.310 127.965  83.106  0.00  0.00    +0.000 A 
ATOM     15  C   UNL     1      99.142 128.947  83.641  0.00  0.00    +0.000 A 
ATOM     16  C   UNL     1     100.529 128.809  83.562  0.00  0.00    +0.000 A 
ENDBRANCH  10  11
ENDBRANCH   1  10
TORSDOF 4
ENDMDL
