MODEL 1
REMARK VINA RESULT:      -5.1      0.000      0.000
REMARK  Name = *****
REMARK  3 active torsions:
REMARK  status: ('A' for Active; 'I' for Inactive)
REMARK    1  A    between atoms: C_1  and  C_2
REMARK    2  A    between atoms: C_7  and  N_8
REMARK    3  A    between atoms: C_9  and  C_11
REMARK                            x       y       z     vdW  Elec       q    Type
REMARK                         _______ _______ _______ _____ _____    ______ ____
ROOT
ATOM      1  N   UNL     1     102.056 126.262  81.797  0.00  0.00    +0.000 N 
ATOM      2  C   UNL     1     102.857 125.297  82.378  0.00  0.00    +0.000 C 
ATOM      3  O   UNL     1     102.795 124.872  83.526  0.00  0.00    +0.000 OA
ATOM      4  H   UNL     1     102.205 126.429  80.837  0.00  0.00    +0.000 HD
ENDROOT
BRANCH   1  11
ATOM      5  C   UNL     1     102.857 128.613  83.303  0.00  0.00    +0.000 C 
ATOM      6  C   UNL     1     101.421 128.184  83.152  0.00  0.00    +0.000 A 
ATOM      7  C   UNL     1     100.429 128.962  83.775  0.00  0.00    +0.000 A 
ATOM      8  C   UNL     1      99.082 128.618  83.675  0.00  0.00    +0.000 A 
ATOM      9  C   UNL     1      98.713 127.492  82.953  0.00  0.00    +0.000 A 
ATOM     10  C   UNL     1      99.688 126.708  82.329  0.00  0.00    +0.000 A 
ATOM     11  C   UNL     1     101.045 127.039  82.414  0.00  0.00    +0.000 A 
ENDBRANCH   1  11
BRANCH   2  12
ATOM     12  C   UNL     1     103.874 124.696  81.468  0.00  0.00    +0.000 A 
ATOM     13  C   UNL     1     104.419 123.430  81.710  0.00  0.00    +0.000 A 
ATOM     14  C   UNL     1     105.365 122.911  80.828  0.00  0.00    +0.000 A 
ATOM     15  C   UNL     1     105.765 123.635  79.704  0.00  0.00    +0.000 A 
ATOM     16  C   UNL     1     105.208 124.888  79.452  0.00  0.00    +0.000 A 
ATOM     17  C   UNL     1     104.260 125.416  80.330  0.00  0.00    +0.000 A 
ATOM     18 CL   UNL     1     106.044 121.358  81.126  0.00  0.00    +0.000 Cl
ENDBRANCH   2  12
TORSDOF 2
ENDMDL
