REMARK  Name = *****
REMARK  3 active torsions:
REMARK  status: ('A' for Active; 'I' for Inactive)
REMARK    1  A    between atoms: C_4  and  C_7
REMARK    2  A    between atoms: C_8  and  C_9
REMARK    3  A    between atoms: C_12  and  C_15
REMARK                            x       y       z     vdW  Elec       q    Type
REMARK                         _______ _______ _______ _____ _____    ______ ____
ROOT
ATOM      1  C   UNL     1      -0.593   0.005  -0.011  0.00  0.00    +0.000 C 
ATOM      2  C   UNL     1       0.609   0.007  -0.020  0.00  0.00    +0.000 C 
ENDROOT
BRANCH   1   6
ATOM      3  C   UNL     1      -4.816   0.021   0.005  0.00  0.00    +0.000 A 
ATOM      4  C   UNL     1      -4.124  -1.190   0.036  0.00  0.00    +0.000 A 
ATOM      5  C   UNL     1      -2.728  -1.196   0.031  0.00  0.00    +0.000 A 
ATOM      6  C   UNL     1      -2.023   0.010  -0.004  0.00  0.00    +0.000 A 
ATOM      7  C   UNL     1      -2.718   1.221  -0.035  0.00  0.00    +0.000 A 
ATOM      8  C   UNL     1      -4.115   1.226  -0.030  0.00  0.00    +0.000 A 
ENDBRANCH   1   6
BRANCH   2   9
ATOM      9  C   UNL     1       2.038   0.014  -0.033  0.00  0.00    +0.000 A 
ATOM     10  C   UNL     1       2.731   1.228  -0.002  0.00  0.00    +0.000 A 
ATOM     11  C   UNL     1       4.127   1.238  -0.018  0.00  0.00    +0.000 A 
ATOM     12  C   UNL     1       4.829   0.030  -0.064  0.00  0.00    +0.000 A 
ATOM     13  C   UNL     1       4.142  -1.188  -0.093  0.00  0.00    +0.000 A 
ATOM     14  C   UNL     1       2.744  -1.192  -0.078  0.00  0.00    +0.000 A 
BRANCH  12  15
ATOM     15  C   UNL     1       6.306   0.029  -0.082  0.00  0.00    +0.000 C 
ATOM     16  O   UNL     1       6.958   1.065  -0.058  0.00  0.00    +0.000 OA
ENDBRANCH  12  15
ENDBRANCH   2   9
TORSDOF 3
