MODEL 1
REMARK VINA RESULT:      -4.7      0.000      0.000
REMARK  Name = *****
REMARK  5 active torsions:
REMARK  status: ('A' for Active; 'I' for Inactive)
REMARK    1  A    between atoms: C_1  and  C_2
REMARK    2  A    between atoms: C_5  and  C_8
REMARK    3  A    between atoms: C_8  and  N_9
REMARK    4  A    between atoms: N_9  and  N_18
REMARK    5  A    between atoms: C_10  and  C_12
REMARK                            x       y       z     vdW  Elec       q    Type
REMARK                         _______ _______ _______ _____ _____    ______ ____
ROOT
ATOM      1  N   UNL     1      88.950  65.889  86.139  0.00  0.00    +0.000 N 
ATOM      2  C   UNL     1      90.043  66.751  86.020  0.00  0.00    +0.000 C 
ATOM      3  O   UNL     1      91.216  66.372  86.014  0.00  0.00    +0.000 OA
ENDROOT
BRANCH   2   4
ATOM      4  C   UNL     1      89.810  68.210  85.881  0.00  0.00    +0.000 A 
ATOM      5  C   UNL     1      89.612  69.022  87.003  0.00  0.00    +0.000 A 
ATOM      6  C   UNL     1      89.430  70.396  86.839  0.00  0.00    +0.000 A 
ATOM      7  C   UNL     1      89.463  70.958  85.561  0.00  0.00    +0.000 A 
ATOM      8  C   UNL     1      89.687  70.151  84.445  0.00  0.00    +0.000 A 
ATOM      9  C   UNL     1      89.870  68.778  84.603  0.00  0.00    +0.000 A 
ENDBRANCH   2   4
BRANCH   1  10
ATOM     10  N   UNL     1      87.656  66.374  85.913  0.00  0.00    +0.000 NA
ATOM     11  O   UNL     1      87.156  66.021  84.841  0.00  0.00    +0.000 OA
ENDBRANCH   1  10
BRANCH   1  12
ATOM     12  C   UNL     1      89.188  64.469  86.388  0.00  0.00    +0.000 C 
BRANCH  12  17
ATOM     13  C   UNL     1      85.828  62.349  90.658  0.00  0.00    +0.000 C 
ATOM     14  C   UNL     1      86.713  62.875  89.566  0.00  0.00    +0.000 A 
ATOM     15  C   UNL     1      87.682  63.846  89.842  0.00  0.00    +0.000 A 
ATOM     16  C   UNL     1      88.481  64.360  88.817  0.00  0.00    +0.000 A 
ATOM     17  C   UNL     1      88.315  63.924  87.497  0.00  0.00    +0.000 A 
ATOM     18  C   UNL     1      87.339  62.956  87.223  0.00  0.00    +0.000 A 
ATOM     19  C   UNL     1      86.541  62.442  88.247  0.00  0.00    +0.000 A 
ENDBRANCH  12  17
ENDBRANCH   1  12
TORSDOF 4
ENDMDL
