MODEL 1
REMARK VINA RESULT:      -4.3      0.000      0.000
REMARK  Name = *****
REMARK  3 active torsions:
REMARK  status: ('A' for Active; 'I' for Inactive)
REMARK    1  A    between atoms: C_1  and  C_2
REMARK    2  A    between atoms: C_5  and  S_8
REMARK    3  A    between atoms: S_8  and  C_9
REMARK                            x       y       z     vdW  Elec       q    Type
REMARK                         _______ _______ _______ _____ _____    ______ ____
ROOT
ATOM      1  S   UNL     1     101.677 126.116  83.977  0.00  0.00    +0.000 S 
ENDROOT
BRANCH   1   6
ATOM      2  C   UNL     1     105.410 123.945  79.675  0.00  0.00    +0.000 C 
ATOM      3  C   UNL     1     104.468 124.463  80.719  0.00  0.00    +0.000 A 
ATOM      4  C   UNL     1     103.563 125.486  80.414  0.00  0.00    +0.000 A 
ATOM      5  C   UNL     1     102.708 125.994  81.397  0.00  0.00    +0.000 A 
ATOM      6  C   UNL     1     102.747 125.486  82.698  0.00  0.00    +0.000 A 
ATOM      7  C   UNL     1     103.670 124.486  83.012  0.00  0.00    +0.000 A 
ATOM      8  C   UNL     1     104.525 123.977  82.031  0.00  0.00    +0.000 A 
ENDBRANCH   1   6
BRANCH   1   9
ATOM      9  C   UNL     1     100.704 127.332  83.019  0.00  0.00    +0.000 C 
ATOM     10  C   UNL     1      99.359 126.785  82.447  0.00  0.00    +0.000 C 
ATOM     11  C   UNL     1      98.330 127.832  82.933  0.00  0.00    +0.000 C 
ATOM     12  C   UNL     1      99.160 129.118  82.911  0.00  0.00    +0.000 C 
ATOM     13  C   UNL     1     100.234 128.557  83.853  0.00  0.00    +0.000 C 
ATOM     14  C   UNL     1      99.325 128.115  84.983  0.00  0.00    +0.000 C 
ATOM     15  C   UNL     1      98.187 127.674  84.428  0.00  0.00    +0.000 C 
ENDBRANCH   1   9
TORSDOF 2
ENDMDL
