REMARK  Name = *****
REMARK  4 active torsions:
REMARK  status: ('A' for Active; 'I' for Inactive)
REMARK    1  A    between atoms: C_1  and  C_2
REMARK    2  A    between atoms: C_5  and  O_8
REMARK    3  A    between atoms: O_8  and  C_9
REMARK    4  A    between atoms: C_10  and  C_11
REMARK                            x       y       z     vdW  Elec       q    Type
REMARK                         _______ _______ _______ _____ _____    ______ ____
ROOT
ATOM      1  C   UNL     1      -3.806   1.300   0.267  0.00  0.00    +0.000 C 
ATOM      2  C   UNL     1      -5.090   1.442   0.615  0.00  0.00    +0.000 C 
ENDROOT
BRANCH   2   3
ATOM      3  C   UNL     1      -5.866   2.676   0.437  0.00  0.00    +0.000 A 
ATOM      4  C   UNL     1      -5.691   3.519  -0.670  0.00  0.00    +0.000 A 
ATOM      5  C   UNL     1      -6.470   4.672  -0.815  0.00  0.00    +0.000 A 
ATOM      6  C   UNL     1      -7.434   4.982   0.140  0.00  0.00    +0.000 A 
ATOM      7  C   UNL     1      -7.631   4.147   1.237  0.00  0.00    +0.000 A 
ATOM      8  C   UNL     1      -6.853   2.994   1.380  0.00  0.00    +0.000 A 
ATOM      9 CL   UNL     1      -8.391   6.400  -0.038  0.00  0.00    +0.000 Cl
ENDBRANCH   2   3
BRANCH   1  10
ATOM     10  O   UNL     1      -3.134   0.114   0.464  0.00  0.00    +0.000 OA
BRANCH  10  15
ATOM     11  C   UNL     1       2.467  -0.039  -0.409  0.00  0.00    +0.000 C 
ATOM     12  C   UNL     1       0.983   0.035  -0.196  0.00  0.00    +0.000 A 
ATOM     13  C   UNL     1       0.448   0.919   0.751  0.00  0.00    +0.000 A 
ATOM     14  C   UNL     1      -0.929   0.965   0.976  0.00  0.00    +0.000 A 
ATOM     15  C   UNL     1      -1.777   0.129   0.249  0.00  0.00    +0.000 A 
ATOM     16  C   UNL     1      -1.255  -0.780  -0.667  0.00  0.00    +0.000 A 
ATOM     17  C   UNL     1       0.123  -0.825  -0.891  0.00  0.00    +0.000 A 
ENDBRANCH  10  15
ENDBRANCH   1  10
TORSDOF 3
