REMARK  Name = *****
REMARK  6 active torsions:
REMARK  status: ('A' for Active; 'I' for Inactive)
REMARK    1  A    between atoms: C_1  and  O_2
REMARK    2  A    between atoms: O_2  and  C_3
REMARK    3  A    between atoms: C_6  and  C_9
REMARK    4  A    between atoms: C_9  and  S_10
REMARK    5  A    between atoms: C_9  and  N_12
REMARK    6  A    between atoms: N_12  and  C_13
REMARK                            x       y       z     vdW  Elec       q    Type
REMARK                         _______ _______ _______ _____ _____    ______ ____
ROOT
ATOM      1  C   UNL     1       5.452   1.343   4.584  0.00  0.00    +0.000 C 
ENDROOT
BRANCH   1   5
ATOM      2  C   UNL     1       3.162   0.093   1.176  0.00  0.00    +0.000 A 
ATOM      3  C   UNL     1       4.555   0.130   1.099  0.00  0.00    +0.000 A 
ATOM      4  C   UNL     1       5.311   0.546   2.201  0.00  0.00    +0.000 A 
ATOM      5  C   UNL     1       4.675   0.934   3.385  0.00  0.00    +0.000 A 
ATOM      6  C   UNL     1       3.279   0.890   3.467  0.00  0.00    +0.000 A 
ATOM      7  C   UNL     1       2.531   0.470   2.365  0.00  0.00    +0.000 A 
BRANCH   2   9
ATOM      8  C   UNL     1       2.894  -0.564  -1.092  0.00  0.00    +0.000 C 
ATOM      9  O   UNL     1       2.311  -0.293   0.177  0.00  0.00    +0.000 OA
ENDBRANCH   2   9
ENDBRANCH   1   5
BRANCH   1  10
ATOM     10  S   UNL     1       6.596   2.513   4.460  0.00  0.00    +0.000 S 
ATOM     11  O   UNL     1       6.748   3.121   3.108  0.00  0.00    +0.000 OA
ENDBRANCH   1  10
BRANCH   1  12
ATOM     12  N   UNL     1       5.144   0.617   5.728  0.00  0.00    +0.000 N 
ATOM     13  H   UNL     1       4.570  -0.166   5.565  0.00  0.00    +0.000 HD
BRANCH  12  14
ATOM     14  C   UNL     1       5.503   0.797   7.083  0.00  0.00    +0.000 A 
ATOM     15  C   UNL     1       5.991   1.984   7.632  0.00  0.00    +0.000 A 
ATOM     16  C   UNL     1       6.297   2.063   8.996  0.00  0.00    +0.000 A 
ATOM     17  C   UNL     1       6.108   0.963   9.826  0.00  0.00    +0.000 A 
ATOM     18  C   UNL     1       5.599  -0.218   9.297  0.00  0.00    +0.000 A 
ATOM     19  C   UNL     1       5.292  -0.296   7.936  0.00  0.00    +0.000 A 
ENDBRANCH  12  14
ENDBRANCH   1  12
TORSDOF 5
