MODEL 1
REMARK VINA RESULT:      -3.7      0.000      0.000
REMARK  Name = *****
REMARK  6 active torsions:
REMARK  status: ('A' for Active; 'I' for Inactive)
REMARK    1  A    between atoms: C_1  and  C_2
REMARK    2  A    between atoms: C_2  and  C_3
REMARK    3  A    between atoms: C_2  and  O_9
REMARK    4  A    between atoms: O_9  and  C_10
REMARK    5  A    between atoms: C_10  and  C_12
REMARK    6  A    between atoms: C_12  and  C_13
REMARK                            x       y       z     vdW  Elec       q    Type
REMARK                         _______ _______ _______ _____ _____    ______ ____
ROOT
ATOM      1  O   UNL     1      89.409  71.819  82.982  0.00  0.00    +0.000 OA
ENDROOT
BRANCH   1   3
ATOM      2  C   UNL     1      91.719  71.078  82.927  0.00  0.00    +0.000 C 
ATOM      3  C   UNL     1      90.551  71.520  83.805  0.00  0.00    +0.000 C 
BRANCH   3   4
ATOM      4  C   UNL     1      90.152  70.419  84.772  0.00  0.00    +0.000 A 
ATOM      5  C   UNL     1      89.887  70.695  86.123  0.00  0.00    +0.000 A 
ATOM      6  C   UNL     1      89.510  69.675  86.997  0.00  0.00    +0.000 A 
ATOM      7  C   UNL     1      89.391  68.366  86.532  0.00  0.00    +0.000 A 
ATOM      8  C   UNL     1      89.648  68.078  85.195  0.00  0.00    +0.000 A 
ATOM      9  C   UNL     1      90.026  69.098  84.318  0.00  0.00    +0.000 A 
ENDBRANCH   3   4
ENDBRANCH   1   3
BRANCH   1  10
ATOM     10  C   UNL     1      88.676  72.904  83.355  0.00  0.00    +0.000 C 
ATOM     11  O   UNL     1      89.135  73.973  83.736  0.00  0.00    +0.000 OA
BRANCH  10  12
ATOM     12  C   UNL     1      87.202  72.606  83.240  0.00  0.00    +0.000 C 
BRANCH  12  13
ATOM     13  C   UNL     1      86.761  71.505  84.169  0.00  0.00    +0.000 A 
ATOM     14  C   UNL     1      86.573  70.202  83.688  0.00  0.00    +0.000 A 
ATOM     15  C   UNL     1      86.140  69.188  84.544  0.00  0.00    +0.000 A 
ATOM     16  C   UNL     1      85.885  69.468  85.885  0.00  0.00    +0.000 A 
ATOM     17  C   UNL     1      86.056  70.763  86.371  0.00  0.00    +0.000 A 
ATOM     18  C   UNL     1      86.490  71.778  85.517  0.00  0.00    +0.000 A 
ENDBRANCH  12  13
ENDBRANCH  10  12
ENDBRANCH   1  10
TORSDOF 5
ENDMDL
