REMARK  Name = *****
REMARK  4 active torsions:
REMARK  status: ('A' for Active; 'I' for Inactive)
REMARK    1  A    between atoms: C_1  and  C_2
REMARK    2  A    between atoms: C_6  and  O_7
REMARK    3  A    between atoms: O_7  and  C_8
REMARK    4  A    between atoms: C_8  and  C_10
REMARK                            x       y       z     vdW  Elec       q    Type
REMARK                         _______ _______ _______ _____ _____    ______ ____
ROOT
ATOM      1  C   UNL     1       0.163   3.505   0.504  0.00  0.00    +0.000 C 
ATOM      2  O   UNL     1      -0.909   3.645   1.071  0.00  0.00    +0.000 OA
ENDROOT
BRANCH   1   3
ATOM      3  C   UNL     1       1.007   4.642   0.047  0.00  0.00    +0.000 A 
ATOM      4  C   UNL     1       0.538   5.944   0.269  0.00  0.00    +0.000 A 
ATOM      5  C   UNL     1       1.293   7.045  -0.141  0.00  0.00    +0.000 A 
ATOM      6  C   UNL     1       2.520   6.851  -0.774  0.00  0.00    +0.000 A 
ATOM      7  C   UNL     1       2.995   5.559  -0.999  0.00  0.00    +0.000 A 
ATOM      8  C   UNL     1       2.242   4.455  -0.590  0.00  0.00    +0.000 A 
ENDBRANCH   1   3
BRANCH   1   9
ATOM      9  O   UNL     1       0.754   2.322   0.201  0.00  0.00    +0.000 OA
BRANCH   9  15
ATOM     10  C   UNL     1       1.944  -0.187   1.606  0.00  0.00    +0.000 C 
ATOM     11  C   UNL     1       0.931  -0.076   0.477  0.00  0.00    +0.000 C 
ATOM     12  C   UNL     1      -0.078  -1.220   0.459  0.00  0.00    +0.000 C 
ATOM     13  C   UNL     1      -1.237  -0.689  -0.381  0.00  0.00    +0.000 C 
ATOM     14  C   UNL     1      -1.112   0.835  -0.373  0.00  0.00    +0.000 C 
ATOM     15  C   UNL     1       0.029   1.154   0.594  0.00  0.00    +0.000 C 
ENDBRANCH   9  15
ENDBRANCH   1   9
TORSDOF 3
