MODEL 1
REMARK VINA RESULT:      -4.9      0.000      0.000
REMARK  Name = *****
REMARK  4 active torsions:
REMARK  status: ('A' for Active; 'I' for Inactive)
REMARK    1  A    between atoms: C_1  and  C_2
REMARK    2  A    between atoms: C_3  and  C_17
REMARK    3  A    between atoms: C_4  and  N_8
REMARK    4  A    between atoms: C_9  and  C_10
REMARK                            x       y       z     vdW  Elec       q    Type
REMARK                         _______ _______ _______ _____ _____    ______ ____
ROOT
ATOM      1  N   UNL     1     102.076 126.250  82.825  0.00  0.00    +0.000 NA
ATOM      2  C   UNL     1     102.421 125.921  81.620  0.00  0.00    +0.000 C 
ENDROOT
BRANCH   1   6
ATOM      3  C   UNL     1     100.025 130.609  84.189  0.00  0.00    +0.000 C 
ATOM      4  C   UNL     1      99.959 129.235  83.578  0.00  0.00    +0.000 A 
ATOM      5  C   UNL     1     101.085 128.382  83.541  0.00  0.00    +0.000 A 
ATOM      6  C   UNL     1     100.974 127.117  82.927  0.00  0.00    +0.000 A 
ATOM      7  C   UNL     1      99.737 126.690  82.430  0.00  0.00    +0.000 A 
ATOM      8  C   UNL     1      98.620 127.517  82.497  0.00  0.00    +0.000 A 
ATOM      9  C   UNL     1      98.732 128.784  83.063  0.00  0.00    +0.000 A 
ATOM     10  C   UNL     1     102.414 128.830  84.096  0.00  0.00    +0.000 C 
ENDBRANCH   1   6
BRANCH   2  11
ATOM     11  C   UNL     1     103.562 125.022  81.357  0.00  0.00    +0.000 A 
ATOM     12  C   UNL     1     104.186 125.007  80.105  0.00  0.00    +0.000 A 
ATOM     13  C   UNL     1     105.264 124.148  79.877  0.00  0.00    +0.000 A 
ATOM     14  C   UNL     1     105.711 123.311  80.899  0.00  0.00    +0.000 A 
ATOM     15  C   UNL     1     105.089 123.325  82.149  0.00  0.00    +0.000 A 
ATOM     16  C   UNL     1     104.011 124.183  82.381  0.00  0.00    +0.000 A 
ATOM     17 CL   UNL     1     107.038 122.253  80.618  0.00  0.00    +0.000 Cl
ENDBRANCH   2  11
TORSDOF 2
ENDMDL
