MODEL 1
REMARK VINA RESULT:      -4.4      0.000      0.000
REMARK  Name = *****
REMARK  5 active torsions:
REMARK  status: ('A' for Active; 'I' for Inactive)
REMARK    1  A    between atoms: C_1  and  C_2
REMARK    2  A    between atoms: C_4  and  C_17
REMARK    3  A    between atoms: C_6  and  O_8
REMARK    4  A    between atoms: O_8  and  C_9
REMARK    5  A    between atoms: C_9  and  C_10
REMARK                            x       y       z     vdW  Elec       q    Type
REMARK                         _______ _______ _______ _____ _____    ______ ____
ROOT
ATOM      1  C   UNL     1      86.608  65.935  88.453  0.00  0.00    +0.000 C 
ATOM      2  C   UNL     1      87.687  66.686  87.732  0.00  0.00    +0.000 A 
ATOM      3  C   UNL     1      88.705  65.997  87.085  0.00  0.00    +0.000 A 
ATOM      4  C   UNL     1      89.690  66.732  86.425  0.00  0.00    +0.000 A 
ATOM      5  C   UNL     1      89.634  68.121  86.428  0.00  0.00    +0.000 A 
ATOM      6  C   UNL     1      88.586  68.721  87.097  0.00  0.00    +0.000 A 
ATOM      7  N   UNL     1      87.618  68.037  87.744  0.00  0.00    +0.000 NA
ENDROOT
BRANCH   4   8
ATOM      8  C   UNL     1      90.755  66.056  85.745  0.00  0.00    +0.000 C 
ATOM      9  N   UNL     1      91.613  65.509  85.189  0.00  0.00    +0.000 NA
ENDBRANCH   4   8
BRANCH   6  10
ATOM     10  O   UNL     1      88.560  70.099  87.078  0.00  0.00    +0.000 OA
BRANCH  10  11
ATOM     11  C   UNL     1      88.076  70.632  85.847  0.00  0.00    +0.000 C 
BRANCH  11  12
ATOM     12  C   UNL     1      86.736  71.270  86.122  0.00  0.00    +0.000 A 
ATOM     13  C   UNL     1      86.307  71.490  87.439  0.00  0.00    +0.000 A 
ATOM     14  C   UNL     1      85.076  72.099  87.683  0.00  0.00    +0.000 A 
ATOM     15  C   UNL     1      84.265  72.505  86.626  0.00  0.00    +0.000 A 
ATOM     16  C   UNL     1      84.689  72.304  85.313  0.00  0.00    +0.000 A 
ATOM     17  C   UNL     1      85.919  71.693  85.062  0.00  0.00    +0.000 A 
ATOM     18 CL   UNL     1      84.557  72.356  89.304  0.00  0.00    +0.000 Cl
ENDBRANCH  11  12
ENDBRANCH  10  11
ENDBRANCH   6  10
TORSDOF 4
ENDMDL
