REMARK  Name = *****
REMARK  3 active torsions:
REMARK  status: ('A' for Active; 'I' for Inactive)
REMARK    1  A    between atoms: C_5  and  C_7
REMARK    2  A    between atoms: C_7  and  C_8
REMARK    3  A    between atoms: C_8  and  C_9
REMARK                            x       y       z     vdW  Elec       q    Type
REMARK                         _______ _______ _______ _____ _____    ______ ____
ROOT
ATOM      1  C   UNL     1      -1.701  -0.997   1.471  0.00  0.00    +0.000 C 
ENDROOT
BRANCH   1   6
ATOM      2  C   UNL     1      -2.902  -1.813  -1.428  0.00  0.00    +0.000 C 
ATOM      3  C   UNL     1      -2.921  -0.523  -2.250  0.00  0.00    +0.000 C 
ATOM      4  C   UNL     1      -2.142   0.595  -1.622  0.00  0.00    +0.000 C 
ATOM      5  C   UNL     1      -1.315   0.428  -0.579  0.00  0.00    +0.000 C 
ATOM      6  C   UNL     1      -1.051  -0.909   0.074  0.00  0.00    +0.000 C 
ATOM      7  C   UNL     1      -1.521  -2.071  -0.828  0.00  0.00    +0.000 C 
ENDBRANCH   1   6
BRANCH   1   8
ATOM      8  C   UNL     1      -1.093  -0.018   2.482  0.00  0.00    +0.000 C 
BRANCH   8   9
ATOM      9  C   UNL     1      -1.684  -0.205   3.859  0.00  0.00    +0.000 A 
ATOM     10  C   UNL     1      -1.085  -1.075   4.779  0.00  0.00    +0.000 A 
ATOM     11  C   UNL     1      -1.644  -1.260   6.044  0.00  0.00    +0.000 A 
ATOM     12  C   UNL     1      -2.808  -0.581   6.400  0.00  0.00    +0.000 A 
ATOM     13  C   UNL     1      -3.415   0.282   5.489  0.00  0.00    +0.000 A 
ATOM     14  C   UNL     1      -2.858   0.467   4.223  0.00  0.00    +0.000 A 
ENDBRANCH   8   9
ENDBRANCH   1   8
TORSDOF 3
