REMARK  Name = *****
REMARK  1 active torsions:
REMARK  status: ('A' for Active; 'I' for Inactive)
REMARK    1  A    between atoms: C_6  and  C_7
REMARK                            x       y       z     vdW  Elec       q    Type
REMARK                         _______ _______ _______ _____ _____    ______ ____
ROOT
ATOM      1  C   UNL     1       0.434   2.542   0.189  0.00  0.00    +0.000 A 
ATOM      2  C   UNL     1       0.832   2.840   1.477  0.00  0.00    +0.000 A 
ATOM      3  C   UNL     1       1.146   4.226   1.670  0.00  0.00    +0.000 A 
ATOM      4  C   UNL     1       1.586   4.919   2.824  0.00  0.00    +0.000 A 
ATOM      5  C   UNL     1       1.833   6.294   2.772  0.00  0.00    +0.000 A 
ATOM      6  C   UNL     1       1.649   6.995   1.589  0.00  0.00    +0.000 A 
ATOM      7  C   UNL     1       1.215   6.338   0.435  0.00  0.00    +0.000 A 
ATOM      8  C   UNL     1       0.968   4.952   0.491  0.00  0.00    +0.000 A 
ATOM      9  S   UNL     1       0.431   3.940  -0.793  0.00  0.00    +0.000 S 
ENDROOT
BRANCH   1  15
ATOM     10  C   UNL     1       2.159  -0.123  -0.034  0.00  0.00    +0.000 C 
ATOM     11  C   UNL     1       0.825  -0.007   0.028  0.00  0.00    +0.000 C 
ATOM     12  C   UNL     1      -0.094  -1.111   0.476  0.00  0.00    +0.000 C 
ATOM     13  C   UNL     1      -1.444  -0.677  -0.074  0.00  0.00    +0.000 C 
ATOM     14  C   UNL     1      -1.406   0.841   0.038  0.00  0.00    +0.000 C 
ATOM     15  C   UNL     1       0.022   1.215  -0.390  0.00  0.00    +0.000 C 
ENDBRANCH   1  15
TORSDOF 1
