MODEL 1
REMARK VINA RESULT:      -4.1      0.000      0.000
REMARK  Name = *****
REMARK  4 active torsions:
REMARK  status: ('A' for Active; 'I' for Inactive)
REMARK    1  A    between atoms: C_2  and  C_3
REMARK    2  A    between atoms: C_2  and  C_9
REMARK    3  A    between atoms: C_9  and  S_11
REMARK    4  A    between atoms: S_11  and  C_12
REMARK                            x       y       z     vdW  Elec       q    Type
REMARK                         _______ _______ _______ _____ _____    ______ ____
ROOT
ATOM      1  C   UNL     1      89.320  68.386  86.423  0.00  0.00    +0.000 C 
ATOM      2  O   UNL     1      90.418  67.849  86.507  0.00  0.00    +0.000 OA
ENDROOT
BRANCH   1   4
ATOM      3  C   UNL     1      89.799  70.752  85.662  0.00  0.00    +0.000 C 
ATOM      4  C   UNL     1      89.162  69.889  86.476  0.00  0.00    +0.000 C 
BRANCH   4   5
ATOM      5  C   UNL     1      88.218  70.474  87.456  0.00  0.00    +0.000 A 
ATOM      6  C   UNL     1      88.538  70.502  88.820  0.00  0.00    +0.000 A 
ATOM      7  C   UNL     1      87.644  71.043  89.747  0.00  0.00    +0.000 A 
ATOM      8  C   UNL     1      86.424  71.561  89.320  0.00  0.00    +0.000 A 
ATOM      9  C   UNL     1      86.094  71.542  87.966  0.00  0.00    +0.000 A 
ATOM     10  C   UNL     1      86.987  71.001  87.037  0.00  0.00    +0.000 A 
ENDBRANCH   4   5
ENDBRANCH   1   4
BRANCH   1  11
ATOM     11  S   UNL     1      87.854  67.430  86.209  0.00  0.00    +0.000 S 
BRANCH  11  12
ATOM     12  C   UNL     1      87.508  66.959  87.941  0.00  0.00    +0.000 C 
ATOM     13  C   UNL     1      87.439  65.428  88.029  0.00  0.00    +0.000 C 
ATOM     14  C   UNL     1      87.088  64.969  89.445  0.00  0.00    +0.000 C 
ATOM     15  C   UNL     1      85.793  65.607  89.938  0.00  0.00    +0.000 C 
ATOM     16  C   UNL     1      85.841  67.128  89.835  0.00  0.00    +0.000 C 
ATOM     17  C   UNL     1      86.192  67.588  88.420  0.00  0.00    +0.000 C 
ENDBRANCH  11  12
ENDBRANCH   1  11
TORSDOF 4
ENDMDL
