MODEL 1
REMARK VINA RESULT:      -4.3      0.000      0.000
REMARK  Name = *****
REMARK  3 active torsions:
REMARK  status: ('A' for Active; 'I' for Inactive)
REMARK    1  A    between atoms: C_4  and  C_7
REMARK    2  A    between atoms: C_7  and  P_8
REMARK    3  A    between atoms: P_8  and  C_9
REMARK                            x       y       z     vdW  Elec       q    Type
REMARK                         _______ _______ _______ _____ _____    ______ ____
ROOT
ATOM      1  P   UNL     1      88.764  70.449  86.574  0.00  0.00    +0.000 P 
ATOM      2 BR   UNL     1      90.159  70.746  84.910  0.00  0.00    +0.000 Br
ENDROOT
BRANCH   1   3
ATOM      3  C   UNL     1      88.844  68.630  86.713  0.00  0.00    +0.000 A 
ATOM      4  C   UNL     1      87.840  67.857  87.315  0.00  0.00    +0.000 A 
ATOM      5  C   UNL     1      87.961  66.467  87.402  0.00  0.00    +0.000 A 
ATOM      6  C   UNL     1      89.088  65.831  86.886  0.00  0.00    +0.000 A 
ATOM      7  C   UNL     1      90.092  66.582  86.283  0.00  0.00    +0.000 A 
ATOM      8  C   UNL     1      89.971  67.971  86.197  0.00  0.00    +0.000 A 
ENDBRANCH   1   3
BRANCH   1   9
ATOM      9  C   UNL     1      87.153  70.692  85.734  0.00  0.00    +0.000 C 
BRANCH   9  13
ATOM     10  C   UNL     1      84.573  72.367  88.769  0.00  0.00    +0.000 A 
ATOM     11  C   UNL     1      84.225  72.468  87.424  0.00  0.00    +0.000 A 
ATOM     12  C   UNL     1      85.059  71.930  86.442  0.00  0.00    +0.000 A 
ATOM     13  C   UNL     1      86.260  71.290  86.792  0.00  0.00    +0.000 A 
ATOM     14  C   UNL     1      86.591  71.188  88.154  0.00  0.00    +0.000 A 
ATOM     15  C   UNL     1      85.755  71.726  89.134  0.00  0.00    +0.000 A 
ENDBRANCH   9  13
ENDBRANCH   1   9
TORSDOF 3
ENDMDL
