REMARK  Name = *****
REMARK  1 active torsions:
REMARK  status: ('A' for Active; 'I' for Inactive)
REMARK    1  A    between atoms: C_6  and  C_7
REMARK                            x       y       z     vdW  Elec       q    Type
REMARK                         _______ _______ _______ _____ _____    ______ ____
ROOT
ATOM      1  C   UNL     1       4.084   0.607   0.463  0.00  0.00    +0.000 A 
ATOM      2  N   UNL     1       4.855   1.354   1.234  0.00  0.00    +0.000 NA
ATOM      3  C   UNL     1       6.107   1.201   0.695  0.00  0.00    +0.000 A 
ATOM      4  C   UNL     1       6.045   0.354  -0.399  0.00  0.00    +0.000 A 
ATOM      5  O   UNL     1       4.747  -0.033  -0.556  0.00  0.00    +0.000 OA
ATOM      6  C   UNL     1       7.134  -0.016  -1.179  0.00  0.00    +0.000 A 
ATOM      7  C   UNL     1       8.365   0.531  -0.794  0.00  0.00    +0.000 A 
ATOM      8  C   UNL     1       8.463   1.391   0.309  0.00  0.00    +0.000 A 
ATOM      9  C   UNL     1       7.342   1.742   1.072  0.00  0.00    +0.000 A 
ATOM     10 CL   UNL     1      10.003   2.034   0.737  0.00  0.00    +0.000 Cl
ENDROOT
BRANCH   1  16
ATOM     11  C   UNL     1       1.965  -0.463  -0.344  0.00  0.00    +0.000 A 
ATOM     12  C   UNL     1       0.584  -0.661  -0.233  0.00  0.00    +0.000 A 
ATOM     13  C   UNL     1      -0.131  -0.019   0.775  0.00  0.00    +0.000 A 
ATOM     14  C   UNL     1       0.523   0.820   1.674  0.00  0.00    +0.000 A 
ATOM     15  C   UNL     1       1.903   1.017   1.562  0.00  0.00    +0.000 A 
ATOM     16  C   UNL     1       2.643   0.379   0.552  0.00  0.00    +0.000 A 
ATOM     17 CL   UNL     1      -1.828  -0.263   0.911  0.00  0.00    +0.000 Cl
ENDBRANCH   1  16
TORSDOF 1
