MODEL 1
REMARK VINA RESULT:      -4.6      0.000      0.000
REMARK  Name = *****
REMARK  6 active torsions:
REMARK  status: ('A' for Active; 'I' for Inactive)
REMARK    1  A    between atoms: C_1  and  C_2
REMARK    2  A    between atoms: C_2  and  C_3
REMARK    3  A    between atoms: C_4  and  C_16
REMARK    4  A    between atoms: C_6  and  C_8
REMARK    5  A    between atoms: C_8  and  C_9
REMARK    6  A    between atoms: C_9  and  C_10
REMARK                            x       y       z     vdW  Elec       q    Type
REMARK                         _______ _______ _______ _____ _____    ______ ____
ROOT
ATOM      1  C   UNL     1     104.461 123.359  81.353  0.00  0.00    +0.000 C 
ATOM      2  C   UNL     1     104.215 123.458  82.674  0.00  0.00    +0.000 C 
ATOM      3  C   UNL     1     103.627 124.811  82.980  0.00  0.00    +0.000 C 
ATOM      4  C   UNL     1     103.590 125.458  81.619  0.00  0.00    +0.000 C 
ATOM      5  C   UNL     1     104.077 124.600  80.708  0.00  0.00    +0.000 C 
ATOM      6  C   UNL     1     104.434 122.470  83.760  0.00  0.00    +0.000 C 
ENDROOT
BRANCH   1   8
ATOM      7  C   UNL     1     106.584 122.285  80.572  0.00  0.00    +0.000 C 
ATOM      8  C   UNL     1     105.063 122.231  80.577  0.00  0.00    +0.000 C 
ENDBRANCH   1   8
BRANCH   4   9
ATOM      9  C   UNL     1     103.066 126.851  81.460  0.00  0.00    +0.000 C 
BRANCH   9  10
ATOM     10  C   UNL     1     102.672 127.554  82.766  0.00  0.00    +0.000 C 
BRANCH  10  11
ATOM     11  C   UNL     1     101.174 127.687  82.896  0.00  0.00    +0.000 A 
ATOM     12  C   UNL     1     100.613 128.791  83.552  0.00  0.00    +0.000 A 
ATOM     13  C   UNL     1      99.229 128.904  83.689  0.00  0.00    +0.000 A 
ATOM     14  C   UNL     1      98.394 127.914  83.176  0.00  0.00    +0.000 A 
ATOM     15  C   UNL     1      98.941 126.808  82.528  0.00  0.00    +0.000 A 
ATOM     16  C   UNL     1     100.325 126.694  82.391  0.00  0.00    +0.000 A 
ENDBRANCH  10  11
ENDBRANCH   9  10
ENDBRANCH   4   9
TORSDOF 4
ENDMDL
