MODEL 1
REMARK VINA RESULT:      -3.4      0.000      0.000
REMARK  Name = *****
REMARK  5 active torsions:
REMARK  status: ('A' for Active; 'I' for Inactive)
REMARK    1  A    between atoms: C_1  and  C_2
REMARK    2  A    between atoms: C_3  and  S_7
REMARK    3  A    between atoms: S_7  and  S_8
REMARK    4  A    between atoms: S_8  and  C_9
REMARK    5  A    between atoms: C_10  and  C_14
REMARK                            x       y       z     vdW  Elec       q    Type
REMARK                         _______ _______ _______ _____ _____    ______ ____
ROOT
ATOM      1  S   UNL     1     102.297 128.191  83.428  0.00  0.00    +0.000 S 
ENDROOT
BRANCH   1   4
ATOM      2  C   UNL     1      99.406 130.143  83.821  0.00  0.00    +0.000 C 
ATOM      3  C   UNL     1      99.544 128.770  83.294  0.00  0.00    +0.000 A 
ATOM      4  C   UNL     1     100.608 127.917  83.095  0.00  0.00    +0.000 A 
ATOM      5  C   UNL     1     100.077 126.720  82.560  0.00  0.00    +0.000 A 
ATOM      6  C   UNL     1      98.721 126.922  82.452  0.00  0.00    +0.000 A 
ATOM      7  O   UNL     1      98.388 128.164  82.892  0.00  0.00    +0.000 OA
ENDBRANCH   1   4
BRANCH   1   8
ATOM      8  S   UNL     1     103.235 127.444  81.758  0.00  0.00    +0.000 S 
BRANCH   8   9
ATOM      9  C   UNL     1     103.702 125.826  82.275  0.00  0.00    +0.000 A 
ATOM     10  C   UNL     1     104.219 124.841  81.456  0.00  0.00    +0.000 A 
ATOM     11  S   UNL     1     104.556 123.413  82.347  0.00  0.00    +0.000 S 
ATOM     12  C   UNL     1     103.998 124.108  83.805  0.00  0.00    +0.000 A 
ATOM     13  C   UNL     1     103.566 125.403  83.628  0.00  0.00    +0.000 A 
ATOM     14  C   UNL     1     104.508 124.885  79.993  0.00  0.00    +0.000 C 
ENDBRANCH   8   9
ENDBRANCH   1   8
TORSDOF 3
ENDMDL
