MODEL 1
REMARK VINA RESULT:      -3.9      0.000      0.000
REMARK  Name = *****
REMARK  3 active torsions:
REMARK  status: ('A' for Active; 'I' for Inactive)
REMARK    1  A    between atoms: C_2  and  C_3
REMARK    2  A    between atoms: C_6  and  C_8
REMARK    3  A    between atoms: C_9  and  C_10
REMARK                            x       y       z     vdW  Elec       q    Type
REMARK                         _______ _______ _______ _____ _____    ______ ____
ROOT
ATOM      1  C   UNL     1      99.930 128.648  83.610  0.00  0.00    +0.000 A 
ATOM      2  C   UNL     1      99.140 127.686  83.020  0.00  0.00    +0.000 A 
ATOM      3  C   UNL     1      99.915 126.686  82.358  0.00  0.00    +0.000 A 
ATOM      4  C   UNL     1     101.268 126.923  82.471  0.00  0.00    +0.000 A 
ATOM      5  S   UNL     1     101.592 128.341  83.366  0.00  0.00    +0.000 S 
ENDROOT
BRANCH   1   7
ATOM      6  C   UNL     1      99.028 130.716  84.957  0.00  0.00    +0.000 C 
ATOM      7  C   UNL     1      99.440 129.770  84.341  0.00  0.00    +0.000 C 
ENDBRANCH   1   7
BRANCH   4   8
ATOM      8  C   UNL     1     102.291 126.099  81.915  0.00  0.00    +0.000 C 
ATOM      9  C   UNL     1     103.152 125.408  81.444  0.00  0.00    +0.000 C 
BRANCH   9  10
ATOM     10  C   UNL     1     104.175 124.593  80.878  0.00  0.00    +0.000 A 
ATOM     11  C   UNL     1     104.421 123.280  81.224  0.00  0.00    +0.000 A 
ATOM     12  C   UNL     1     105.509 122.724  80.488  0.00  0.00    +0.000 A 
ATOM     13  C   UNL     1     106.053 123.632  79.608  0.00  0.00    +0.000 A 
ATOM     14  S   UNL     1     105.254 125.144  79.673  0.00  0.00    +0.000 S 
ENDBRANCH   9  10
ENDBRANCH   4   8
TORSDOF 3
ENDMDL
