MODEL 1
REMARK VINA RESULT:      -4.6      0.000      0.000
REMARK  Name = *****
REMARK  2 active torsions:
REMARK  status: ('A' for Active; 'I' for Inactive)
REMARK    1  A    between atoms: C_4  and  N_7
REMARK    2  A    between atoms: N_7  and  P_8
REMARK                            x       y       z     vdW  Elec       q    Type
REMARK                         _______ _______ _______ _____ _____    ______ ____
ROOT
ATOM      1  P   UNL     1      87.146  63.366  86.413  0.00  0.00    +0.000 P 
ATOM      2  O   UNL     1      87.465  64.915  86.851  0.00  0.00    +0.000 OA
ATOM      3  C   UNL     1      88.702  65.286  86.397  0.00  0.00    +0.000 A 
ATOM      4  C   UNL     1      89.282  66.526  86.552  0.00  0.00    +0.000 A 
ATOM      5  C   UNL     1      90.565  66.710  86.025  0.00  0.00    +0.000 A 
ATOM      6  C   UNL     1      91.228  65.657  85.364  0.00  0.00    +0.000 A 
ATOM      7  C   UNL     1      90.621  64.407  85.221  0.00  0.00    +0.000 A 
ATOM      8  C   UNL     1      89.355  64.249  85.746  0.00  0.00    +0.000 A 
ATOM      9  O   UNL     1      88.608  63.105  85.711  0.00  0.00    +0.000 OA
ENDROOT
BRANCH   1  10
ATOM     10  N   UNL     1      87.457  62.656  87.864  0.00  0.00    +0.000 N 
ATOM     11  H   UNL     1      87.507  61.673  87.838  0.00  0.00    +0.000 HD
BRANCH  10  15
ATOM     12  C   UNL     1      87.983  64.235  91.756  0.00  0.00    +0.000 A 
ATOM     13  C   UNL     1      86.714  63.926  91.276  0.00  0.00    +0.000 A 
ATOM     14  C   UNL     1      86.560  63.416  89.984  0.00  0.00    +0.000 A 
ATOM     15  C   UNL     1      87.666  63.223  89.141  0.00  0.00    +0.000 A 
ATOM     16  C   UNL     1      88.937  63.516  89.652  0.00  0.00    +0.000 A 
ATOM     17  C   UNL     1      89.096  64.027  90.945  0.00  0.00    +0.000 A 
ENDBRANCH  10  15
ENDBRANCH   1  10
TORSDOF 2
ENDMDL
