MODEL 1
REMARK VINA RESULT:      -4.4      0.000      0.000
REMARK  Name = *****
REMARK  3 active torsions:
REMARK  status: ('A' for Active; 'I' for Inactive)
REMARK    1  A    between atoms: C_4  and  C_7
REMARK    2  A    between atoms: C_8  and  C_9
REMARK    3  A    between atoms: C_12  and  C_14
REMARK                            x       y       z     vdW  Elec       q    Type
REMARK                         _______ _______ _______ _____ _____    ______ ____
ROOT
ATOM      1  C   UNL     1     102.129 126.146  82.113  0.00  0.00    +0.000 C 
ATOM      2  C   UNL     1     102.991 125.405  81.726  0.00  0.00    +0.000 C 
ENDROOT
BRANCH   1   6
ATOM      3  C   UNL     1      99.099 128.753  83.475  0.00  0.00    +0.000 A 
ATOM      4  C   UNL     1     100.438 129.058  83.713  0.00  0.00    +0.000 A 
ATOM      5  C   UNL     1     101.441 128.197  83.263  0.00  0.00    +0.000 A 
ATOM      6  C   UNL     1     101.103 127.029  82.575  0.00  0.00    +0.000 A 
ATOM      7  C   UNL     1      99.760 126.725  82.339  0.00  0.00    +0.000 A 
ATOM      8  C   UNL     1      98.759 127.588  82.788  0.00  0.00    +0.000 A 
ENDBRANCH   1   6
BRANCH   2   9
ATOM      9  C   UNL     1     104.015 124.529  81.264  0.00  0.00    +0.000 A 
ATOM     10  C   UNL     1     104.650 124.630  80.045  0.00  0.00    +0.000 A 
ATOM     11  C   UNL     1     105.631 123.611  79.863  0.00  0.00    +0.000 A 
ATOM     12  C   UNL     1     105.709 122.768  80.953  0.00  0.00    +0.000 A 
ATOM     13  S   UNL     1     104.604 123.209  82.177  0.00  0.00    +0.000 S 
BRANCH  12  14
ATOM     14  C   UNL     1     106.576 121.628  81.141  0.00  0.00    +0.000 C 
ATOM     15  O   UNL     1     107.532 121.352  80.418  0.00  0.00    +0.000 OA
ENDBRANCH  12  14
ENDBRANCH   2   9
TORSDOF 3
ENDMDL
