MODEL 1
REMARK VINA RESULT:      -4.5      0.000      0.000
REMARK  Name = *****
REMARK  2 active torsions:
REMARK  status: ('A' for Active; 'I' for Inactive)
REMARK    1  A    between atoms: C_4  and  C_9
REMARK    2  A    between atoms: C_10  and  C_11
REMARK                            x       y       z     vdW  Elec       q    Type
REMARK                         _______ _______ _______ _____ _____    ______ ____
ROOT
ATOM      1  C   UNL     1     106.563 126.068  81.289  0.00  0.00    +0.000 C 
ATOM      2  C   UNL     1     105.610 126.213  80.103  0.00  0.00    +0.000 C 
ATOM      3  C   UNL     1     104.586 125.089  79.955  0.00  0.00    +0.000 C 
ATOM      4  C   UNL     1     103.635 124.850  81.133  0.00  0.00    +0.000 C 
ATOM      5  C   UNL     1     104.388 124.263  82.322  0.00  0.00    +0.000 C 
ATOM      6  O   UNL     1     104.341 123.048  82.544  0.00  0.00    +0.000 OA
ATOM      7  C   UNL     1     105.176 125.161  83.253  0.00  0.00    +0.000 C 
ATOM      8  C   UNL     1     105.900 126.348  82.634  0.00  0.00    +0.000 C 
ENDROOT
BRANCH   4   9
ATOM      9  C   UNL     1     102.764 126.021  81.514  0.00  0.00    +0.000 C 
ATOM     10  C   UNL     1     101.658 125.901  82.269  0.00  0.00    +0.000 C 
BRANCH  10  11
ATOM     11  C   UNL     1     100.808 127.035  82.655  0.00  0.00    +0.000 A 
ATOM     12  C   UNL     1      99.422 127.029  82.449  0.00  0.00    +0.000 A 
ATOM     13  C   UNL     1      98.640 128.113  82.855  0.00  0.00    +0.000 A 
ATOM     14  C   UNL     1      99.234 129.208  83.478  0.00  0.00    +0.000 A 
ATOM     15  C   UNL     1     100.610 129.217  83.702  0.00  0.00    +0.000 A 
ATOM     16  C   UNL     1     101.392 128.132  83.297  0.00  0.00    +0.000 A 
ENDBRANCH  10  11
ENDBRANCH   4   9
TORSDOF 2
ENDMDL
