MODEL 1
REMARK VINA RESULT:      -4.6      0.000      0.000
REMARK  Name = *****
REMARK  2 active torsions:
REMARK  status: ('A' for Active; 'I' for Inactive)
REMARK    1  A    between atoms: C_5  and  C_7
REMARK    2  A    between atoms: C_7  and  N_8
REMARK                            x       y       z     vdW  Elec       q    Type
REMARK                         _______ _______ _______ _____ _____    ______ ____
ROOT
ATOM      1  N   UNL     1      88.637  65.260  86.769  0.00  0.00    +0.000 N 
ATOM      2  C   UNL     1      88.651  66.668  86.886  0.00  0.00    +0.000 A 
ATOM      3  C   UNL     1      87.749  67.460  87.585  0.00  0.00    +0.000 A 
ATOM      4  C   UNL     1      87.931  68.847  87.583  0.00  0.00    +0.000 A 
ATOM      5  C   UNL     1      89.004  69.427  86.892  0.00  0.00    +0.000 A 
ATOM      6  C   UNL     1      89.908  68.627  86.193  0.00  0.00    +0.000 A 
ATOM      7  C   UNL     1      89.717  67.253  86.201  0.00  0.00    +0.000 A 
ATOM      8  S   UNL     1      90.710  66.026  85.407  0.00  0.00    +0.000 S 
ATOM      9  C   UNL     1      89.668  64.727  86.010  0.00  0.00    +0.000 A 
ATOM     10  O   UNL     1      89.864  63.549  85.753  0.00  0.00    +0.000 OA
ENDROOT
BRANCH   1  11
ATOM     11  C   UNL     1      87.631  64.412  87.382  0.00  0.00    +0.000 C 
BRANCH  11  16
ATOM     12  C   UNL     1      89.094  63.836  90.864  0.00  0.00    +0.000 A 
ATOM     13  C   UNL     1      88.044  64.209  91.697  0.00  0.00    +0.000 A 
ATOM     14  C   UNL     1      86.849  64.660  91.140  0.00  0.00    +0.000 A 
ATOM     15  C   UNL     1      86.695  64.730  89.751  0.00  0.00    +0.000 A 
ATOM     16  C   UNL     1      87.735  64.334  88.892  0.00  0.00    +0.000 A 
ATOM     17  C   UNL     1      88.944  63.905  89.477  0.00  0.00    +0.000 A 
ATOM     18 CL   UNL     1      85.187  65.334  89.160  0.00  0.00    +0.000 Cl
ENDBRANCH  11  16
ENDBRANCH   1  11
TORSDOF 2
ENDMDL
