MODEL 1
REMARK VINA RESULT:      -4.7      0.000      0.000
REMARK  Name = *****
REMARK  4 active torsions:
REMARK  status: ('A' for Active; 'I' for Inactive)
REMARK    1  A    between atoms: C_1  and  C_2
REMARK    2  A    between atoms: C_8  and  O_9
REMARK    3  A    between atoms: O_9  and  C_10
REMARK    4  A    between atoms: C_10  and  C_11
REMARK                            x       y       z     vdW  Elec       q    Type
REMARK                         _______ _______ _______ _____ _____    ______ ____
ROOT
ATOM      1  C   UNL     1     106.149 123.905  79.520  0.00  0.00    +0.000 C 
ATOM      2  C   UNL     1     104.805 123.471  80.112  0.00  0.00    +0.000 C 
ATOM      3  C   UNL     1     104.936 122.107  80.755  0.00  0.00    +0.000 C 
ATOM      4  C   UNL     1     104.788 121.878  82.069  0.00  0.00    +0.000 C 
ATOM      5  C   UNL     1     104.506 122.974  83.058  0.00  0.00    +0.000 C 
ATOM      6  C   UNL     1     104.786 124.376  82.503  0.00  0.00    +0.000 C 
ATOM      7  C   UNL     1     104.279 124.513  81.086  0.00  0.00    +0.000 C 
ATOM      8  C   UNL     1     103.396 125.450  80.709  0.00  0.00    +0.000 C 
ENDROOT
BRANCH   8   9
ATOM      9  O   UNL     1     102.876 126.375  81.575  0.00  0.00    +0.000 OA
BRANCH   9  10
ATOM     10  C   UNL     1     101.729 125.885  82.278  0.00  0.00    +0.000 C 
BRANCH  10  11
ATOM     11  C   UNL     1     100.823 127.032  82.657  0.00  0.00    +0.000 A 
ATOM     12  C   UNL     1      99.440 126.966  82.431  0.00  0.00    +0.000 A 
ATOM     13  C   UNL     1      98.604 128.015  82.820  0.00  0.00    +0.000 A 
ATOM     14  C   UNL     1      99.139 129.136  83.451  0.00  0.00    +0.000 A 
ATOM     15  C   UNL     1     100.509 129.208  83.695  0.00  0.00    +0.000 A 
ATOM     16  C   UNL     1     101.346 128.161  83.305  0.00  0.00    +0.000 A 
ENDBRANCH  10  11
ENDBRANCH   9  10
ENDBRANCH   8   9
TORSDOF 3
ENDMDL
