REMARK  Name = *****
REMARK  4 active torsions:
REMARK  status: ('A' for Active; 'I' for Inactive)
REMARK    1  A    between atoms: C_1  and  C_2
REMARK    2  A    between atoms: C_5  and  O_8
REMARK    3  A    between atoms: O_8  and  C_9
REMARK    4  A    between atoms: C_9  and  C_11
REMARK                            x       y       z     vdW  Elec       q    Type
REMARK                         _______ _______ _______ _____ _____    ______ ____
ROOT
ATOM      1  C   UNL     1      -3.917   1.093  -0.501  0.00  0.00    +0.000 C 
ATOM      2  O   UNL     1      -3.426   2.038  -1.099  0.00  0.00    +0.000 OA
ENDROOT
BRANCH   1   3
ATOM      3  C   UNL     1      -5.387   0.909  -0.346  0.00  0.00    +0.000 A 
ATOM      4  C   UNL     1      -5.945  -0.192   0.315  0.00  0.00    +0.000 A 
ATOM      5  C   UNL     1      -7.328  -0.297   0.420  0.00  0.00    +0.000 A 
ATOM      6  C   UNL     1      -8.170   0.670  -0.118  0.00  0.00    +0.000 A 
ATOM      7  C   UNL     1      -7.623   1.768  -0.777  0.00  0.00    +0.000 A 
ATOM      8  C   UNL     1      -6.235   1.888  -0.891  0.00  0.00    +0.000 A 
ATOM      9  F   UNL     1      -7.858  -1.352   1.051  0.00  0.00    +0.000 F 
ENDBRANCH   1   3
BRANCH   1  10
ATOM     10  O   UNL     1      -3.250   0.053   0.121  0.00  0.00    +0.000 OA
BRANCH  10  15
ATOM     11  C   UNL     1       2.439  -0.051   0.118  0.00  0.00    +0.000 C 
ATOM     12  C   UNL     1       0.940   0.005   0.088  0.00  0.00    +0.000 A 
ATOM     13  C   UNL     1       0.264   1.118   0.608  0.00  0.00    +0.000 A 
ATOM     14  C   UNL     1      -1.132   1.161   0.612  0.00  0.00    +0.000 A 
ATOM     15  C   UNL     1      -1.849   0.090   0.085  0.00  0.00    +0.000 A 
ATOM     16  C   UNL     1      -1.196  -1.039  -0.403  0.00  0.00    +0.000 A 
ATOM     17  C   UNL     1       0.199  -1.079  -0.403  0.00  0.00    +0.000 A 
ENDBRANCH  10  15
ENDBRANCH   1  10
TORSDOF 3
