MODEL 1
REMARK VINA RESULT:      -4.5      0.000      0.000
REMARK  Name = *****
REMARK  5 active torsions:
REMARK  status: ('A' for Active; 'I' for Inactive)
REMARK    1  A    between atoms: C_1  and  C_2
REMARK    2  A    between atoms: C_4  and  C_8
REMARK    3  A    between atoms: C_5  and  C_7
REMARK    4  A    between atoms: C_8  and  C_9
REMARK    5  A    between atoms: C_10  and  C_11
REMARK                            x       y       z     vdW  Elec       q    Type
REMARK                         _______ _______ _______ _____ _____    ______ ____
ROOT
ATOM      1  C   UNL     1      88.796  70.293  88.268  0.00  0.00    +0.000 C 
ENDROOT
BRANCH   1   5
ATOM      2  C   UNL     1      90.775  70.903  83.557  0.00  0.00    +0.000 C 
ATOM      3  C   UNL     1      90.138  70.268  84.744  0.00  0.00    +0.000 A 
ATOM      4  C   UNL     1      89.838  70.834  85.962  0.00  0.00    +0.000 A 
ATOM      5  C   UNL     1      89.222  69.913  86.877  0.00  0.00    +0.000 A 
ATOM      6  C   UNL     1      89.082  68.662  86.295  0.00  0.00    +0.000 A 
ATOM      7  S   UNL     1      89.677  68.627  84.688  0.00  0.00    +0.000 S 
ATOM      8  C   UNL     1      88.505  67.408  86.866  0.00  0.00    +0.000 C 
ENDBRANCH   1   5
BRANCH   1   9
ATOM      9  C   UNL     1      87.478  71.014  88.270  0.00  0.00    +0.000 C 
ATOM     10  C   UNL     1      86.645  71.058  87.220  0.00  0.00    +0.000 C 
BRANCH  10  11
ATOM     11  C   UNL     1      85.382  71.794  87.279  0.00  0.00    +0.000 A 
ATOM     12  C   UNL     1      84.806  72.089  88.519  0.00  0.00    +0.000 A 
ATOM     13  C   UNL     1      83.595  72.782  88.584  0.00  0.00    +0.000 A 
ATOM     14  C   UNL     1      82.959  73.183  87.410  0.00  0.00    +0.000 A 
ATOM     15  C   UNL     1      83.528  72.890  86.171  0.00  0.00    +0.000 A 
ATOM     16  C   UNL     1      84.737  72.194  86.105  0.00  0.00    +0.000 A 
ENDBRANCH  10  11
ENDBRANCH   1   9
TORSDOF 3
ENDMDL
