REMARK  Name = *****
REMARK  6 active torsions:
REMARK  status: ('A' for Active; 'I' for Inactive)
REMARK    1  A    between atoms: C_1  and  C_2
REMARK    2  A    between atoms: C_5  and  C_8
REMARK    3  A    between atoms: C_8  and  C_16
REMARK    4  A    between atoms: C_9  and  C_10
REMARK    5  A    between atoms: C_16  and  O_18
REMARK    6  A    between atoms: O_18  and  C_19
REMARK                            x       y       z     vdW  Elec       q    Type
REMARK                         _______ _______ _______ _____ _____    ______ ____
ROOT
ATOM      1  C   UNL     1      -3.180   0.133  -0.233  0.00  0.00    +0.000 C 
ATOM      2  C   UNL     1      -4.036  -0.874   0.037  0.00  0.00    +0.000 C 
ENDROOT
BRANCH   1   7
ATOM      3  C   UNL     1       2.545  -0.662   0.233  0.00  0.00    +0.000 C 
ATOM      4  C   UNL     1       1.061  -0.488   0.104  0.00  0.00    +0.000 A 
ATOM      5  C   UNL     1       0.503  -0.024  -1.092  0.00  0.00    +0.000 A 
ATOM      6  C   UNL     1      -0.876   0.173  -1.203  0.00  0.00    +0.000 A 
ATOM      7  C   UNL     1      -1.724  -0.084  -0.119  0.00  0.00    +0.000 A 
ATOM      8  C   UNL     1      -1.159  -0.530   1.085  0.00  0.00    +0.000 A 
ATOM      9  C   UNL     1       0.221  -0.726   1.196  0.00  0.00    +0.000 A 
ENDBRANCH   1   7
BRANCH   2  10
ATOM     10  C   UNL     1      -5.497  -0.819  -0.091  0.00  0.00    +0.000 A 
ATOM     11  C   UNL     1      -6.110  -0.609  -1.332  0.00  0.00    +0.000 A 
ATOM     12  C   UNL     1      -7.502  -0.571  -1.433  0.00  0.00    +0.000 A 
ATOM     13  C   UNL     1      -8.289  -0.751  -0.296  0.00  0.00    +0.000 A 
ATOM     14  C   UNL     1      -7.686  -0.970   0.941  0.00  0.00    +0.000 A 
ATOM     15  C   UNL     1      -6.294  -1.008   1.044  0.00  0.00    +0.000 A 
ENDBRANCH   2  10
BRANCH   1  16
ATOM     16  C   UNL     1      -3.693   1.449  -0.698  0.00  0.00    +0.000 C 
ATOM     17  O   UNL     1      -3.518   1.899  -1.821  0.00  0.00    +0.000 OA
BRANCH  16  18
ATOM     18  O   UNL     1      -4.338   2.063   0.328  0.00  0.00    +0.000 OA
ATOM     19  C   UNL     1      -4.890   3.331  -0.020  0.00  0.00    +0.000 C 
ENDBRANCH  16  18
ENDBRANCH   1  16
TORSDOF 4
