MODEL 1
REMARK VINA RESULT:      -4.5      0.000      0.000
REMARK  Name = *****
REMARK  5 active torsions:
REMARK  status: ('A' for Active; 'I' for Inactive)
REMARK    1  A    between atoms: C_4  and  C_7
REMARK    2  A    between atoms: C_7  and  C_8
REMARK    3  A    between atoms: C_7  and  O_11
REMARK    4  A    between atoms: C_8  and  C_9
REMARK    5  A    between atoms: O_11  and  C_12
REMARK                            x       y       z     vdW  Elec       q    Type
REMARK                         _______ _______ _______ _____ _____    ______ ____
ROOT
ATOM      1  C   UNL     1     103.028 126.165  81.791  0.00  0.00    +0.000 C 
ENDROOT
BRANCH   1   5
ATOM      2  C   UNL     1     105.073 122.336  81.760  0.00  0.00    +0.000 A 
ATOM      3  C   UNL     1     104.902 123.057  80.580  0.00  0.00    +0.000 A 
ATOM      4  C   UNL     1     104.247 124.289  80.602  0.00  0.00    +0.000 A 
ATOM      5  C   UNL     1     103.754 124.821  81.806  0.00  0.00    +0.000 A 
ATOM      6  C   UNL     1     103.936 124.082  82.985  0.00  0.00    +0.000 A 
ATOM      7  C   UNL     1     104.589 122.849  82.962  0.00  0.00    +0.000 A 
ENDBRANCH   1   5
BRANCH   1   8
ATOM      8  C   UNL     1     103.221 126.886  80.445  0.00  0.00    +0.000 C 
BRANCH   8   9
ATOM      9  C   UNL     1     104.193 128.059  80.526  0.00  0.00    +0.000 C 
ATOM     10 CL   UNL     1     104.691 128.323  82.219  0.00  0.00    +0.000 Cl
ENDBRANCH   8   9
ENDBRANCH   1   8
BRANCH   1  11
ATOM     11  O   UNL     1     101.634 125.963  82.056  0.00  0.00    +0.000 OA
BRANCH  11  12
ATOM     12  C   UNL     1     100.886 126.981  82.573  0.00  0.00    +0.000 A 
ATOM     13  C   UNL     1     101.358 128.087  83.281  0.00  0.00    +0.000 A 
ATOM     14  C   UNL     1     100.465 129.058  83.745  0.00  0.00    +0.000 A 
ATOM     15  C   UNL     1      99.098 128.932  83.503  0.00  0.00    +0.000 A 
ATOM     16  C   UNL     1      98.621 127.833  82.794  0.00  0.00    +0.000 A 
ATOM     17  C   UNL     1      99.514 126.864  82.331  0.00  0.00    +0.000 A 
ENDBRANCH  11  12
ENDBRANCH   1  11
TORSDOF 5
ENDMDL
