REMARK  Name = *****
REMARK  5 active torsions:
REMARK  status: ('A' for Active; 'I' for Inactive)
REMARK    1  A    between atoms: C_1  and  C_2
REMARK    2  A    between atoms: C_5  and  C_8
REMARK    3  A    between atoms: C_8  and  C_9
REMARK    4  A    between atoms: C_8  and  C_10
REMARK    5  A    between atoms: C_10  and  C_11
REMARK                            x       y       z     vdW  Elec       q    Type
REMARK                         _______ _______ _______ _____ _____    ______ ____
ROOT
ATOM      1  C   UNL     1      -3.527   0.409   0.218  0.00  0.00    +0.000 C 
ATOM      2  C   UNL     1      -4.856  -0.156   0.739  0.00  0.00    +0.000 C 
ENDROOT
BRANCH   1   7
ATOM      3  C   UNL     1       1.078  -1.612   3.200  0.00  0.00    +0.000 C 
ATOM      4  C   UNL     1      -0.121  -1.123   2.445  0.00  0.00    +0.000 A 
ATOM      5  C   UNL     1      -0.168  -1.214   1.050  0.00  0.00    +0.000 A 
ATOM      6  C   UNL     1      -1.272  -0.727   0.344  0.00  0.00    +0.000 A 
ATOM      7  C   UNL     1      -2.348  -0.130   1.016  0.00  0.00    +0.000 A 
ATOM      8  C   UNL     1      -2.285  -0.021   2.412  0.00  0.00    +0.000 A 
ATOM      9  C   UNL     1      -1.182  -0.510   3.118  0.00  0.00    +0.000 A 
ENDBRANCH   1   7
BRANCH   1  10
ATOM     10  C   UNL     1      -3.571   1.953   0.204  0.00  0.00    +0.000 C 
BRANCH  10  11
ATOM     11  C   UNL     1      -2.490   2.574  -0.652  0.00  0.00    +0.000 A 
ATOM     12  C   UNL     1      -2.684   2.738  -2.031  0.00  0.00    +0.000 A 
ATOM     13  C   UNL     1      -1.681   3.295  -2.826  0.00  0.00    +0.000 A 
ATOM     14  C   UNL     1      -0.473   3.687  -2.252  0.00  0.00    +0.000 A 
ATOM     15  C   UNL     1      -0.267   3.523  -0.883  0.00  0.00    +0.000 A 
ATOM     16  C   UNL     1      -1.270   2.968  -0.087  0.00  0.00    +0.000 A 
ENDBRANCH  10  11
ENDBRANCH   1  10
TORSDOF 3
