MODEL 1
REMARK VINA RESULT:      -3.2      0.000      0.000
REMARK  Name = *****
REMARK  2 active torsions:
REMARK  status: ('A' for Active; 'I' for Inactive)
REMARK    1  A    between atoms: C_1  and  C_7
REMARK    2  A    between atoms: C_7  and  C_8
REMARK                            x       y       z     vdW  Elec       q    Type
REMARK                         _______ _______ _______ _____ _____    ______ ____
ROOT
ATOM      1  C   UNL     1     101.221 126.492  82.350  0.00  0.00    +0.000 C 
ENDROOT
BRANCH   1   2
ATOM      2  C   UNL     1     100.116 126.767  83.396  0.00  0.00    +0.000 C 
ATOM      3  S   UNL     1     100.642 127.909  84.708  0.00  0.00    +0.000 S 
ATOM      4  C   UNL     1      99.229 127.751  85.834  0.00  0.00    +0.000 C 
ATOM      5  C   UNL     1      97.911 128.163  85.193  0.00  0.00    +0.000 C 
ATOM      6  C   UNL     1      97.464 127.241  84.068  0.00  0.00    +0.000 C 
ATOM      7  S   UNL     1      98.556 127.302  82.623  0.00  0.00    +0.000 S 
ENDBRANCH   1   2
BRANCH   1   8
ATOM      8  C   UNL     1     102.701 126.638  82.757  0.00  0.00    +0.000 C 
ATOM      9  S   UNL     1     103.642 128.022  82.037  0.00  0.00    +0.000 S 
ATOM     10  C   UNL     1     103.652 127.537  80.290  0.00  0.00    +0.000 C 
ATOM     11  C   UNL     1     104.367 126.215  80.055  0.00  0.00    +0.000 C 
ATOM     12  C   UNL     1     103.663 125.014  80.671  0.00  0.00    +0.000 C 
ATOM     13  S   UNL     1     103.612 125.064  82.484  0.00  0.00    +0.000 S 
ENDBRANCH   1   8
TORSDOF 2
ENDMDL
