MODEL 1
REMARK VINA RESULT:      -4.7      0.000      0.000
REMARK  Name = *****
REMARK  3 active torsions:
REMARK  status: ('A' for Active; 'I' for Inactive)
REMARK    1  A    between atoms: C_1  and  C_2
REMARK    2  A    between atoms: C_2  and  C_11
REMARK    3  A    between atoms: C_4  and  C_5
REMARK                            x       y       z     vdW  Elec       q    Type
REMARK                         _______ _______ _______ _____ _____    ______ ____
ROOT
ATOM      1  C   UNL     1      95.465 117.603  79.225  0.00  0.00    +0.000 C 
ATOM      2  C   UNL     1      96.818 117.053  79.619  0.00  0.00    +0.000 C 
ATOM      3  C   UNL     1      97.737 116.637  78.489  0.00  0.00    +0.000 C 
ATOM      4  C   UNL     1      97.156 115.573  79.383  0.00  0.00    +0.000 C 
ENDROOT
BRANCH   4   5
ATOM      5  C   UNL     1      96.123 114.597  78.870  0.00  0.00    +0.000 A 
ATOM      6  C   UNL     1      95.916 114.391  77.496  0.00  0.00    +0.000 A 
ATOM      7  C   UNL     1      94.972 113.472  77.028  0.00  0.00    +0.000 A 
ATOM      8  C   UNL     1      94.219 112.728  77.932  0.00  0.00    +0.000 A 
ATOM      9  C   UNL     1      94.413 112.900  79.299  0.00  0.00    +0.000 A 
ATOM     10  C   UNL     1      95.359 113.821  79.759  0.00  0.00    +0.000 A 
ENDBRANCH   4   5
BRANCH   2  11
ATOM     11  C   UNL     1      97.424 117.721  80.849  0.00  0.00    +0.000 A 
ATOM     12  C   UNL     1      97.158 117.241  82.143  0.00  0.00    +0.000 A 
ATOM     13  C   UNL     1      97.700 117.856  83.275  0.00  0.00    +0.000 A 
ATOM     14  C   UNL     1      98.519 118.973  83.135  0.00  0.00    +0.000 A 
ATOM     15  C   UNL     1      98.792 119.474  81.865  0.00  0.00    +0.000 A 
ATOM     16  C   UNL     1      98.247 118.854  80.738  0.00  0.00    +0.000 A 
ENDBRANCH   2  11
TORSDOF 2
ENDMDL
