MODEL 1
REMARK VINA RESULT:      -4.4      0.000      0.000
REMARK  Name = *****
REMARK  2 active torsions:
REMARK  status: ('A' for Active; 'I' for Inactive)
REMARK    1  A    between atoms: C_4  and  C_6
REMARK    2  A    between atoms: C_7  and  C_8
REMARK                            x       y       z     vdW  Elec       q    Type
REMARK                         _______ _______ _______ _____ _____    ______ ____
ROOT
ATOM      1  C   UNL     1     103.219 126.230  82.135  0.00  0.00    +0.000 C 
ATOM      2  C   UNL     1     101.918 125.965  82.339  0.00  0.00    +0.000 C 
ENDROOT
BRANCH   2   3
ATOM      3  C   UNL     1     100.909 126.986  82.654  0.00  0.00    +0.000 A 
ATOM      4  C   UNL     1      99.549 126.806  82.368  0.00  0.00    +0.000 A 
ATOM      5  C   UNL     1      98.615 127.786  82.712  0.00  0.00    +0.000 A 
ATOM      6  C   UNL     1      99.029 128.952  83.354  0.00  0.00    +0.000 A 
ATOM      7  C   UNL     1     100.376 129.135  83.658  0.00  0.00    +0.000 A 
ATOM      8  C   UNL     1     101.310 128.154  83.315  0.00  0.00    +0.000 A 
ENDBRANCH   2   3
BRANCH   1  12
ATOM      9  C   UNL     1     104.798 122.821  81.892  0.00  0.00    +0.000 C 
ATOM     10  C   UNL     1     104.915 123.328  80.454  0.00  0.00    +0.000 C 
ATOM     11  C   UNL     1     104.114 124.624  80.404  0.00  0.00    +0.000 C 
ATOM     12  C   UNL     1     104.240 125.175  81.823  0.00  0.00    +0.000 C 
ATOM     13  C   UNL     1     104.077 123.916  82.676  0.00  0.00    +0.000 C 
ENDBRANCH   1  12
TORSDOF 2
ENDMDL
