MODEL 1
REMARK VINA RESULT:      -4.6      0.000      0.000
REMARK  Name = *****
REMARK  4 active torsions:
REMARK  status: ('A' for Active; 'I' for Inactive)
REMARK    1  A    between atoms: C_1  and  O_2
REMARK    2  A    between atoms: O_2  and  C_3
REMARK    3  A    between atoms: C_6  and  C_9
REMARK    4  A    between atoms: C_10  and  C_11
REMARK                            x       y       z     vdW  Elec       q    Type
REMARK                         _______ _______ _______ _____ _____    ______ ____
ROOT
ATOM      1  C   UNL     1     102.591 125.590  81.590  0.00  0.00    +0.000 C 
ATOM      2  C   UNL     1     102.492 126.868  81.992  0.00  0.00    +0.000 C 
ENDROOT
BRANCH   2   3
ATOM      3  C   UNL     1     101.317 127.454  82.655  0.00  0.00    +0.000 C 
ATOM      4  C   UNL     1      99.968 126.834  82.384  0.00  0.00    +0.000 C 
ATOM      5  C   UNL     1     100.647 126.657  83.751  0.00  0.00    +0.000 C 
ATOM      6  C   UNL     1      99.524 127.170  84.633  0.00  0.00    +0.000 C 
ATOM      7  C   UNL     1      98.482 126.298  84.735  0.00  0.00    +0.000 C 
ATOM      8  C   UNL     1      97.695 126.487  83.432  0.00  0.00    +0.000 C 
ATOM      9  C   UNL     1      98.618 127.519  82.717  0.00  0.00    +0.000 C 
ATOM     10  C   UNL     1      98.945 128.399  83.922  0.00  0.00    +0.000 C 
ENDBRANCH   2   3
BRANCH   1  14
ATOM     11  C   UNL     1     106.107 124.016  79.709  0.00  0.00    +0.000 A 
ATOM     12  C   UNL     1     105.645 125.295  79.403  0.00  0.00    +0.000 A 
ATOM     13  C   UNL     1     104.491 125.794  80.021  0.00  0.00    +0.000 A 
ATOM     14  C   UNL     1     103.778 125.018  80.942  0.00  0.00    +0.000 A 
ATOM     15  C   UNL     1     104.256 123.742  81.257  0.00  0.00    +0.000 A 
ATOM     16  C   UNL     1     105.408 123.246  80.641  0.00  0.00    +0.000 A 
BRANCH  11  18
ATOM     17  C   UNL     1     107.959 122.568  80.052  0.00  0.00    +0.000 C 
ATOM     18  O   UNL     1     107.215 123.411  79.182  0.00  0.00    +0.000 OA
ENDBRANCH  11  18
ENDBRANCH   1  14
TORSDOF 3
ENDMDL
