MODEL 1
REMARK VINA RESULT:      -4.0      0.000      0.000
REMARK  Name = *****
REMARK  5 active torsions:
REMARK  status: ('A' for Active; 'I' for Inactive)
REMARK    1  A    between atoms: C_1  and  O_2
REMARK    2  A    between atoms: O_2  and  C_3
REMARK    3  A    between atoms: C_6  and  C_9
REMARK    4  A    between atoms: C_9  and  S_10
REMARK    5  A    between atoms: S_10  and  C_11
REMARK                            x       y       z     vdW  Elec       q    Type
REMARK                         _______ _______ _______ _____ _____    ______ ____
ROOT
ATOM      1  C   UNL     1     105.264 123.101  80.793  0.00  0.00    +0.000 A 
ATOM      2  C   UNL     1     105.227 124.076  79.797  0.00  0.00    +0.000 A 
ATOM      3  C   UNL     1     104.501 125.256  79.994  0.00  0.00    +0.000 A 
ATOM      4  C   UNL     1     103.805 125.481  81.191  0.00  0.00    +0.000 A 
ATOM      5  C   UNL     1     103.841 124.493  82.183  0.00  0.00    +0.000 A 
ATOM      6  C   UNL     1     104.568 123.317  81.984  0.00  0.00    +0.000 A 
ENDROOT
BRANCH   1   8
ATOM      7  C   UNL     1     107.349 121.974  80.608  0.00  0.00    +0.000 C 
ATOM      8  O   UNL     1     105.933 121.909  80.729  0.00  0.00    +0.000 OA
ENDBRANCH   1   8
BRANCH   4   9
ATOM      9  C   UNL     1     103.016 126.749  81.397  0.00  0.00    +0.000 C 
BRANCH   9  10
ATOM     10  S   UNL     1     103.054 127.279  83.137  0.00  0.00    +0.000 S 
BRANCH  10  11
ATOM     11  C   UNL     1     101.255 127.338  83.478  0.00  0.00    +0.000 C 
ATOM     12  C   UNL     1     100.463 126.634  82.370  0.00  0.00    +0.000 C 
ATOM     13  C   UNL     1      98.955 126.762  82.596  0.00  0.00    +0.000 C 
ATOM     14  C   UNL     1      98.528 128.219  82.746  0.00  0.00    +0.000 C 
ATOM     15  C   UNL     1      99.321 128.926  83.841  0.00  0.00    +0.000 C 
ATOM     16  C   UNL     1     100.827 128.805  83.612  0.00  0.00    +0.000 C 
ENDBRANCH  10  11
ENDBRANCH   9  10
ENDBRANCH   4   9
TORSDOF 4
ENDMDL
