MODEL 1
REMARK VINA RESULT:      -4.5      0.000      0.000
REMARK  Name = *****
REMARK  3 active torsions:
REMARK  status: ('A' for Active; 'I' for Inactive)
REMARK    1  A    between atoms: C_1  and  C_2
REMARK    2  A    between atoms: C_5  and  C_7
REMARK    3  A    between atoms: N_8  and  C_9
REMARK                            x       y       z     vdW  Elec       q    Type
REMARK                         _______ _______ _______ _____ _____    ______ ____
ROOT
ATOM      1  C   UNL     1     101.218 126.876  82.452  0.00  0.00    +0.000 A 
ATOM      2  C   UNL     1      99.815 126.901  82.437  0.00  0.00    +0.000 A 
ATOM      3  C   UNL     1      99.113 127.921  83.069  0.00  0.00    +0.000 A 
ATOM      4  C   UNL     1      99.804 128.923  83.737  0.00  0.00    +0.000 A 
ATOM      5  C   UNL     1     101.194 128.915  83.781  0.00  0.00    +0.000 A 
ATOM      6  C   UNL     1     101.897 127.889  83.144  0.00  0.00    +0.000 A 
ATOM      7  F   UNL     1      99.135 129.910  84.347  0.00  0.00    +0.000 F 
ATOM      8  F   UNL     1      97.773 127.937  83.033  0.00  0.00    +0.000 F 
ATOM      9  F   UNL     1      99.134 125.936  81.796  0.00  0.00    +0.000 F 
ENDROOT
BRANCH   1  11
ATOM     10  C   UNL     1     103.047 125.455  82.498  0.00  0.00    +0.000 C 
ATOM     11  N   UNL     1     101.988 125.854  81.866  0.00  0.00    +0.000 NA
BRANCH  10  16
ATOM     12  C   UNL     1     106.118 121.198  81.945  0.00  0.00    +0.000 C 
ATOM     13  C   UNL     1     105.317 122.426  81.684  0.00  0.00    +0.000 A 
ATOM     14  C   UNL     1     105.109 123.079  80.487  0.00  0.00    +0.000 A 
ATOM     15  C   UNL     1     104.281 124.229  80.637  0.00  0.00    +0.000 A 
ATOM     16  C   UNL     1     103.882 124.418  81.944  0.00  0.00    +0.000 A 
ATOM     17  S   UNL     1     104.509 123.208  82.975  0.00  0.00    +0.000 S 
ENDBRANCH  10  16
ENDBRANCH   1  11
TORSDOF 2
ENDMDL
