MODEL 1
REMARK VINA RESULT:      -3.3      0.000      0.000
REMARK  Name = *****
REMARK  4 active torsions:
REMARK  status: ('A' for Active; 'I' for Inactive)
REMARK    1  A    between atoms: C_1  and  C_2
REMARK    2  A    between atoms: C_3  and  S_7
REMARK    3  A    between atoms: S_7  and  S_8
REMARK    4  A    between atoms: S_8  and  C_9
REMARK                            x       y       z     vdW  Elec       q    Type
REMARK                         _______ _______ _______ _____ _____    ______ ____
ROOT
ATOM      1  S   UNL     1     103.484 127.588  82.529  0.00  0.00    +0.000 S 
ENDROOT
BRANCH   1   4
ATOM      2  C   UNL     1     101.616 129.738  84.308  0.00  0.00    +0.000 C 
ATOM      3  C   UNL     1     101.076 128.555  83.575  0.00  0.00    +0.000 A 
ATOM      4  C   UNL     1     101.748 127.614  82.820  0.00  0.00    +0.000 A 
ATOM      5  C   UNL     1     100.880 126.628  82.270  0.00  0.00    +0.000 A 
ATOM      6  C   UNL     1      99.569 126.839  82.632  0.00  0.00    +0.000 A 
ATOM      7  S   UNL     1      99.393 128.221  83.623  0.00  0.00    +0.000 S 
ENDBRANCH   1   4
BRANCH   1   8
ATOM      8  S   UNL     1     103.588 127.309  80.494  0.00  0.00    +0.000 S 
BRANCH   8   9
ATOM      9  C   UNL     1     104.371 125.744  80.335  0.00  0.00    +0.000 A 
ATOM     10  C   UNL     1     105.488 125.486  79.573  0.00  0.00    +0.000 A 
ATOM     11  S   UNL     1     105.956 123.841  79.662  0.00  0.00    +0.000 S 
ATOM     12  C   UNL     1     104.675 123.478  80.737  0.00  0.00    +0.000 A 
ATOM     13  C   UNL     1     103.904 124.586  81.018  0.00  0.00    +0.000 A 
ENDBRANCH   8   9
ENDBRANCH   1   8
TORSDOF 3
ENDMDL
