MODEL 1
REMARK VINA RESULT:      -4.5      0.000      0.000
REMARK  Name = *****
REMARK  2 active torsions:
REMARK  status: ('A' for Active; 'I' for Inactive)
REMARK    1  A    between atoms: C_4  and  S_7
REMARK    2  A    between atoms: S_7  and  C_8
REMARK                            x       y       z     vdW  Elec       q    Type
REMARK                         _______ _______ _______ _____ _____    ______ ____
ROOT
ATOM      1  C   UNL     1     103.509 127.065  82.043  0.00  0.00    +0.000 A 
ATOM      2  N   UNL     1     103.602 127.765  80.909  0.00  0.00    +0.000 NA
ATOM      3  O   UNL     1     104.078 126.866  79.964  0.00  0.00    +0.000 OA
ATOM      4  C   UNL     1     104.250 125.647  80.545  0.00  0.00    +0.000 A 
ATOM      5  C   UNL     1     104.708 124.494  79.911  0.00  0.00    +0.000 A 
ATOM      6  C   UNL     1     104.804 123.347  80.707  0.00  0.00    +0.000 A 
ATOM      7  C   UNL     1     104.457 123.374  82.060  0.00  0.00    +0.000 A 
ATOM      8  C   UNL     1     104.001 124.553  82.668  0.00  0.00    +0.000 A 
ATOM      9  C   UNL     1     103.898 125.716  81.882  0.00  0.00    +0.000 A 
ENDROOT
BRANCH   1  10
ATOM     10  S   UNL     1     102.941 127.812  83.519  0.00  0.00    +0.000 S 
BRANCH  10  14
ATOM     11  C   UNL     1      98.420 127.905  82.762  0.00  0.00    +0.000 A 
ATOM     12  C   UNL     1      99.044 129.003  83.354  0.00  0.00    +0.000 A 
ATOM     13  C   UNL     1     100.420 128.981  83.589  0.00  0.00    +0.000 A 
ATOM     14  C   UNL     1     101.180 127.859  83.240  0.00  0.00    +0.000 A 
ATOM     15  C   UNL     1     100.549 126.766  82.636  0.00  0.00    +0.000 A 
ATOM     16  C   UNL     1      99.172 126.788  82.402  0.00  0.00    +0.000 A 
ENDBRANCH  10  14
ENDBRANCH   1  10
TORSDOF 2
ENDMDL
