REMARK  Name = *****
REMARK  5 active torsions:
REMARK  status: ('A' for Active; 'I' for Inactive)
REMARK    1  A    between atoms: C_1  and  C_2
REMARK    2  A    between atoms: C_2  and  O_3
REMARK    3  A    between atoms: O_3  and  C_4
REMARK    4  A    between atoms: C_4  and  C_12
REMARK    5  A    between atoms: N_5  and  C_6
REMARK                            x       y       z     vdW  Elec       q    Type
REMARK                         _______ _______ _______ _____ _____    ______ ____
ROOT
ATOM      1  C   UNL     1       4.867   1.113   1.471  0.00  0.00    +0.000 C 
ATOM      2  N   UNL     1       5.778   0.370   0.947  0.00  0.00    +0.000 NA
ENDROOT
BRANCH   2   3
ATOM      3  C   UNL     1       5.406  -0.469  -0.196  0.00  0.00    +0.000 C 
ATOM      4  C   UNL     1       6.318  -1.702  -0.184  0.00  0.00    +0.000 C 
ATOM      5  C   UNL     1       6.096  -2.578  -1.415  0.00  0.00    +0.000 C 
ATOM      6  C   UNL     1       6.262  -1.783  -2.706  0.00  0.00    +0.000 C 
ATOM      7  C   UNL     1       5.370  -0.545  -2.725  0.00  0.00    +0.000 C 
ATOM      8  C   UNL     1       5.593   0.328  -1.493  0.00  0.00    +0.000 C 
ENDBRANCH   2   3
BRANCH   1   9
ATOM      9  C   UNL     1       5.171   1.969   2.638  0.00  0.00    +0.000 A 
ATOM     10  C   UNL     1       4.357   1.935   3.776  0.00  0.00    +0.000 A 
ATOM     11  C   UNL     1       4.669   2.739   4.873  0.00  0.00    +0.000 A 
ATOM     12  C   UNL     1       5.796   3.562   4.838  0.00  0.00    +0.000 A 
ATOM     13  C   UNL     1       6.620   3.577   3.711  0.00  0.00    +0.000 A 
ATOM     14  C   UNL     1       6.313   2.775   2.611  0.00  0.00    +0.000 A 
ENDBRANCH   1   9
BRANCH   1  15
ATOM     15  O   UNL     1       3.595   1.139   1.003  0.00  0.00    +0.000 OA
BRANCH  15  17
ATOM     16  C   UNL     1       1.922   2.352  -0.199  0.00  0.00    +0.000 C 
ATOM     17  C   UNL     1       2.853   2.375   0.999  0.00  0.00    +0.000 C 
ENDBRANCH  15  17
ENDBRANCH   1  15
TORSDOF 4
