MODEL 1
REMARK VINA RESULT:      -4.9      0.000      0.000
REMARK  Name = *****
REMARK  3 active torsions:
REMARK  status: ('A' for Active; 'I' for Inactive)
REMARK    1  A    between atoms: C_1  and  C_2
REMARK    2  A    between atoms: C_4  and  C_17
REMARK    3  A    between atoms: C_9  and  C_11
REMARK                            x       y       z     vdW  Elec       q    Type
REMARK                         _______ _______ _______ _____ _____    ______ ____
ROOT
ATOM      1  C   UNL     1     106.243 123.927  79.053  0.00  0.00    +0.000 C 
ATOM      2  C   UNL     1     105.259 124.242  80.145  0.00  0.00    +0.000 A 
ATOM      3  C   UNL     1     105.267 123.489  81.335  0.00  0.00    +0.000 A 
ATOM      4  C   UNL     1     104.387 123.760  82.408  0.00  0.00    +0.000 A 
ATOM      5  C   UNL     1     103.497 124.834  82.242  0.00  0.00    +0.000 A 
ATOM      6  C   UNL     1     103.525 125.565  81.066  0.00  0.00    +0.000 A 
ATOM      7  C   UNL     1     104.377 125.323  79.997  0.00  0.00    +0.000 A 
ATOM      8  O   UNL     1     102.581 126.544  81.157  0.00  0.00    +0.000 OA
ATOM      9  C   UNL     1     102.021 126.354  82.396  0.00  0.00    +0.000 A 
ATOM     10  N   UNL     1     102.536 125.348  83.079  0.00  0.00    +0.000 NA
ATOM     11  C   UNL     1     104.439 122.915  83.646  0.00  0.00    +0.000 C 
ENDROOT
BRANCH   9  12
ATOM     12  C   UNL     1     100.955 127.276  82.783  0.00  0.00    +0.000 A 
ATOM     13  C   UNL     1      99.606 127.017  82.494  0.00  0.00    +0.000 A 
ATOM     14  C   UNL     1      98.607 127.916  82.877  0.00  0.00    +0.000 A 
ATOM     15  C   UNL     1      98.944 129.087  83.553  0.00  0.00    +0.000 A 
ATOM     16  C   UNL     1     100.278 129.359  83.848  0.00  0.00    +0.000 A 
ATOM     17  C   UNL     1     101.275 128.460  83.465  0.00  0.00    +0.000 A 
ENDBRANCH   9  12
TORSDOF 1
ENDMDL
