REMARK  Name = *****
REMARK  4 active torsions:
REMARK  status: ('A' for Active; 'I' for Inactive)
REMARK    1  A    between atoms: C_1  and  C_2
REMARK    2  A    between atoms: C_2  and  C_4
REMARK    3  A    between atoms: C_7  and  C_9
REMARK    4  A    between atoms: C_10  and  C_11
REMARK                            x       y       z     vdW  Elec       q    Type
REMARK                         _______ _______ _______ _____ _____    ______ ____
ROOT
ATOM      1  C   UNL     1       3.209  -0.876   0.920  0.00  0.00    +0.000 A 
ATOM      2  C   UNL     1       2.817  -2.148   1.283  0.00  0.00    +0.000 A 
ATOM      3  C   UNL     1       3.735  -2.765   2.185  0.00  0.00    +0.000 A 
ATOM      4  C   UNL     1       4.817  -1.960   2.499  0.00  0.00    +0.000 A 
ATOM      5  S   UNL     1       4.685  -0.451   1.675  0.00  0.00    +0.000 S 
ENDROOT
BRANCH   1   7
ATOM      6  C   UNL     1       1.260  -0.360  -0.605  0.00  0.00    +0.000 C 
ATOM      7  C   UNL     1       2.559   0.081   0.031  0.00  0.00    +0.000 C 
ATOM      8  O   UNL     1       3.001   1.203  -0.223  0.00  0.00    +0.000 OA
ENDBRANCH   1   7
BRANCH   4   9
ATOM      9  C   UNL     1       5.946  -2.177   3.345  0.00  0.00    +0.000 C 
ATOM     10  C   UNL     1       6.122  -3.315   4.038  0.00  0.00    +0.000 C 
BRANCH  10  11
ATOM     11  C   UNL     1       7.279  -3.558   4.912  0.00  0.00    +0.000 A 
ATOM     12  C   UNL     1       7.792  -2.571   5.764  0.00  0.00    +0.000 A 
ATOM     13  C   UNL     1       8.874  -2.849   6.604  0.00  0.00    +0.000 A 
ATOM     14  C   UNL     1       9.446  -4.120   6.609  0.00  0.00    +0.000 A 
ATOM     15  C   UNL     1       8.934  -5.114   5.778  0.00  0.00    +0.000 A 
ATOM     16  C   UNL     1       7.853  -4.836   4.938  0.00  0.00    +0.000 A 
ENDBRANCH  10  11
ENDBRANCH   4   9
TORSDOF 3
