MODEL 1
REMARK VINA RESULT:      -4.5      0.000      0.000
REMARK  Name = *****
REMARK  5 active torsions:
REMARK  status: ('A' for Active; 'I' for Inactive)
REMARK    1  A    between atoms: C_1  and  C_2
REMARK    2  A    between atoms: C_2  and  O_4
REMARK    3  A    between atoms: O_4  and  C_5
REMARK    4  A    between atoms: C_5  and  C_13
REMARK    5  A    between atoms: N_6  and  C_7
REMARK                            x       y       z     vdW  Elec       q    Type
REMARK                         _______ _______ _______ _____ _____    ______ ____
ROOT
ATOM      1  C   UNL     1     102.585 126.056  82.086  0.00  0.00    +0.000 C 
ATOM      2  N   UNL     1     101.646 125.967  82.978  0.00  0.00    +0.000 NA
ENDROOT
BRANCH   2   3
ATOM      3  C   UNL     1     100.771 127.052  83.128  0.00  0.00    +0.000 A 
ATOM      4  C   UNL     1      99.515 127.041  82.516  0.00  0.00    +0.000 A 
ATOM      5  C   UNL     1      98.644 128.122  82.672  0.00  0.00    +0.000 A 
ATOM      6  C   UNL     1      99.023 129.214  83.452  0.00  0.00    +0.000 A 
ATOM      7  C   UNL     1     100.268 129.223  84.081  0.00  0.00    +0.000 A 
ATOM      8  C   UNL     1     101.136 128.141  83.922  0.00  0.00    +0.000 A 
ENDBRANCH   2   3
BRANCH   1   9
ATOM      9  C   UNL     1     103.548 124.958  81.818  0.00  0.00    +0.000 A 
ATOM     10  C   UNL     1     104.015 124.193  82.894  0.00  0.00    +0.000 A 
ATOM     11  C   UNL     1     104.917 123.151  82.674  0.00  0.00    +0.000 A 
ATOM     12  C   UNL     1     105.350 122.863  81.381  0.00  0.00    +0.000 A 
ATOM     13  C   UNL     1     104.881 123.615  80.304  0.00  0.00    +0.000 A 
ATOM     14  C   UNL     1     103.980 124.661  80.518  0.00  0.00    +0.000 A 
ENDBRANCH   1   9
BRANCH   1  15
ATOM     15  O   UNL     1     102.744 127.120  81.263  0.00  0.00    +0.000 OA
BRANCH  15  17
ATOM     16  C   UNL     1     104.438 128.385  80.271  0.00  0.00    +0.000 C 
ATOM     17  C   UNL     1     103.843 127.872  81.547  0.00  0.00    +0.000 C 
ATOM     18  O   UNL     1     104.305 128.102  82.657  0.00  0.00    +0.000 OA
ENDBRANCH  15  17
ENDBRANCH   1  15
TORSDOF 4
ENDMDL
