MODEL 1
REMARK VINA RESULT:      -4.9      0.000      0.000
REMARK  Name = *****
REMARK  4 active torsions:
REMARK  status: ('A' for Active; 'I' for Inactive)
REMARK    1  A    between atoms: C_1  and  C_2
REMARK    2  A    between atoms: C_3  and  C_16
REMARK    3  A    between atoms: C_5  and  C_7
REMARK    4  A    between atoms: C_8  and  C_9
REMARK                            x       y       z     vdW  Elec       q    Type
REMARK                         _______ _______ _______ _____ _____    ______ ____
ROOT
ATOM      1  C   UNL     1     102.879 126.191  81.001  0.00  0.00    +0.000 C 
ATOM      2  C   UNL     1     102.155 126.026  82.120  0.00  0.00    +0.000 C 
ENDROOT
BRANCH   2   3
ATOM      3  C   UNL     1     101.125 126.981  82.556  0.00  0.00    +0.000 A 
ATOM      4  C   UNL     1      99.770 126.690  82.324  0.00  0.00    +0.000 A 
ATOM      5  C   UNL     1      98.766 127.565  82.748  0.00  0.00    +0.000 A 
ATOM      6  C   UNL     1      99.100 128.739  83.417  0.00  0.00    +0.000 A 
ATOM      7  C   UNL     1     100.439 129.038  83.666  0.00  0.00    +0.000 A 
ATOM      8  C   UNL     1     101.447 128.165  83.243  0.00  0.00    +0.000 A 
ATOM      9 CL   UNL     1     103.084 128.612  83.583  0.00  0.00    +0.000 Cl
ENDBRANCH   2   3
BRANCH   1  14
ATOM     10  C   UNL     1     106.584 124.427  78.436  0.00  0.00    +0.000 C 
ATOM     11  C   UNL     1     105.548 124.412  79.484  0.00  0.00    +0.000 A 
ATOM     12  C   UNL     1     105.148 123.512  80.444  0.00  0.00    +0.000 A 
ATOM     13  N   UNL     1     104.100 124.058  81.157  0.00  0.00    +0.000 NA
ATOM     14  C   UNL     1     103.872 125.249  80.617  0.00  0.00    +0.000 A 
ATOM     15  O   UNL     1     104.747 125.510  79.578  0.00  0.00    +0.000 OA
BRANCH  12  16
ATOM     16  C   UNL     1     105.687 122.175  80.777  0.00  0.00    +0.000 C 
ATOM     17 CL   UNL     1     104.355 121.037  81.081  0.00  0.00    +0.000 Cl
ENDBRANCH  12  16
ENDBRANCH   1  14
TORSDOF 3
ENDMDL
