REMARK  Name = *****
REMARK  5 active torsions:
REMARK  status: ('A' for Active; 'I' for Inactive)
REMARK    1  A    between atoms: C_1  and  C_2
REMARK    2  A    between atoms: C_2  and  C_13
REMARK    3  A    between atoms: N_3  and  O_4
REMARK    4  A    between atoms: O_4  and  C_5
REMARK    5  A    between atoms: C_5  and  C_6
REMARK                            x       y       z     vdW  Elec       q    Type
REMARK                         _______ _______ _______ _____ _____    ______ ____
ROOT
ATOM      1  O   UNL     1       4.692   0.023   1.250  0.00  0.00    +0.000 OA
ENDROOT
BRANCH   1   4
ATOM      2  C   UNL     1       1.155   0.572   0.489  0.00  0.00    +0.000 C 
ATOM      3  C   UNL     1       2.670   0.611   0.421  0.00  0.00    +0.000 C 
ATOM      4  N   UNL     1       3.295  -0.072   1.338  0.00  0.00    +0.000 NA
BRANCH   3   5
ATOM      5  C   UNL     1       3.291   1.403  -0.635  0.00  0.00    +0.000 A 
ATOM      6  C   UNL     1       4.438   1.146  -1.366  0.00  0.00    +0.000 A 
ATOM      7  C   UNL     1       4.737   2.174  -2.308  0.00  0.00    +0.000 A 
ATOM      8  C   UNL     1       3.807   3.187  -2.274  0.00  0.00    +0.000 A 
ATOM      9  S   UNL     1       2.582   2.891  -1.123  0.00  0.00    +0.000 S 
ENDBRANCH   3   5
ENDBRANCH   1   4
BRANCH   1  10
ATOM     10  C   UNL     1       5.269  -0.489   2.451  0.00  0.00    +0.000 C 
BRANCH  10  11
ATOM     11  C   UNL     1       6.644  -1.030   2.149  0.00  0.00    +0.000 A 
ATOM     12  C   UNL     1       7.796  -0.351   2.572  0.00  0.00    +0.000 A 
ATOM     13  C   UNL     1       9.063  -0.876   2.304  0.00  0.00    +0.000 A 
ATOM     14  C   UNL     1       9.184  -2.077   1.608  0.00  0.00    +0.000 A 
ATOM     15  C   UNL     1       8.049  -2.756   1.170  0.00  0.00    +0.000 A 
ATOM     16  C   UNL     1       6.783  -2.232   1.438  0.00  0.00    +0.000 A 
ATOM     17 CL   UNL     1      10.745  -2.726   1.288  0.00  0.00    +0.000 Cl
ENDBRANCH  10  11
ENDBRANCH   1  10
TORSDOF 4
