REMARK  Name = *****
REMARK  4 active torsions:
REMARK  status: ('A' for Active; 'I' for Inactive)
REMARK    1  A    between atoms: C_4  and  C_7
REMARK    2  A    between atoms: C_7  and  C_8
REMARK    3  A    between atoms: C_8  and  C_9
REMARK    4  A    between atoms: C_8  and  C_15
REMARK                            x       y       z     vdW  Elec       q    Type
REMARK                         _______ _______ _______ _____ _____    ______ ____
ROOT
ATOM      1  C   UNL     1      -3.722  -0.676  -0.181  0.00  0.00    +0.000 C 
ENDROOT
BRANCH   1   2
ATOM      2  C   UNL     1      -2.564   0.326  -0.222  0.00  0.00    +0.000 A 
ATOM      3  C   UNL     1      -1.388   0.169   0.529  0.00  0.00    +0.000 A 
ATOM      4  C   UNL     1      -0.339   1.088   0.428  0.00  0.00    +0.000 A 
ATOM      5  C   UNL     1      -0.437   2.173  -0.436  0.00  0.00    +0.000 A 
ATOM      6  C   UNL     1      -1.583   2.338  -1.207  0.00  0.00    +0.000 A 
ATOM      7  C   UNL     1      -2.631   1.420  -1.107  0.00  0.00    +0.000 A 
ENDBRANCH   1   2
BRANCH   1   8
ATOM      8  C   UNL     1      -5.115  -0.031  -0.088  0.00  0.00    +0.000 C 
ATOM      9  O   UNL     1      -5.323   1.068   0.421  0.00  0.00    +0.000 OA
ATOM     10 CL   UNL     1      -6.356  -1.015  -0.834  0.00  0.00    +0.000 Cl
ENDBRANCH   1   8
BRANCH   1  11
ATOM     11  C   UNL     1      -3.621  -1.852   0.822  0.00  0.00    +0.000 C 
BRANCH  11  15
ATOM     12  C   UNL     1      -4.106  -1.387   5.103  0.00  0.00    +0.000 A 
ATOM     13  C   UNL     1      -3.976  -0.251   4.310  0.00  0.00    +0.000 A 
ATOM     14  C   UNL     1      -3.821  -0.369   2.925  0.00  0.00    +0.000 A 
ATOM     15  C   UNL     1      -3.800  -1.626   2.310  0.00  0.00    +0.000 A 
ATOM     16  C   UNL     1      -3.924  -2.764   3.129  0.00  0.00    +0.000 A 
ATOM     17  C   UNL     1      -4.078  -2.646   4.512  0.00  0.00    +0.000 A 
ENDBRANCH  11  15
ENDBRANCH   1  11
TORSDOF 4
