REMARK  Name = *****
REMARK  3 active torsions:
REMARK  status: ('A' for Active; 'I' for Inactive)
REMARK    1  A    between atoms: C_4  and  C_7
REMARK    2  A    between atoms: C_7  and  C_9
REMARK    3  A    between atoms: C_10  and  C_11
REMARK                            x       y       z     vdW  Elec       q    Type
REMARK                         _______ _______ _______ _____ _____    ______ ____
ROOT
ATOM      1  C   UNL     1      -2.540   0.830  -0.807  0.00  0.00    +0.000 C 
ATOM      2  O   UNL     1      -2.758   2.027  -0.946  0.00  0.00    +0.000 OA
ENDROOT
BRANCH   1   6
ATOM      3  C   UNL     1       1.278  -0.395   0.713  0.00  0.00    +0.000 A 
ATOM      4  C   UNL     1       0.183  -1.247   0.854  0.00  0.00    +0.000 A 
ATOM      5  C   UNL     1      -1.071  -0.866   0.369  0.00  0.00    +0.000 A 
ATOM      6  C   UNL     1      -1.228   0.372  -0.270  0.00  0.00    +0.000 A 
ATOM      7  C   UNL     1      -0.127   1.230  -0.392  0.00  0.00    +0.000 A 
ATOM      8  C   UNL     1       1.124   0.844   0.094  0.00  0.00    +0.000 A 
ENDBRANCH   1   6
BRANCH   1   9
ATOM      9  C   UNL     1      -3.500  -0.218  -1.251  0.00  0.00    +0.000 C 
ATOM     10  C   UNL     1      -4.837  -0.120  -1.331  0.00  0.00    +0.000 C 
BRANCH  10  11
ATOM     11  C   UNL     1      -5.712   0.942  -0.935  0.00  0.00    +0.000 A 
ATOM     12  C   UNL     1      -6.910   1.164  -1.585  0.00  0.00    +0.000 A 
ATOM     13  S   UNL     1      -7.795   2.464  -0.907  0.00  0.00    +0.000 S 
ATOM     14  C   UNL     1      -6.592   2.730   0.277  0.00  0.00    +0.000 A 
ATOM     15  C   UNL     1      -5.542   1.844   0.157  0.00  0.00    +0.000 A 
ENDBRANCH  10  11
ENDBRANCH   1   9
TORSDOF 3
