MODEL 1
REMARK VINA RESULT:      -4.2      0.000      0.000
REMARK  Name = *****
REMARK  3 active torsions:
REMARK  status: ('A' for Active; 'I' for Inactive)
REMARK    1  A    between atoms: C_5  and  S_7
REMARK    2  A    between atoms: S_7  and  C_8
REMARK    3  A    between atoms: C_8  and  C_10
REMARK                            x       y       z     vdW  Elec       q    Type
REMARK                         _______ _______ _______ _____ _____    ______ ____
ROOT
ATOM      1  C   UNL     1      87.352  70.514  88.174  0.00  0.00    +0.000 C 
ATOM      2  O   UNL     1      88.023  70.943  89.106  0.00  0.00    +0.000 OA
ENDROOT
BRANCH   1   3
ATOM      3  C   UNL     1      86.177  71.288  87.666  0.00  0.00    +0.000 A 
ATOM      4  C   UNL     1      85.943  71.554  86.309  0.00  0.00    +0.000 A 
ATOM      5  C   UNL     1      84.817  72.283  85.913  0.00  0.00    +0.000 A 
ATOM      6  C   UNL     1      83.916  72.754  86.865  0.00  0.00    +0.000 A 
ATOM      7  C   UNL     1      84.135  72.498  88.217  0.00  0.00    +0.000 A 
ATOM      8  C   UNL     1      85.259  71.770  88.614  0.00  0.00    +0.000 A 
ENDBRANCH   1   3
BRANCH   1   9
ATOM      9  S   UNL     1      87.747  68.985  87.399  0.00  0.00    +0.000 S 
BRANCH   9  14
ATOM     10  C   UNL     1      89.659  68.247  84.640  0.00  0.00    +0.000 C 
ATOM     11  C   UNL     1      90.054  69.592  84.029  0.00  0.00    +0.000 C 
ATOM     12  C   UNL     1      89.824  70.753  84.951  0.00  0.00    +0.000 C 
ATOM     13  C   UNL     1      89.560  70.614  86.259  0.00  0.00    +0.000 C 
ATOM     14  C   UNL     1      89.501  69.283  86.971  0.00  0.00    +0.000 C 
ATOM     15  C   UNL     1      90.085  68.149  86.107  0.00  0.00    +0.000 C 
ENDBRANCH   9  14
ENDBRANCH   1   9
TORSDOF 3
ENDMDL
