MODEL 1
REMARK VINA RESULT:      -5.0      0.000      0.000
REMARK  Name = *****
REMARK  6 active torsions:
REMARK  status: ('A' for Active; 'I' for Inactive)
REMARK    1  A    between atoms: C_1  and  C_2
REMARK    2  A    between atoms: C_7  and  C_8
REMARK    3  A    between atoms: C_9  and  C_10
REMARK    4  A    between atoms: C_13  and  N_16
REMARK    5  A    between atoms: N_16  and  C_17
REMARK    6  A    between atoms: N_16  and  C_18
REMARK                            x       y       z     vdW  Elec       q    Type
REMARK                         _______ _______ _______ _____ _____    ______ ____
ROOT
ATOM      1  C   UNL     1     101.933 126.215  82.321  0.00  0.00    +0.000 C 
ATOM      2  C   UNL     1     102.810 125.449  82.023  0.00  0.00    +0.000 C 
ENDROOT
BRANCH   1   9
ATOM      3  C   UNL     1     102.573 128.759  83.654  0.00  0.00    +0.000 C 
ATOM      4  C   UNL     1     101.166 128.350  83.315  0.00  0.00    +0.000 A 
ATOM      5  C   UNL     1     100.100 129.204  83.640  0.00  0.00    +0.000 A 
ATOM      6  C   UNL     1      98.783 128.849  83.338  0.00  0.00    +0.000 A 
ATOM      7  C   UNL     1      98.516 127.638  82.707  0.00  0.00    +0.000 A 
ATOM      8  C   UNL     1      99.565 126.779  82.377  0.00  0.00    +0.000 A 
ATOM      9  C   UNL     1     100.887 127.128  82.677  0.00  0.00    +0.000 A 
ENDBRANCH   1   9
BRANCH   2  10
ATOM     10  C   UNL     1     103.849 124.534  81.669  0.00  0.00    +0.000 A 
ATOM     11  C   UNL     1     104.358 123.648  82.611  0.00  0.00    +0.000 A 
ATOM     12  C   UNL     1     105.378 122.752  82.257  0.00  0.00    +0.000 A 
ATOM     13  C   UNL     1     105.916 122.698  80.958  0.00  0.00    +0.000 A 
ATOM     14  C   UNL     1     105.386 123.621  80.037  0.00  0.00    +0.000 A 
ATOM     15  C   UNL     1     104.368 124.523  80.380  0.00  0.00    +0.000 A 
BRANCH  13  16
ATOM     16  N   UNL     1     106.944 121.815  80.608  0.00  0.00    +0.000 N 
ATOM     17  C   UNL     1     107.101 120.586  81.386  0.00  0.00    +0.000 C 
ATOM     18  C   UNL     1     108.169 122.342  80.008  0.00  0.00    +0.000 C 
ENDBRANCH  13  16
ENDBRANCH   2  10
TORSDOF 3
ENDMDL
