MODEL 1
REMARK VINA RESULT:      -4.6      0.000      0.000
REMARK  Name = *****
REMARK  2 active torsions:
REMARK  status: ('A' for Active; 'I' for Inactive)
REMARK    1  A    between atoms: C_4  and  N_7
REMARK    2  A    between atoms: C_8  and  C_9
REMARK                            x       y       z     vdW  Elec       q    Type
REMARK                         _______ _______ _______ _____ _____    ______ ____
ROOT
ATOM      1  N   UNL     1     102.955 125.949  82.690  0.00  0.00    +0.000 NA
ATOM      2  C   UNL     1     101.708 126.029  82.345  0.00  0.00    +0.000 C 
ENDROOT
BRANCH   2   3
ATOM      3  C   UNL     1     100.860 127.158  82.761  0.00  0.00    +0.000 A 
ATOM      4  C   UNL     1     101.403 128.266  83.418  0.00  0.00    +0.000 A 
ATOM      5  C   UNL     1     100.571 129.322  83.800  0.00  0.00    +0.000 A 
ATOM      6  C   UNL     1      99.203 129.271  83.526  0.00  0.00    +0.000 A 
ATOM      7  C   UNL     1      98.662 128.164  82.871  0.00  0.00    +0.000 A 
ATOM      8  C   UNL     1      99.494 127.113  82.492  0.00  0.00    +0.000 A 
ATOM      9  F   UNL     1      98.955 126.058  81.862  0.00  0.00    +0.000 F 
ENDBRANCH   2   3
BRANCH   1  13
ATOM     10  C   UNL     1     105.056 122.582  81.313  0.00  0.00    +0.000 A 
ATOM     11  C   UNL     1     104.680 123.582  80.417  0.00  0.00    +0.000 A 
ATOM     12  C   UNL     1     103.981 124.701  80.875  0.00  0.00    +0.000 A 
ATOM     13  C   UNL     1     103.645 124.821  82.225  0.00  0.00    +0.000 A 
ATOM     14  C   UNL     1     104.039 123.822  83.119  0.00  0.00    +0.000 A 
ATOM     15  C   UNL     1     104.739 122.703  82.665  0.00  0.00    +0.000 A 
ENDBRANCH   1  13
TORSDOF 2
ENDMDL
