REMARK  Name = *****
REMARK  4 active torsions:
REMARK  status: ('A' for Active; 'I' for Inactive)
REMARK    1  A    between atoms: C_4  and  C_7
REMARK    2  A    between atoms: C_7  and  C_8
REMARK    3  A    between atoms: C_8  and  C_9
REMARK    4  A    between atoms: C_9  and  C_11
REMARK                            x       y       z     vdW  Elec       q    Type
REMARK                         _______ _______ _______ _____ _____    ______ ____
ROOT
ATOM      1  C   UNL     1      -5.141  -0.445  -0.053  0.00  0.00    +0.000 C 
ATOM      2  O   UNL     1      -5.588   0.683  -0.252  0.00  0.00    +0.000 OA
ENDROOT
BRANCH   1   3
ATOM      3  C   UNL     1      -6.093  -1.591   0.084  0.00  0.00    +0.000 A 
ATOM      4  C   UNL     1      -7.470  -1.325   0.023  0.00  0.00    +0.000 A 
ATOM      5  C   UNL     1      -8.400  -2.361   0.148  0.00  0.00    +0.000 A 
ATOM      6  C   UNL     1      -7.956  -3.668   0.333  0.00  0.00    +0.000 A 
ATOM      7  C   UNL     1      -6.592  -3.946   0.394  0.00  0.00    +0.000 A 
ATOM      8  C   UNL     1      -5.659  -2.910   0.269  0.00  0.00    +0.000 A 
ATOM      9 CL   UNL     1      -9.097  -4.946   0.487  0.00  0.00    +0.000 Cl
ENDBRANCH   1   3
BRANCH   1  10
ATOM     10  C   UNL     1      -3.653  -0.719   0.059  0.00  0.00    +0.000 C 
BRANCH  10  11
ATOM     11  C   UNL     1      -2.831   0.564  -0.057  0.00  0.00    +0.000 C 
BRANCH  11  15
ATOM     12  C   UNL     1       1.377  -0.299   0.316  0.00  0.00    +0.000 A 
ATOM     13  C   UNL     1       0.774  -0.300  -0.940  0.00  0.00    +0.000 A 
ATOM     14  C   UNL     1      -0.587  -0.014  -1.063  0.00  0.00    +0.000 A 
ATOM     15  C   UNL     1      -1.355   0.280   0.071  0.00  0.00    +0.000 A 
ATOM     16  C   UNL     1      -0.740   0.274   1.330  0.00  0.00    +0.000 A 
ATOM     17  C   UNL     1       0.621  -0.013   1.451  0.00  0.00    +0.000 A 
ENDBRANCH  11  15
ENDBRANCH  10  11
ENDBRANCH   1  10
TORSDOF 4
