MODEL 1
REMARK VINA RESULT:      -4.9      0.000      0.000
REMARK  Name = *****
REMARK  1 active torsions:
REMARK  status: ('A' for Active; 'I' for Inactive)
REMARK    1  A    between atoms: C_6  and  C_11
REMARK                            x       y       z     vdW  Elec       q    Type
REMARK                         _______ _______ _______ _____ _____    ______ ____
ROOT
ATOM      1  C   UNL     1     106.279 124.006  79.437  0.00  0.00    +0.000 A 
ATOM      2  C   UNL     1     105.534 123.067  80.144  0.00  0.00    +0.000 A 
ATOM      3  C   UNL     1     104.414 123.472  80.874  0.00  0.00    +0.000 A 
ATOM      4  C   UNL     1     104.027 124.821  80.906  0.00  0.00    +0.000 A 
ATOM      5  C   UNL     1     102.901 125.242  81.635  0.00  0.00    +0.000 A 
ATOM      6  C   UNL     1     102.526 126.593  81.657  0.00  0.00    +0.000 A 
ATOM      7  C   UNL     1     103.282 127.529  80.945  0.00  0.00    +0.000 A 
ATOM      8  C   UNL     1     104.402 127.122  80.216  0.00  0.00    +0.000 A 
ATOM      9  C   UNL     1     104.786 125.774  80.186  0.00  0.00    +0.000 A 
ATOM     10  C   UNL     1     105.909 125.351  79.458  0.00  0.00    +0.000 A 
ENDROOT
BRANCH   6  11
ATOM     11  C   UNL     1     101.345 127.059  82.414  0.00  0.00    +0.000 A 
ATOM     12  N   UNL     1     101.372 127.944  83.364  0.00  0.00    +0.000 NA
ATOM     13  S   UNL     1      99.795 128.151  83.924  0.00  0.00    +0.000 S 
ATOM     14  C   UNL     1      99.180 126.975  82.782  0.00  0.00    +0.000 A 
ATOM     15  O   UNL     1      98.005 126.654  82.682  0.00  0.00    +0.000 OA
ATOM     16  O   UNL     1     100.185 126.469  82.023  0.00  0.00    +0.000 OA
ENDBRANCH   6  11
TORSDOF 1
ENDMDL
