REMARK  Name = *****
REMARK  4 active torsions:
REMARK  status: ('A' for Active; 'I' for Inactive)
REMARK    1  A    between atoms: C_1  and  C_2
REMARK    2  A    between atoms: C_4  and  C_16
REMARK    3  A    between atoms: C_5  and  N_8
REMARK    4  A    between atoms: C_9  and  C_10
REMARK                            x       y       z     vdW  Elec       q    Type
REMARK                         _______ _______ _______ _____ _____    ______ ____
ROOT
ATOM      1  C   UNL     1       2.492   1.066   0.178  0.00  0.00    +0.000 C 
ATOM      2  C   UNL     1       1.227   0.303  -0.079  0.00  0.00    +0.000 A 
ATOM      3  C   UNL     1      -0.014   0.843   0.286  0.00  0.00    +0.000 A 
ATOM      4  C   UNL     1      -1.205   0.129   0.075  0.00  0.00    +0.000 A 
ATOM      5  C   UNL     1      -1.146  -1.160  -0.480  0.00  0.00    +0.000 A 
ATOM      6  C   UNL     1       0.093  -1.695  -0.846  0.00  0.00    +0.000 A 
ATOM      7  C   UNL     1       1.272  -0.977  -0.639  0.00  0.00    +0.000 A 
ATOM      8  C   UNL     1      -2.524   0.739   0.460  0.00  0.00    +0.000 C 
ENDROOT
BRANCH   5   9
ATOM      9  N   UNL     1      -2.314  -1.909  -0.704  0.00  0.00    +0.000 NA
ATOM     10  C   UNL     1      -2.623  -2.760   0.224  0.00  0.00    +0.000 C 
BRANCH  10  11
ATOM     11  C   UNL     1      -3.821  -3.615   0.132  0.00  0.00    +0.000 A 
ATOM     12  C   UNL     1      -4.682  -3.527  -0.965  0.00  0.00    +0.000 A 
ATOM     13  C   UNL     1      -5.810  -4.346  -1.028  0.00  0.00    +0.000 A 
ATOM     14  C   UNL     1      -6.076  -5.249   0.002  0.00  0.00    +0.000 A 
ATOM     15  C   UNL     1      -5.215  -5.336   1.097  0.00  0.00    +0.000 A 
ATOM     16  C   UNL     1      -4.085  -4.519   1.165  0.00  0.00    +0.000 A 
ENDBRANCH  10  11
ENDBRANCH   5   9
TORSDOF 2
