MODEL 1
REMARK VINA RESULT:      -4.7      0.000      0.000
REMARK  Name = *****
REMARK  6 active torsions:
REMARK  status: ('A' for Active; 'I' for Inactive)
REMARK    1  A    between atoms: C_1  and  C_2
REMARK    2  A    between atoms: C_2  and  C_18
REMARK    3  A    between atoms: C_6  and  C_9
REMARK    4  A    between atoms: C_9  and  C_10
REMARK    5  A    between atoms: C_10  and  C_11
REMARK    6  A    between atoms: C_16  and  O_17
REMARK                            x       y       z     vdW  Elec       q    Type
REMARK                         _______ _______ _______ _____ _____    ______ ____
ROOT
ATOM      1  C   UNL     1     103.481 125.318  80.714  0.00  0.00    +0.000 C 
ENDROOT
BRANCH   1   7
ATOM      2  C   UNL     1     103.521 126.242  84.676  0.00  0.00    +0.000 C 
ATOM      3  C   UNL     1     102.093 126.369  84.128  0.00  0.00    +0.000 C 
ATOM      4  C   UNL     1     101.642 127.797  83.588  0.00  0.00    +0.000 C 
ATOM      5  C   UNL     1     102.697 128.564  82.762  0.00  0.00    +0.000 C 
ATOM      6  C   UNL     1     103.312 127.627  81.742  0.00  0.00    +0.000 C 
ATOM      7  C   UNL     1     102.926 126.336  81.669  0.00  0.00    +0.000 C 
ATOM      8  C   UNL     1     101.825 125.930  82.620  0.00  0.00    +0.000 C 
ATOM      9  C   UNL     1     100.689 127.016  82.624  0.00  0.00    +0.000 C 
ATOM     10  C   UNL     1     101.146 125.725  85.161  0.00  0.00    +0.000 C 
ENDBRANCH   1   7
BRANCH   1  11
ATOM     11  C   UNL     1     104.817 124.747  81.206  0.00  0.00    +0.000 C 
BRANCH  11  12
ATOM     12  C   UNL     1     104.673 123.339  81.734  0.00  0.00    +0.000 A 
ATOM     13  C   UNL     1     104.458 123.125  83.104  0.00  0.00    +0.000 A 
ATOM     14  C   UNL     1     104.327 121.830  83.609  0.00  0.00    +0.000 A 
ATOM     15  C   UNL     1     104.415 120.735  82.752  0.00  0.00    +0.000 A 
ATOM     16  C   UNL     1     104.636 120.932  81.389  0.00  0.00    +0.000 A 
ATOM     17  C   UNL     1     104.765 122.227  80.890  0.00  0.00    +0.000 A 
BRANCH  17  18
ATOM     18  O   UNL     1     104.983 122.429  79.556  0.00  0.00    +0.000 OA
ATOM     19  H   UNL     1     104.351 122.138  78.928  0.00  0.00    +0.000 HD
ENDBRANCH  17  18
ENDBRANCH  11  12
ENDBRANCH   1  11
TORSDOF 4
ENDMDL
