REMARK  Name = *****
REMARK  4 active torsions:
REMARK  status: ('A' for Active; 'I' for Inactive)
REMARK    1  A    between atoms: C_4  and  C_16
REMARK    2  A    between atoms: C_5  and  C_7
REMARK    3  A    between atoms: C_7  and  C_8
REMARK    4  A    between atoms: C_8  and  C_9
REMARK                            x       y       z     vdW  Elec       q    Type
REMARK                         _______ _______ _______ _____ _____    ______ ____
ROOT
ATOM      1  C   UNL     1      -0.630   2.431   0.199  0.00  0.00    +0.000 C 
ENDROOT
BRANCH   1   6
ATOM      2  C   UNL     1       0.604  -0.963   1.407  0.00  0.00    +0.000 A 
ATOM      3  C   UNL     1       1.307  -1.438   0.303  0.00  0.00    +0.000 A 
ATOM      4  C   UNL     1       1.394  -0.661  -0.852  0.00  0.00    +0.000 A 
ATOM      5  C   UNL     1       0.781   0.599  -0.909  0.00  0.00    +0.000 A 
ATOM      6  C   UNL     1       0.070   1.087   0.205  0.00  0.00    +0.000 A 
ATOM      7  C   UNL     1      -0.012   0.288   1.359  0.00  0.00    +0.000 A 
BRANCH   5   8
ATOM      8  C   UNL     1       0.898   1.362  -2.121  0.00  0.00    +0.000 C 
ATOM      9  N   UNL     1       0.981   1.984  -3.097  0.00  0.00    +0.000 NA
ENDBRANCH   5   8
ENDBRANCH   1   6
BRANCH   1  10
ATOM     10  C   UNL     1      -2.003   2.362  -0.479  0.00  0.00    +0.000 C 
BRANCH  10  11
ATOM     11  C   UNL     1      -2.736   3.680  -0.405  0.00  0.00    +0.000 A 
ATOM     12  C   UNL     1      -2.315   4.771  -1.180  0.00  0.00    +0.000 A 
ATOM     13  C   UNL     1      -2.986   5.994  -1.104  0.00  0.00    +0.000 A 
ATOM     14  C   UNL     1      -4.084   6.130  -0.258  0.00  0.00    +0.000 A 
ATOM     15  C   UNL     1      -4.516   5.054   0.515  0.00  0.00    +0.000 A 
ATOM     16  C   UNL     1      -3.842   3.832   0.443  0.00  0.00    +0.000 A 
ATOM     17 CL   UNL     1      -4.912   7.635  -0.165  0.00  0.00    +0.000 Cl
ENDBRANCH  10  11
ENDBRANCH   1  10
TORSDOF 4
