MODEL 1
REMARK VINA RESULT:      -4.3      0.000      0.000
REMARK  Name = *****
REMARK  5 active torsions:
REMARK  status: ('A' for Active; 'I' for Inactive)
REMARK    1  A    between atoms: C_1  and  C_2
REMARK    2  A    between atoms: C_3  and  C_10
REMARK    3  A    between atoms: C_4  and  C_8
REMARK    4  A    between atoms: C_4  and  C_9
REMARK    5  A    between atoms: C_11  and  C_12
REMARK                            x       y       z     vdW  Elec       q    Type
REMARK                         _______ _______ _______ _____ _____    ______ ____
ROOT
ATOM      1  C   UNL     1      88.110  70.853  89.838  0.00  0.00    +0.000 C 
ATOM      2  C   UNL     1      86.966  71.154  88.898  0.00  0.00    +0.000 C 
ATOM      3  C   UNL     1      86.874  70.711  87.619  0.00  0.00    +0.000 C 
ATOM      4  C   UNL     1      85.724  71.121  86.674  0.00  0.00    +0.000 C 
ATOM      5  C   UNL     1      84.917  72.312  87.255  0.00  0.00    +0.000 C 
ATOM      6  C   UNL     1      84.618  72.141  88.736  0.00  0.00    +0.000 C 
ATOM      7  C   UNL     1      85.913  72.040  89.529  0.00  0.00    +0.000 C 
ATOM      8  C   UNL     1      86.238  71.572  85.287  0.00  0.00    +0.000 C 
ATOM      9  C   UNL     1      84.778  69.916  86.471  0.00  0.00    +0.000 C 
ENDROOT
BRANCH   3  10
ATOM     10  C   UNL     1      87.865  69.798  87.056  0.00  0.00    +0.000 C 
ATOM     11  C   UNL     1      87.830  68.466  87.238  0.00  0.00    +0.000 C 
BRANCH  11  12
ATOM     12  C   UNL     1      88.746  67.508  86.711  0.00  0.00    +0.000 A 
ATOM     13  C   UNL     1      88.461  66.227  86.281  0.00  0.00    +0.000 A 
ATOM     14  S   UNL     1      89.941  65.534  85.751  0.00  0.00    +0.000 S 
ATOM     15  N   UNL     1      90.822  66.910  86.110  0.00  0.00    +0.000 NA
ATOM     16  N   UNL     1      90.077  67.882  86.611  0.00  0.00    +0.000 NA
ENDBRANCH  11  12
ENDBRANCH   3  10
TORSDOF 2
ENDMDL
