MODEL 1
REMARK VINA RESULT:      -4.9      0.000      0.000
REMARK  Name = *****
REMARK  6 active torsions:
REMARK  status: ('A' for Active; 'I' for Inactive)
REMARK    1  A    between atoms: C_1  and  C_2
REMARK    2  A    between atoms: C_4  and  C_8
REMARK    3  A    between atoms: C_8  and  O_10
REMARK    4  A    between atoms: O_10  and  C_11
REMARK    5  A    between atoms: C_11  and  C_12
REMARK    6  A    between atoms: C_11  and  C_13
REMARK                            x       y       z     vdW  Elec       q    Type
REMARK                         _______ _______ _______ _____ _____    ______ ____
ROOT
ATOM      1  C   UNL     1     102.870 126.928  83.091  0.00  0.00    +0.000 C 
ATOM      2  O   UNL     1     103.817 127.612  83.444  0.00  0.00    +0.000 OA
ENDROOT
BRANCH   1   6
ATOM      3  C   UNL     1      99.378 130.469  83.994  0.00  0.00    +0.000 C 
ATOM      4  C   UNL     1      99.762 129.106  83.497  0.00  0.00    +0.000 A 
ATOM      5  C   UNL     1     101.098 128.683  83.546  0.00  0.00    +0.000 A 
ATOM      6  C   UNL     1     101.466 127.423  83.052  0.00  0.00    +0.000 A 
ATOM      7  C   UNL     1     100.488 126.590  82.492  0.00  0.00    +0.000 A 
ATOM      8  C   UNL     1      99.161 127.012  82.426  0.00  0.00    +0.000 A 
ATOM      9  C   UNL     1      98.800 128.266  82.922  0.00  0.00    +0.000 A 
ENDBRANCH   1   6
BRANCH   1  10
ATOM     10  O   UNL     1     102.930 125.642  82.671  0.00  0.00    +0.000 OA
BRANCH  10  11
ATOM     11  C   UNL     1     103.988 125.330  81.748  0.00  0.00    +0.000 C 
ATOM     12  C   UNL     1     103.551 125.665  80.322  0.00  0.00    +0.000 C 
BRANCH  11  13
ATOM     13  C   UNL     1     104.303 123.850  81.883  0.00  0.00    +0.000 A 
ATOM     14  C   UNL     1     104.271 123.208  83.130  0.00  0.00    +0.000 A 
ATOM     15  C   UNL     1     104.549 121.845  83.237  0.00  0.00    +0.000 A 
ATOM     16  C   UNL     1     104.860 121.105  82.098  0.00  0.00    +0.000 A 
ATOM     17  C   UNL     1     104.892 121.728  80.853  0.00  0.00    +0.000 A 
ATOM     18  C   UNL     1     104.615 123.092  80.744  0.00  0.00    +0.000 A 
ENDBRANCH  11  13
ENDBRANCH  10  11
ENDBRANCH   1  10
TORSDOF 4
ENDMDL
