MODEL 1
REMARK VINA RESULT:      -4.3      0.000      0.000
REMARK  Name = *****
REMARK  4 active torsions:
REMARK  status: ('A' for Active; 'I' for Inactive)
REMARK    1  A    between atoms: C_1  and  P_2
REMARK    2  A    between atoms: P_2  and  C_3
REMARK    3  A    between atoms: P_2  and  C_11
REMARK    4  A    between atoms: C_3  and  C_4
REMARK                            x       y       z     vdW  Elec       q    Type
REMARK                         _______ _______ _______ _____ _____    ______ ____
ROOT
ATOM      1  C   UNL     1     103.151 127.164  85.320  0.00  0.00    +0.000 C 
ATOM      2  P   UNL     1     103.007 127.124  83.493  0.00  0.00    +0.000 P 
ENDROOT
BRANCH   2   3
ATOM      3  C   UNL     1     101.262 127.569  83.229  0.00  0.00    +0.000 A 
ATOM      4  C   UNL     1     100.431 126.640  82.588  0.00  0.00    +0.000 A 
ATOM      5  C   UNL     1      99.079 126.918  82.367  0.00  0.00    +0.000 A 
ATOM      6  C   UNL     1      98.539 128.130  82.787  0.00  0.00    +0.000 A 
ATOM      7  C   UNL     1      99.350 129.063  83.427  0.00  0.00    +0.000 A 
ATOM      8  C   UNL     1     100.703 128.784  83.647  0.00  0.00    +0.000 A 
ENDBRANCH   2   3
BRANCH   2   9
ATOM      9  C   UNL     1     103.012 125.312  83.225  0.00  0.00    +0.000 C 
BRANCH   9  10
ATOM     10  C   UNL     1     103.808 125.114  81.958  0.00  0.00    +0.000 A 
ATOM     11  C   UNL     1     104.300 123.843  81.609  0.00  0.00    +0.000 A 
ATOM     12  C   UNL     1     105.026 123.660  80.429  0.00  0.00    +0.000 A 
ATOM     13  C   UNL     1     105.265 124.743  79.588  0.00  0.00    +0.000 A 
ATOM     14  C   UNL     1     104.781 126.008  79.912  0.00  0.00    +0.000 A 
ATOM     15  C   UNL     1     104.053 126.192  81.090  0.00  0.00    +0.000 A 
ATOM     16 CL   UNL     1     106.161 124.517  78.137  0.00  0.00    +0.000 Cl
ENDBRANCH   9  10
ENDBRANCH   2   9
TORSDOF 3
ENDMDL
