MODEL 1
REMARK VINA RESULT:      -4.2      0.000      0.000
REMARK  Name = *****
REMARK  3 active torsions:
REMARK  status: ('A' for Active; 'I' for Inactive)
REMARK    1  A    between atoms: C_4  and  S_7
REMARK    2  A    between atoms: S_7  and  C_8
REMARK    3  A    between atoms: C_8  and  C_9
REMARK                            x       y       z     vdW  Elec       q    Type
REMARK                         _______ _______ _______ _____ _____    ______ ____
ROOT
ATOM      1  C   UNL     1     103.238 127.575  81.468  0.00  0.00    +0.000 C 
ENDROOT
BRANCH   1   2
ATOM      2  C   UNL     1     103.695 126.136  81.447  0.00  0.00    +0.000 A 
ATOM      3  C   UNL     1     104.126 125.543  80.250  0.00  0.00    +0.000 A 
ATOM      4  C   UNL     1     104.540 124.209  80.228  0.00  0.00    +0.000 A 
ATOM      5  C   UNL     1     104.519 123.460  81.402  0.00  0.00    +0.000 A 
ATOM      6  C   UNL     1     104.084 124.029  82.596  0.00  0.00    +0.000 A 
ATOM      7  C   UNL     1     103.671 125.363  82.618  0.00  0.00    +0.000 A 
ATOM      8 BR   UNL     1     105.077 121.653  81.372  0.00  0.00    +0.000 Br
ENDBRANCH   1   2
BRANCH   1   9
ATOM      9  S   UNL     1     102.701 128.072  83.136  0.00  0.00    +0.000 S 
BRANCH   9  13
ATOM     10  C   UNL     1      98.122 127.621  83.175  0.00  0.00    +0.000 A 
ATOM     11  C   UNL     1      98.875 126.699  82.453  0.00  0.00    +0.000 A 
ATOM     12  C   UNL     1     100.270 126.801  82.415  0.00  0.00    +0.000 A 
ATOM     13  C   UNL     1     100.929 127.828  83.099  0.00  0.00    +0.000 A 
ATOM     14  C   UNL     1     100.156 128.750  83.822  0.00  0.00    +0.000 A 
ATOM     15  C   UNL     1      98.763 128.647  83.861  0.00  0.00    +0.000 A 
ENDBRANCH   9  13
ENDBRANCH   1   9
TORSDOF 3
ENDMDL
