MODEL 1
REMARK VINA RESULT:      -3.9      0.000      0.000
REMARK  Name = *****
REMARK  3 active torsions:
REMARK  status: ('A' for Active; 'I' for Inactive)
REMARK    1  A    between atoms: C_4  and  C_7
REMARK    2  A    between atoms: C_7  and  C_8
REMARK    3  A    between atoms: C_8  and  C_9
REMARK                            x       y       z     vdW  Elec       q    Type
REMARK                         _______ _______ _______ _____ _____    ______ ____
ROOT
ATOM      1  C   UNL     1     103.460 127.784  81.820  0.00  0.00    +0.000 C 
ENDROOT
BRANCH   1   5
ATOM      2  C   UNL     1     104.240 124.040  81.207  0.00  0.00    +0.000 C 
ATOM      3  C   UNL     1     103.716 124.580  82.531  0.00  0.00    +0.000 C 
ATOM      4  S   UNL     1     104.812 125.820  83.275  0.00  0.00    +0.000 S 
ATOM      5  C   UNL     1     104.822 127.086  81.960  0.00  0.00    +0.000 C 
ATOM      6  S   UNL     1     105.495 126.399  80.410  0.00  0.00    +0.000 S 
ATOM      7  C   UNL     1     104.295 125.074  80.092  0.00  0.00    +0.000 C 
ENDBRANCH   1   5
BRANCH   1   8
ATOM      8  C   UNL     1     102.804 128.086  83.173  0.00  0.00    +0.000 C 
BRANCH   8   9
ATOM      9  C   UNL     1     101.300 127.977  83.090  0.00  0.00    +0.000 A 
ATOM     10  C   UNL     1     100.701 126.866  82.482  0.00  0.00    +0.000 A 
ATOM     11  C   UNL     1      99.311 126.778  82.386  0.00  0.00    +0.000 A 
ATOM     12  C   UNL     1      98.509 127.800  82.893  0.00  0.00    +0.000 A 
ATOM     13  C   UNL     1      99.096 128.912  83.493  0.00  0.00    +0.000 A 
ATOM     14  C   UNL     1     100.486 129.002  83.590  0.00  0.00    +0.000 A 
ENDBRANCH   8   9
ENDBRANCH   1   8
TORSDOF 3
ENDMDL
