MODEL 1
REMARK VINA RESULT:      -4.5      0.000      0.000
REMARK  Name = *****
REMARK  4 active torsions:
REMARK  status: ('A' for Active; 'I' for Inactive)
REMARK    1  A    between atoms: C_1  and  C_2
REMARK    2  A    between atoms: C_7  and  C_8
REMARK    3  A    between atoms: C_8  and  C_9
REMARK    4  A    between atoms: C_9  and  C_10
REMARK                            x       y       z     vdW  Elec       q    Type
REMARK                         _______ _______ _______ _____ _____    ______ ____
ROOT
ATOM      1  C   UNL     1      89.307  70.606  87.407  0.00  0.00    +0.000 C 
ENDROOT
BRANCH   1   8
ATOM      2  C   UNL     1      89.765  71.395  84.523  0.00  0.00    +0.000 C 
ATOM      3  C   UNL     1      89.755  69.957  84.964  0.00  0.00    +0.000 A 
ATOM      4  C   UNL     1      89.957  68.951  84.004  0.00  0.00    +0.000 A 
ATOM      5  C   UNL     1      89.949  67.603  84.363  0.00  0.00    +0.000 A 
ATOM      6  C   UNL     1      89.736  67.239  85.688  0.00  0.00    +0.000 A 
ATOM      7  C   UNL     1      89.527  68.225  86.652  0.00  0.00    +0.000 A 
ATOM      8  C   UNL     1      89.526  69.588  86.306  0.00  0.00    +0.000 A 
ENDBRANCH   1   8
BRANCH   1   9
ATOM      9  C   UNL     1      88.049  70.297  88.229  0.00  0.00    +0.000 C 
BRANCH   9  10
ATOM     10  C   UNL     1      86.786  71.043  87.853  0.00  0.00    +0.000 A 
ATOM     11  C   UNL     1      85.865  71.537  88.786  0.00  0.00    +0.000 A 
ATOM     12  C   UNL     1      84.725  72.231  88.367  0.00  0.00    +0.000 A 
ATOM     13  C   UNL     1      84.491  72.440  87.010  0.00  0.00    +0.000 A 
ATOM     14  C   UNL     1      85.395  71.955  86.070  0.00  0.00    +0.000 A 
ATOM     15  C   UNL     1      86.533  71.264  86.489  0.00  0.00    +0.000 A 
ENDBRANCH   9  10
ENDBRANCH   1   9
TORSDOF 3
ENDMDL
