MODEL 1
REMARK VINA RESULT:      -4.6      0.000      0.000
REMARK  Name = *****
REMARK  5 active torsions:
REMARK  status: ('A' for Active; 'I' for Inactive)
REMARK    1  A    between atoms: C_1  and  C_2
REMARK    2  A    between atoms: C_4  and  O_8
REMARK    3  A    between atoms: O_8  and  O_9
REMARK    4  A    between atoms: O_9  and  C_10
REMARK    5  A    between atoms: C_14  and  C_16
REMARK                            x       y       z     vdW  Elec       q    Type
REMARK                         _______ _______ _______ _____ _____    ______ ____
ROOT
ATOM      1  O   UNL     1     102.507 126.840  82.961  0.00  0.00    +0.000 OA
ENDROOT
BRANCH   1   5
ATOM      2  C   UNL     1      99.415 130.570  84.090  0.00  0.00    +0.000 C 
ATOM      3  C   UNL     1      99.700 129.218  83.507  0.00  0.00    +0.000 A 
ATOM      4  C   UNL     1     101.003 128.696  83.527  0.00  0.00    +0.000 A 
ATOM      5  C   UNL     1     101.260 127.421  83.014  0.00  0.00    +0.000 A 
ATOM      6  C   UNL     1     100.217 126.666  82.475  0.00  0.00    +0.000 A 
ATOM      7  C   UNL     1      98.918 127.171  82.467  0.00  0.00    +0.000 A 
ATOM      8  C   UNL     1      98.659 128.439  82.987  0.00  0.00    +0.000 A 
ENDBRANCH   1   5
BRANCH   1   9
ATOM      9  O   UNL     1     102.828 126.536  81.571  0.00  0.00    +0.000 OA
BRANCH   9  10
ATOM     10  C   UNL     1     103.499 125.334  81.528  0.00  0.00    +0.000 A 
ATOM     11  C   UNL     1     104.059 124.790  80.372  0.00  0.00    +0.000 A 
ATOM     12  C   UNL     1     104.745 123.577  80.438  0.00  0.00    +0.000 A 
ATOM     13  C   UNL     1     104.878 122.909  81.657  0.00  0.00    +0.000 A 
ATOM     14  C   UNL     1     104.330 123.452  82.824  0.00  0.00    +0.000 A 
ATOM     15  C   UNL     1     103.646 124.672  82.750  0.00  0.00    +0.000 A 
ATOM     16  C   UNL     1     104.468 122.749  84.142  0.00  0.00    +0.000 C 
ENDBRANCH   9  10
ENDBRANCH   1   9
TORSDOF 3
ENDMDL
