MODEL 1
REMARK VINA RESULT:      -4.4      0.000      0.000
REMARK  Name = *****
REMARK  4 active torsions:
REMARK  status: ('A' for Active; 'I' for Inactive)
REMARK    1  A    between atoms: C_4  and  O_7
REMARK    2  A    between atoms: O_7  and  N_8
REMARK    3  A    between atoms: N_8  and  C_9
REMARK    4  A    between atoms: C_9  and  C_10
REMARK                            x       y       z     vdW  Elec       q    Type
REMARK                         _______ _______ _______ _____ _____    ______ ____
ROOT
ATOM      1  C   UNL     1     103.636 125.207  83.211  0.00  0.00    +0.000 C 
ENDROOT
BRANCH   1   2
ATOM      2  C   UNL     1     104.218 124.305  82.200  0.00  0.00    +0.000 A 
ATOM      3  C   UNL     1     104.266 122.925  82.413  0.00  0.00    +0.000 A 
ATOM      4  C   UNL     1     104.824 122.100  81.439  0.00  0.00    +0.000 A 
ATOM      5  C   UNL     1     105.331 122.637  80.258  0.00  0.00    +0.000 A 
ATOM      6  C   UNL     1     105.278 124.015  80.056  0.00  0.00    +0.000 A 
ATOM      7  C   UNL     1     104.724 124.857  81.019  0.00  0.00    +0.000 A 
ATOM      8 CL   UNL     1     105.903 124.688  78.601  0.00  0.00    +0.000 Cl
ATOM      9 CL   UNL     1     104.886 120.400  81.696  0.00  0.00    +0.000 Cl
ENDBRANCH   1   2
BRANCH   1  10
ATOM     10  N   UNL     1     102.360 125.269  83.413  0.00  0.00    +0.000 NA
BRANCH  10  11
ATOM     11  O   UNL     1     101.760 125.871  82.297  0.00  0.00    +0.000 OA
BRANCH  11  15
ATOM     12  C   UNL     1      99.074 128.896  83.318  0.00  0.00    +0.000 A 
ATOM     13  C   UNL     1     100.420 129.068  83.635  0.00  0.00    +0.000 A 
ATOM     14  C   UNL     1     101.349 128.077  83.309  0.00  0.00    +0.000 A 
ATOM     15  C   UNL     1     100.933 126.910  82.664  0.00  0.00    +0.000 A 
ATOM     16  C   UNL     1      99.581 126.743  82.349  0.00  0.00    +0.000 A 
ATOM     17  C   UNL     1      98.653 127.734  82.675  0.00  0.00    +0.000 A 
ENDBRANCH  11  15
ENDBRANCH  10  11
ENDBRANCH   1  10
TORSDOF 4
ENDMDL
