MODEL 1
REMARK VINA RESULT:      -4.2      0.000      0.000
REMARK  Name = *****
REMARK  6 active torsions:
REMARK  status: ('A' for Active; 'I' for Inactive)
REMARK    1  A    between atoms: C_1  and  O_2
REMARK    2  A    between atoms: O_2  and  S_3
REMARK    3  A    between atoms: S_3  and  C_5
REMARK    4  A    between atoms: C_8  and  C_11
REMARK    5  A    between atoms: C_11  and  C_12
REMARK    6  A    between atoms: C_12  and  C_13
REMARK                            x       y       z     vdW  Elec       q    Type
REMARK                         _______ _______ _______ _____ _____    ______ ____
ROOT
ATOM      1  C   UNL     1      98.449 118.630  83.217  0.00  0.00    +0.000 A 
ATOM      2  C   UNL     1      98.778 119.382  82.083  0.00  0.00    +0.000 A 
ATOM      3  C   UNL     1      98.303 119.008  80.823  0.00  0.00    +0.000 A 
ATOM      4  C   UNL     1      97.496 117.871  80.678  0.00  0.00    +0.000 A 
ATOM      5  C   UNL     1      97.179 117.112  81.812  0.00  0.00    +0.000 A 
ATOM      6  C   UNL     1      97.653 117.491  83.071  0.00  0.00    +0.000 A 
ENDROOT
BRANCH   1   7
ATOM      7  S   UNL     1      99.096 119.103  84.842  0.00  0.00    +0.000 S 
ATOM      8  O   UNL     1      98.538 120.465  85.133  0.00  0.00    +0.000 OA
BRANCH   7  10
ATOM      9  C   UNL     1     101.621 118.875  85.194  0.00  0.00    +0.000 C 
ATOM     10  O   UNL     1     100.603 119.289  84.295  0.00  0.00    +0.000 OA
ENDBRANCH   7  10
ENDBRANCH   1   7
BRANCH   4  11
ATOM     11  C   UNL     1      96.997 117.457  79.315  0.00  0.00    +0.000 C 
BRANCH  11  12
ATOM     12  C   UNL     1      97.743 116.230  78.782  0.00  0.00    +0.000 C 
BRANCH  12  13
ATOM     13  C   UNL     1      96.823 115.262  78.094  0.00  0.00    +0.000 A 
ATOM     14  C   UNL     1      96.775 115.056  76.727  0.00  0.00    +0.000 A 
ATOM     15  S   UNL     1      95.617 113.883  76.273  0.00  0.00    +0.000 S 
ATOM     16  C   UNL     1      95.156 113.633  77.899  0.00  0.00    +0.000 A 
ATOM     17  C   UNL     1      95.870 114.428  78.767  0.00  0.00    +0.000 A 
ENDBRANCH  12  13
ENDBRANCH  11  12
ENDBRANCH   4  11
TORSDOF 5
ENDMDL
