MODEL 1
REMARK VINA RESULT:      -3.9      0.000      0.000
REMARK  Name = *****
REMARK  4 active torsions:
REMARK  status: ('A' for Active; 'I' for Inactive)
REMARK    1  A    between atoms: C_1  and  C_2
REMARK    2  A    between atoms: C_2  and  O_7
REMARK    3  A    between atoms: O_7  and  S_8
REMARK    4  A    between atoms: S_8  and  C_9
REMARK                            x       y       z     vdW  Elec       q    Type
REMARK                         _______ _______ _______ _____ _____    ______ ____
ROOT
ATOM      1  O   UNL     1     102.405 127.117  83.202  0.00  0.00    +0.000 OA
ENDROOT
BRANCH   1   3
ATOM      2  C   UNL     1     100.696 126.414  84.827  0.00  0.00    +0.000 C 
ATOM      3  C   UNL     1     101.022 127.219  83.561  0.00  0.00    +0.000 C 
ATOM      4  C   UNL     1     100.520 128.670  83.622  0.00  0.00    +0.000 C 
ATOM      5  C   UNL     1      99.027 128.591  83.320  0.00  0.00    +0.000 C 
ATOM      6  C   UNL     1      98.835 127.328  82.482  0.00  0.00    +0.000 C 
ATOM      7  C   UNL     1     100.214 126.685  82.367  0.00  0.00    +0.000 C 
ENDBRANCH   1   3
BRANCH   1   8
ATOM      8  S   UNL     1     102.775 126.948  81.584  0.00  0.00    +0.000 S 
BRANCH   8   9
ATOM      9  C   UNL     1     103.557 125.341  81.637  0.00  0.00    +0.000 A 
ATOM     10  C   UNL     1     104.068 124.736  80.485  0.00  0.00    +0.000 A 
ATOM     11  C   UNL     1     104.684 123.485  80.557  0.00  0.00    +0.000 A 
ATOM     12  C   UNL     1     104.799 122.834  81.784  0.00  0.00    +0.000 A 
ATOM     13  C   UNL     1     104.299 123.433  82.939  0.00  0.00    +0.000 A 
ATOM     14  C   UNL     1     103.683 124.684  82.866  0.00  0.00    +0.000 A 
ENDBRANCH   8   9
ENDBRANCH   1   8
TORSDOF 3
ENDMDL
