MODEL 1
REMARK VINA RESULT:      -4.2      0.000      0.000
REMARK  Name = *****
REMARK  5 active torsions:
REMARK  status: ('A' for Active; 'I' for Inactive)
REMARK    1  A    between atoms: C_1  and  O_2
REMARK    2  A    between atoms: O_2  and  C_3
REMARK    3  A    between atoms: C_6  and  S_9
REMARK    4  A    between atoms: S_9  and  C_10
REMARK    5  A    between atoms: C_10  and  C_12
REMARK                            x       y       z     vdW  Elec       q    Type
REMARK                         _______ _______ _______ _____ _____    ______ ____
ROOT
ATOM      1  S   UNL     1      89.186  68.098  84.439  0.00  0.00    +0.000 S 
ENDROOT
BRANCH   1   5
ATOM      2  C   UNL     1      89.247  72.649  83.805  0.00  0.00    +0.000 A 
ATOM      3  C   UNL     1      88.032  71.990  83.989  0.00  0.00    +0.000 A 
ATOM      4  C   UNL     1      88.005  70.602  84.174  0.00  0.00    +0.000 A 
ATOM      5  C   UNL     1      89.188  69.857  84.160  0.00  0.00    +0.000 A 
ATOM      6  C   UNL     1      90.404  70.521  83.987  0.00  0.00    +0.000 A 
ATOM      7  C   UNL     1      90.430  71.908  83.809  0.00  0.00    +0.000 A 
BRANCH   2   9
ATOM      8  C   UNL     1      89.440  74.457  82.275  0.00  0.00    +0.000 C 
ATOM      9  O   UNL     1      89.414  73.993  83.619  0.00  0.00    +0.000 OA
ENDBRANCH   2   9
ENDBRANCH   1   5
BRANCH   1  10
ATOM     10  C   UNL     1      89.678  67.960  86.127  0.00  0.00    +0.000 C 
ATOM     11  O   UNL     1      90.572  67.202  86.486  0.00  0.00    +0.000 OA
BRANCH  10  12
ATOM     12  C   UNL     1      88.928  68.764  87.141  0.00  0.00    +0.000 A 
ATOM     13  C   UNL     1      89.379  69.992  87.649  0.00  0.00    +0.000 A 
ATOM     14  C   UNL     1      88.620  70.686  88.598  0.00  0.00    +0.000 A 
ATOM     15  C   UNL     1      87.411  70.161  89.048  0.00  0.00    +0.000 A 
ATOM     16  C   UNL     1      86.956  68.939  88.558  0.00  0.00    +0.000 A 
ATOM     17  C   UNL     1      87.712  68.243  87.612  0.00  0.00    +0.000 A 
ENDBRANCH  10  12
ENDBRANCH   1  10
TORSDOF 4
ENDMDL
