MODEL 1
REMARK VINA RESULT:      -4.5      0.000      0.000
REMARK  Name = *****
REMARK  5 active torsions:
REMARK  status: ('A' for Active; 'I' for Inactive)
REMARK    1  A    between atoms: C_1  and  C_2
REMARK    2  A    between atoms: C_3  and  C_10
REMARK    3  A    between atoms: C_5  and  C_7
REMARK    4  A    between atoms: C_7  and  C_8
REMARK    5  A    between atoms: C_11  and  C_12
REMARK                            x       y       z     vdW  Elec       q    Type
REMARK                         _______ _______ _______ _____ _____    ______ ____
ROOT
ATOM      1  C   UNL     1     104.030 127.915  80.010  0.00  0.00    +0.000 C 
ATOM      2  C   UNL     1     104.083 126.465  80.308  0.00  0.00    +0.000 A 
ATOM      3  C   UNL     1     103.219 125.735  81.098  0.00  0.00    +0.000 A 
ATOM      4  O   UNL     1     103.578 124.428  81.144  0.00  0.00    +0.000 OA
ATOM      5  C   UNL     1     104.695 124.298  80.373  0.00  0.00    +0.000 A 
ATOM      6  C   UNL     1     105.044 125.523  79.839  0.00  0.00    +0.000 A 
ENDROOT
BRANCH   3   7
ATOM      7  C   UNL     1     102.071 126.107  81.836  0.00  0.00    +0.000 C 
ATOM      8  C   UNL     1     101.098 126.423  82.466  0.00  0.00    +0.000 C 
BRANCH   8   9
ATOM      9  C   UNL     1      99.942 126.804  83.215  0.00  0.00    +0.000 A 
ATOM     10  C   UNL     1     100.068 127.179  84.556  0.00  0.00    +0.000 A 
ATOM     11  C   UNL     1      98.937 127.554  85.285  0.00  0.00    +0.000 A 
ATOM     12  C   UNL     1      97.682 127.555  84.676  0.00  0.00    +0.000 A 
ATOM     13  C   UNL     1      97.555 127.182  83.338  0.00  0.00    +0.000 A 
ATOM     14  C   UNL     1      98.684 126.806  82.608  0.00  0.00    +0.000 A 
ENDBRANCH   8   9
ENDBRANCH   3   7
BRANCH   5  15
ATOM     15  C   UNL     1     105.280 122.935  80.267  0.00  0.00    +0.000 C 
BRANCH  15  16
ATOM     16  C   UNL     1     104.974 122.042  81.439  0.00  0.00    +0.000 C 
ATOM     17  C   UNL     1     104.380 120.844  81.350  0.00  0.00    +0.000 C 
ENDBRANCH  15  16
ENDBRANCH   5  15
TORSDOF 4
ENDMDL
