MODEL 1
REMARK VINA RESULT:      -4.6      0.000      0.000
REMARK  Name = *****
REMARK  6 active torsions:
REMARK  status: ('A' for Active; 'I' for Inactive)
REMARK    1  A    between atoms: C_1  and  O_2
REMARK    2  A    between atoms: O_2  and  C_3
REMARK    3  A    between atoms: C_6  and  C_9
REMARK    4  A    between atoms: C_10  and  C_11
REMARK    5  A    between atoms: C_14  and  O_17
REMARK    6  A    between atoms: O_17  and  C_18
REMARK                            x       y       z     vdW  Elec       q    Type
REMARK                         _______ _______ _______ _____ _____    ______ ____
ROOT
ATOM      1  C   UNL     1      89.226  66.889  86.469  0.00  0.00    +0.000 C 
ATOM      2  C   UNL     1      88.022  66.475  86.902  0.00  0.00    +0.000 C 
ATOM      3  F   UNL     1      86.963  67.319  86.830  0.00  0.00    +0.000 F 
ATOM      4  F   UNL     1      90.285  66.045  86.542  0.00  0.00    +0.000 F 
ENDROOT
BRANCH   1   8
ATOM      5  C   UNL     1      90.076  70.751  84.771  0.00  0.00    +0.000 A 
ATOM      6  C   UNL     1      90.086  69.601  83.986  0.00  0.00    +0.000 A 
ATOM      7  C   UNL     1      89.809  68.354  84.561  0.00  0.00    +0.000 A 
ATOM      8  C   UNL     1      89.528  68.229  85.930  0.00  0.00    +0.000 A 
ATOM      9  C   UNL     1      89.502  69.395  86.705  0.00  0.00    +0.000 A 
ATOM     10  C   UNL     1      89.778  70.641  86.129  0.00  0.00    +0.000 A 
BRANCH   5  12
ATOM     11  C   UNL     1      89.216  72.776  83.870  0.00  0.00    +0.000 C 
ATOM     12  O   UNL     1      90.328  72.024  84.341  0.00  0.00    +0.000 OA
ENDBRANCH   5  12
ENDBRANCH   1   8
BRANCH   2  13
ATOM     13  C   UNL     1      87.721  65.138  87.448  0.00  0.00    +0.000 A 
ATOM     14  C   UNL     1      88.097  64.729  88.735  0.00  0.00    +0.000 A 
ATOM     15  C   UNL     1      87.762  63.457  89.218  0.00  0.00    +0.000 A 
ATOM     16  C   UNL     1      87.033  62.573  88.424  0.00  0.00    +0.000 A 
ATOM     17  C   UNL     1      86.641  62.976  87.147  0.00  0.00    +0.000 A 
ATOM     18  C   UNL     1      86.975  64.247  86.666  0.00  0.00    +0.000 A 
BRANCH  16  19
ATOM     19  O   UNL     1      86.642  61.311  88.773  0.00  0.00    +0.000 OA
ATOM     20  C   UNL     1      85.661  61.202  89.796  0.00  0.00    +0.000 C 
ENDBRANCH  16  19
ENDBRANCH   2  13
TORSDOF 4
ENDMDL
