MODEL 1
REMARK VINA RESULT:      -4.9      0.000      0.000
REMARK  Name = *****
REMARK  5 active torsions:
REMARK  status: ('A' for Active; 'I' for Inactive)
REMARK    1  A    between atoms: C_1  and  C_2
REMARK    2  A    between atoms: C_7  and  C_8
REMARK    3  A    between atoms: C_9  and  C_10
REMARK    4  A    between atoms: C_13  and  O_16
REMARK    5  A    between atoms: O_16  and  C_17
REMARK                            x       y       z     vdW  Elec       q    Type
REMARK                         _______ _______ _______ _____ _____    ______ ____
ROOT
ATOM      1  C   UNL     1     101.958 126.235  82.240  0.00  0.00    +0.000 C 
ATOM      2  C   UNL     1     102.832 125.483  81.899  0.00  0.00    +0.000 C 
ENDROOT
BRANCH   1   9
ATOM      3  C   UNL     1     102.619 128.753  83.614  0.00  0.00    +0.000 C 
ATOM      4  C   UNL     1     101.205 128.339  83.308  0.00  0.00    +0.000 A 
ATOM      5  C   UNL     1     100.143 129.176  83.684  0.00  0.00    +0.000 A 
ATOM      6  C   UNL     1      98.822 128.817  83.412  0.00  0.00    +0.000 A 
ATOM      7  C   UNL     1      98.544 127.619  82.760  0.00  0.00    +0.000 A 
ATOM      8  C   UNL     1      99.589 126.777  82.381  0.00  0.00    +0.000 A 
ATOM      9  C   UNL     1     100.917 127.130  82.650  0.00  0.00    +0.000 A 
ENDBRANCH   1   9
BRANCH   2  10
ATOM     10  C   UNL     1     103.869 124.585  81.495  0.00  0.00    +0.000 A 
ATOM     11  C   UNL     1     104.315 123.591  82.365  0.00  0.00    +0.000 A 
ATOM     12  C   UNL     1     105.327 122.716  81.962  0.00  0.00    +0.000 A 
ATOM     13  C   UNL     1     105.899 122.824  80.692  0.00  0.00    +0.000 A 
ATOM     14  C   UNL     1     105.452 123.821  79.824  0.00  0.00    +0.000 A 
ATOM     15  C   UNL     1     104.439 124.700  80.225  0.00  0.00    +0.000 A 
BRANCH  13  16
ATOM     16  O   UNL     1     106.877 121.905  80.426  0.00  0.00    +0.000 OA
ATOM     17  C   UNL     1     107.033 120.844  81.359  0.00  0.00    +0.000 C 
ENDBRANCH  13  16
ENDBRANCH   2  10
TORSDOF 3
ENDMDL
