MODEL 1
REMARK VINA RESULT:      -4.4      0.000      0.000
REMARK  Name = *****
REMARK  4 active torsions:
REMARK  status: ('A' for Active; 'I' for Inactive)
REMARK    1  A    between atoms: C_4  and  C_7
REMARK    2  A    between atoms: C_7  and  O_8
REMARK    3  A    between atoms: O_8  and  C_9
REMARK    4  A    between atoms: C_9  and  C_11
REMARK                            x       y       z     vdW  Elec       q    Type
REMARK                         _______ _______ _______ _____ _____    ______ ____
ROOT
ATOM      1  C   UNL     1     104.626 124.343  80.138  0.00  0.00    +0.000 C 
ATOM      2  O   UNL     1     105.549 124.488  79.354  0.00  0.00    +0.000 OA
ENDROOT
BRANCH   1   3
ATOM      3  C   UNL     1     104.638 123.338  81.235  0.00  0.00    +0.000 A 
ATOM      4  C   UNL     1     104.909 121.983  81.008  0.00  0.00    +0.000 A 
ATOM      5  C   UNL     1     104.910 121.090  82.078  0.00  0.00    +0.000 A 
ATOM      6  C   UNL     1     104.646 121.531  83.375  0.00  0.00    +0.000 A 
ATOM      7  C   UNL     1     104.379 122.880  83.607  0.00  0.00    +0.000 A 
ATOM      8  C   UNL     1     104.377 123.781  82.541  0.00  0.00    +0.000 A 
ATOM      9 CL   UNL     1     105.244 119.425  81.799  0.00  0.00    +0.000 Cl
ENDBRANCH   1   3
BRANCH   1  10
ATOM     10  O   UNL     1     103.473 125.053  80.164  0.00  0.00    +0.000 OA
BRANCH  10  11
ATOM     11  C   UNL     1     103.616 126.474  80.275  0.00  0.00    +0.000 C 
BRANCH  11  15
ATOM     12  C   UNL     1     101.467 127.799  83.768  0.00  0.00    +0.000 A 
ATOM     13  C   UNL     1     102.585 128.507  83.327  0.00  0.00    +0.000 A 
ATOM     14  C   UNL     1     103.279 128.083  82.194  0.00  0.00    +0.000 A 
ATOM     15  C   UNL     1     102.856 126.950  81.484  0.00  0.00    +0.000 A 
ATOM     16  C   UNL     1     101.738 126.239  81.943  0.00  0.00    +0.000 A 
ATOM     17  C   UNL     1     101.046 126.664  83.077  0.00  0.00    +0.000 A 
ENDBRANCH  11  15
ENDBRANCH  10  11
ENDBRANCH   1  10
TORSDOF 4
ENDMDL
