REMARK  Name = *****
REMARK  3 active torsions:
REMARK  status: ('A' for Active; 'I' for Inactive)
REMARK    1  A    between atoms: C_4  and  O_8
REMARK    2  A    between atoms: O_8  and  C_9
REMARK    3  A    between atoms: C_9  and  C_11
REMARK                            x       y       z     vdW  Elec       q    Type
REMARK                         _______ _______ _______ _____ _____    ______ ____
ROOT
ATOM      1  O   UNL     1       0.130   2.393  -0.739  0.00  0.00    +0.000 OA
ENDROOT
BRANCH   1   5
ATOM      2  C   UNL     1      -0.811  -1.619  -1.462  0.00  0.00    +0.000 A 
ATOM      3  C   UNL     1      -0.936  -0.672  -2.480  0.00  0.00    +0.000 A 
ATOM      4  C   UNL     1      -0.624   0.659  -2.223  0.00  0.00    +0.000 A 
ATOM      5  C   UNL     1      -0.201   1.055  -0.956  0.00  0.00    +0.000 A 
ATOM      6  C   UNL     1      -0.058   0.110   0.060  0.00  0.00    +0.000 A 
ATOM      7  C   UNL     1      -0.369  -1.229  -0.194  0.00  0.00    +0.000 A 
ATOM      8 CL   UNL     1       0.508   0.555   1.627  0.00  0.00    +0.000 Cl
ATOM      9  F   UNL     1      -0.730   1.560  -3.211  0.00  0.00    +0.000 F 
ENDBRANCH   1   5
BRANCH   1  10
ATOM     10  C   UNL     1      -0.981   3.140  -0.401  0.00  0.00    +0.000 C 
ATOM     11  O   UNL     1      -2.130   2.741  -0.284  0.00  0.00    +0.000 OA
BRANCH  10  12
ATOM     12  C   UNL     1      -0.588   4.562  -0.188  0.00  0.00    +0.000 A 
ATOM     13  C   UNL     1       0.746   4.994  -0.225  0.00  0.00    +0.000 A 
ATOM     14  C   UNL     1       1.054   6.342  -0.015  0.00  0.00    +0.000 A 
ATOM     15  C   UNL     1       0.034   7.260   0.233  0.00  0.00    +0.000 A 
ATOM     16  C   UNL     1      -1.295   6.842   0.274  0.00  0.00    +0.000 A 
ATOM     17  C   UNL     1      -1.605   5.495   0.065  0.00  0.00    +0.000 A 
ATOM     18 CL   UNL     1       0.418   8.916   0.491  0.00  0.00    +0.000 Cl
ENDBRANCH  10  12
ENDBRANCH   1  10
TORSDOF 3
