MODEL 1
REMARK VINA RESULT:      -4.8      0.000      0.000
REMARK  Name = *****
REMARK  3 active torsions:
REMARK  status: ('A' for Active; 'I' for Inactive)
REMARK    1  A    between atoms: N_2  and  C_3
REMARK    2  A    between atoms: C_8  and  C_9
REMARK    3  A    between atoms: C_10  and  C_11
REMARK                            x       y       z     vdW  Elec       q    Type
REMARK                         _______ _______ _______ _____ _____    ______ ____
ROOT
ATOM      1  C   UNL     1     102.876 125.784  82.732  0.00  0.00    +0.000 C 
ATOM      2  C   UNL     1     101.633 126.010  82.276  0.00  0.00    +0.000 C 
ENDROOT
BRANCH   2   3
ATOM      3  C   UNL     1     100.801 127.144  82.700  0.00  0.00    +0.000 A 
ATOM      4  C   UNL     1     101.421 128.216  83.358  0.00  0.00    +0.000 A 
ATOM      5  C   UNL     1     100.672 129.308  83.808  0.00  0.00    +0.000 A 
ATOM      6  C   UNL     1      99.291 129.340  83.613  0.00  0.00    +0.000 A 
ATOM      7  C   UNL     1      98.660 128.275  82.973  0.00  0.00    +0.000 A 
ATOM      8  C   UNL     1      99.411 127.190  82.527  0.00  0.00    +0.000 A 
ATOM      9  F   UNL     1      98.762 126.175  81.934  0.00  0.00    +0.000 F 
ENDBRANCH   2   3
BRANCH   1  15
ATOM     10  C   UNL     1     104.172 123.648  83.153  0.00  0.00    +0.000 A 
ATOM     11  C   UNL     1     104.947 122.585  82.676  0.00  0.00    +0.000 A 
ATOM     12  C   UNL     1     105.246 122.508  81.318  0.00  0.00    +0.000 A 
ATOM     13  C   UNL     1     104.775 123.490  80.446  0.00  0.00    +0.000 A 
ATOM     14  C   UNL     1     104.002 124.551  80.931  0.00  0.00    +0.000 A 
ATOM     15  C   UNL     1     103.683 124.640  82.292  0.00  0.00    +0.000 A 
BRANCH  10  17
ATOM     16  C   UNL     1     103.728 123.763  85.675  0.00  0.00    +0.000 C 
ATOM     17  N   UNL     1     103.918 123.697  84.520  0.00  0.00    +0.000 NA
ENDBRANCH  10  17
ENDBRANCH   1  15
TORSDOF 3
ENDMDL
