MODEL 1
REMARK VINA RESULT:      -5.0      0.000      0.000
REMARK  Name = *****
REMARK  3 active torsions:
REMARK  status: ('A' for Active; 'I' for Inactive)
REMARK    1  A    between atoms: C_4  and  C_16
REMARK    2  A    between atoms: C_5  and  C_7
REMARK    3  A    between atoms: C_8  and  C_9
REMARK                            x       y       z     vdW  Elec       q    Type
REMARK                         _______ _______ _______ _____ _____    ______ ____
ROOT
ATOM      1  C   UNL     1     101.749 127.243  83.294  0.00  0.00    +0.000 C 
ATOM      2  C   UNL     1     102.413 127.154  82.130  0.00  0.00    +0.000 C 
ENDROOT
BRANCH   2   3
ATOM      3  C   UNL     1     103.147 125.957  81.700  0.00  0.00    +0.000 A 
ATOM      4  C   UNL     1     103.638 125.810  80.395  0.00  0.00    +0.000 A 
ATOM      5  C   UNL     1     104.358 124.668  80.031  0.00  0.00    +0.000 A 
ATOM      6  C   UNL     1     104.599 123.671  80.973  0.00  0.00    +0.000 A 
ATOM      7  C   UNL     1     104.131 123.809  82.277  0.00  0.00    +0.000 A 
ATOM      8  C   UNL     1     103.412 124.952  82.640  0.00  0.00    +0.000 A 
ATOM      9 CL   UNL     1     105.485 122.266  80.526  0.00  0.00    +0.000 Cl
ENDBRANCH   2   3
BRANCH   1  14
ATOM     10  C   UNL     1     101.211 130.749  84.528  0.00  0.00    +0.000 A 
ATOM     11  C   UNL     1      99.826 130.885  84.452  0.00  0.00    +0.000 A 
ATOM     12  C   UNL     1      99.049 129.820  83.996  0.00  0.00    +0.000 A 
ATOM     13  C   UNL     1      99.655 128.615  83.613  0.00  0.00    +0.000 A 
ATOM     14  C   UNL     1     101.051 128.472  83.683  0.00  0.00    +0.000 A 
ATOM     15  C   UNL     1     101.820 129.552  84.147  0.00  0.00    +0.000 A 
BRANCH  13  16
ATOM     16  C   UNL     1      98.786 127.509  83.145  0.00  0.00    +0.000 C 
ATOM     17  O   UNL     1      98.375 127.449  81.991  0.00  0.00    +0.000 OA
ENDBRANCH  13  16
ENDBRANCH   1  14
TORSDOF 3
ENDMDL
