MODEL 1
REMARK VINA RESULT:      -4.1      0.000      0.000
REMARK  Name = *****
REMARK  3 active torsions:
REMARK  status: ('A' for Active; 'I' for Inactive)
REMARK    1  A    between atoms: C_1  and  C_2
REMARK    2  A    between atoms: C_3  and  N_9
REMARK    3  A    between atoms: C_10  and  C_11
REMARK                            x       y       z     vdW  Elec       q    Type
REMARK                         _______ _______ _______ _____ _____    ______ ____
ROOT
ATOM      1  C   UNL     1     103.793 128.843  83.504  0.00  0.00    +0.000 C 
ATOM      2  C   UNL     1     102.433 128.260  83.241  0.00  0.00    +0.000 A 
ATOM      3  C   UNL     1     102.291 127.054  82.529  0.00  0.00    +0.000 A 
ATOM      4  C   UNL     1     101.017 126.517  82.320  0.00  0.00    +0.000 A 
ATOM      5  C   UNL     1      99.889 127.190  82.785  0.00  0.00    +0.000 A 
ATOM      6  C   UNL     1     100.018 128.396  83.467  0.00  0.00    +0.000 A 
ATOM      7  C   UNL     1     101.287 128.930  83.695  0.00  0.00    +0.000 A 
ATOM      8 CL   UNL     1      98.325 126.526  82.512  0.00  0.00    +0.000 Cl
ENDROOT
BRANCH   3   9
ATOM      9  N   UNL     1     103.412 126.353  82.057  0.00  0.00    +0.000 NA
ATOM     10  C   UNL     1     103.163 125.333  81.296  0.00  0.00    +0.000 C 
BRANCH  10  11
ATOM     11  C   UNL     1     104.239 124.543  80.752  0.00  0.00    +0.000 A 
ATOM     12  C   UNL     1     104.548 123.219  80.988  0.00  0.00    +0.000 A 
ATOM     13  C   UNL     1     105.696 122.794  80.258  0.00  0.00    +0.000 A 
ATOM     14  C   UNL     1     106.223 123.810  79.491  0.00  0.00    +0.000 A 
ATOM     15  S   UNL     1     105.333 125.263  79.654  0.00  0.00    +0.000 S 
ENDBRANCH  10  11
ENDBRANCH   3   9
TORSDOF 2
ENDMDL
