MODEL 1
REMARK VINA RESULT:      -4.9      0.000      0.000
REMARK  Name = *****
REMARK  4 active torsions:
REMARK  status: ('A' for Active; 'I' for Inactive)
REMARK    1  A    between atoms: C_1  and  C_2
REMARK    2  A    between atoms: C_2  and  C_4
REMARK    3  A    between atoms: C_7  and  C_10
REMARK    4  A    between atoms: C_11  and  C_12
REMARK                            x       y       z     vdW  Elec       q    Type
REMARK                         _______ _______ _______ _____ _____    ______ ____
ROOT
ATOM      1  C   UNL     1     105.971 122.493  81.101  0.00  0.00    +0.000 A 
ATOM      2  C   UNL     1     105.491 123.365  80.116  0.00  0.00    +0.000 A 
ATOM      3  C   UNL     1     104.465 124.268  80.417  0.00  0.00    +0.000 A 
ATOM      4  C   UNL     1     103.913 124.305  81.700  0.00  0.00    +0.000 A 
ATOM      5  C   UNL     1     104.381 123.430  82.682  0.00  0.00    +0.000 A 
ATOM      6  C   UNL     1     105.405 122.526  82.383  0.00  0.00    +0.000 A 
ENDROOT
BRANCH   1   8
ATOM      7  C   UNL     1     107.069 120.199  81.556  0.00  0.00    +0.000 C 
ATOM      8  C   UNL     1     107.074 121.522  80.835  0.00  0.00    +0.000 C 
ATOM      9  O   UNL     1     107.965 121.809  80.039  0.00  0.00    +0.000 OA
ENDBRANCH   1   8
BRANCH   4  10
ATOM     10  C   UNL     1     102.886 125.248  82.011  0.00  0.00    +0.000 C 
ATOM     11  C   UNL     1     102.034 126.045  82.299  0.00  0.00    +0.000 C 
BRANCH  11  12
ATOM     12  C   UNL     1     101.031 127.000  82.669  0.00  0.00    +0.000 A 
ATOM     13  C   UNL     1      99.697 126.735  82.335  0.00  0.00    +0.000 A 
ATOM     14  C   UNL     1      98.691 127.644  82.667  0.00  0.00    +0.000 A 
ATOM     15  C   UNL     1      99.011 128.826  83.334  0.00  0.00    +0.000 A 
ATOM     16  C   UNL     1     100.337 129.098  83.673  0.00  0.00    +0.000 A 
ATOM     17  C   UNL     1     101.346 128.189  83.341  0.00  0.00    +0.000 A 
ATOM     18 CL   UNL     1     102.969 128.587  83.789  0.00  0.00    +0.000 Cl
ENDBRANCH  11  12
ENDBRANCH   4  10
TORSDOF 3
ENDMDL
