REMARK  Name = *****
REMARK  1 active torsions:
REMARK  status: ('A' for Active; 'I' for Inactive)
REMARK    1  A    between atoms: C_2  and  C_11
REMARK                            x       y       z     vdW  Elec       q    Type
REMARK                         _______ _______ _______ _____ _____    ______ ____
ROOT
ATOM      1  C   UNL     1       1.043   1.474  -0.008  0.00  0.00    +0.000 C 
ATOM      2  C   UNL     1       2.281   0.703  -0.528  0.00  0.00    +0.000 C 
ATOM      3  C   UNL     1       2.297  -0.746  -0.096  0.00  0.00    +0.000 C 
ATOM      4  C   UNL     1       1.201  -1.407   0.305  0.00  0.00    +0.000 C 
ATOM      5  C   UNL     1      -0.112  -0.754   0.295  0.00  0.00    +0.000 A 
ATOM      6  C   UNL     1      -1.276  -1.510   0.465  0.00  0.00    +0.000 A 
ATOM      7  C   UNL     1      -2.528  -0.893   0.442  0.00  0.00    +0.000 A 
ATOM      8  C   UNL     1      -2.625   0.485   0.256  0.00  0.00    +0.000 A 
ATOM      9  C   UNL     1      -1.470   1.249   0.094  0.00  0.00    +0.000 A 
ATOM     10  C   UNL     1      -0.210   0.636   0.103  0.00  0.00    +0.000 A 
ENDROOT
BRANCH   2  11
ATOM     11  C   UNL     1       2.450   0.861  -2.035  0.00  0.00    +0.000 A 
ATOM     12  C   UNL     1       3.450   1.709  -2.539  0.00  0.00    +0.000 A 
ATOM     13  C   UNL     1       3.606   1.890  -3.916  0.00  0.00    +0.000 A 
ATOM     14  C   UNL     1       2.766   1.227  -4.807  0.00  0.00    +0.000 A 
ATOM     15  C   UNL     1       1.767   0.386  -4.323  0.00  0.00    +0.000 A 
ATOM     16  C   UNL     1       1.607   0.207  -2.948  0.00  0.00    +0.000 A 
ENDBRANCH   2  11
TORSDOF 1
