REMARK  Name = *****
REMARK  3 active torsions:
REMARK  status: ('A' for Active; 'I' for Inactive)
REMARK    1  A    between atoms: C_4  and  N_7
REMARK    2  A    between atoms: C_8  and  C_9
REMARK    3  A    between atoms: C_11  and  C_15
REMARK                            x       y       z     vdW  Elec       q    Type
REMARK                         _______ _______ _______ _____ _____    ______ ____
ROOT
ATOM      1  C   UNL     1      -5.029  -0.151  -0.368  0.00  0.00    +0.000 A 
ATOM      2  C   UNL     1      -5.512   0.913  -1.137  0.00  0.00    +0.000 A 
ATOM      3  C   UNL     1      -6.892   1.072  -1.340  0.00  0.00    +0.000 A 
ATOM      4  C   UNL     1      -7.772   0.136  -0.771  0.00  0.00    +0.000 A 
ATOM      5  C   UNL     1      -7.287  -0.925  -0.004  0.00  0.00    +0.000 A 
ATOM      6  C   UNL     1      -5.914  -1.069   0.200  0.00  0.00    +0.000 A 
ENDROOT
BRANCH   3   7
ATOM      7  C   UNL     1      -7.411   2.206  -2.188  0.00  0.00    +0.000 C 
ATOM      8  F   UNL     1      -6.698   3.356  -2.038  0.00  0.00    +0.000 F 
ATOM      9  F   UNL     1      -7.382   1.914  -3.517  0.00  0.00    +0.000 F 
ATOM     10  F   UNL     1      -8.704   2.535  -1.907  0.00  0.00    +0.000 F 
ENDBRANCH   3   7
BRANCH   1  12
ATOM     11  N   UNL     1      -2.709   0.484  -0.658  0.00  0.00    +0.000 NA
ATOM     12  C   UNL     1      -3.581  -0.325  -0.145  0.00  0.00    +0.000 C 
BRANCH  11  16
ATOM     13  C   UNL     1       1.319  -0.333   0.210  0.00  0.00    +0.000 A 
ATOM     14  C   UNL     1       0.702  -0.952  -0.876  0.00  0.00    +0.000 A 
ATOM     15  C   UNL     1      -0.638  -0.681  -1.164  0.00  0.00    +0.000 A 
ATOM     16  C   UNL     1      -1.368   0.202  -0.364  0.00  0.00    +0.000 A 
ATOM     17  C   UNL     1      -0.738   0.831   0.712  0.00  0.00    +0.000 A 
ATOM     18  C   UNL     1       0.601   0.562   1.003  0.00  0.00    +0.000 A 
ENDBRANCH  11  16
ENDBRANCH   1  12
TORSDOF 3
