MODEL 1
REMARK VINA RESULT:      -4.3      0.000      0.000
REMARK  Name = *****
REMARK  4 active torsions:
REMARK  status: ('A' for Active; 'I' for Inactive)
REMARK    1  A    between atoms: C_4  and  C_8
REMARK    2  A    between atoms: C_8  and  O_10
REMARK    3  A    between atoms: O_10  and  C_11
REMARK    4  A    between atoms: C_11  and  C_12
REMARK                            x       y       z     vdW  Elec       q    Type
REMARK                         _______ _______ _______ _____ _____    ______ ____
ROOT
ATOM      1  C   UNL     1     103.876 126.514  80.664  0.00  0.00    +0.000 C 
ATOM      2  O   UNL     1     104.864 127.140  80.308  0.00  0.00    +0.000 OA
ENDROOT
BRANCH   1   6
ATOM      3  C   UNL     1     103.403 126.673  83.760  0.00  0.00    +0.000 C 
ATOM      4  C   UNL     1     101.940 126.250  83.630  0.00  0.00    +0.000 C 
ATOM      5  C   UNL     1     101.848 125.963  82.115  0.00  0.00    +0.000 C 
ATOM      6  C   UNL     1     102.744 127.080  81.495  0.00  0.00    +0.000 C 
ATOM      7  C   UNL     1     103.264 127.821  82.752  0.00  0.00    +0.000 C 
ATOM      8  C   UNL     1     102.081 128.531  83.376  0.00  0.00    +0.000 C 
ATOM      9  C   UNL     1     101.283 127.585  83.894  0.00  0.00    +0.000 C 
ENDBRANCH   1   6
BRANCH   1  10
ATOM     10  O   UNL     1     103.604 125.220  80.338  0.00  0.00    +0.000 OA
BRANCH  10  11
ATOM     11  C   UNL     1     104.743 124.367  80.178  0.00  0.00    +0.000 C 
BRANCH  11  12
ATOM     12  C   UNL     1     104.631 123.206  81.132  0.00  0.00    +0.000 A 
ATOM     13  C   UNL     1     104.516 123.428  82.512  0.00  0.00    +0.000 A 
ATOM     14  C   UNL     1     104.437 122.350  83.396  0.00  0.00    +0.000 A 
ATOM     15  C   UNL     1     104.484 121.044  82.912  0.00  0.00    +0.000 A 
ATOM     16  C   UNL     1     104.612 120.814  81.543  0.00  0.00    +0.000 A 
ATOM     17  C   UNL     1     104.689 121.889  80.658  0.00  0.00    +0.000 A 
ENDBRANCH  11  12
ENDBRANCH  10  11
ENDBRANCH   1  10
TORSDOF 4
ENDMDL
