MODEL 1
REMARK VINA RESULT:      -4.1      0.000      0.000
REMARK  Name = *****
REMARK  3 active torsions:
REMARK  status: ('A' for Active; 'I' for Inactive)
REMARK    1  A    between atoms: C_4  and  O_7
REMARK    2  A    between atoms: O_7  and  C_8
REMARK    3  A    between atoms: C_8  and  C_9
REMARK                            x       y       z     vdW  Elec       q    Type
REMARK                         _______ _______ _______ _____ _____    ______ ____
ROOT
ATOM      1  O   UNL     1     101.493 125.889  81.964  0.00  0.00    +0.000 OA
ENDROOT
BRANCH   1   5
ATOM      2  C   UNL     1      99.322 129.017  83.649  0.00  0.00    +0.000 A 
ATOM      3  C   UNL     1      98.621 127.998  83.008  0.00  0.00    +0.000 A 
ATOM      4  C   UNL     1      99.307 126.926  82.427  0.00  0.00    +0.000 A 
ATOM      5  C   UNL     1     100.701 126.873  82.486  0.00  0.00    +0.000 A 
ATOM      6  C   UNL     1     101.397 127.900  83.130  0.00  0.00    +0.000 A 
ATOM      7  C   UNL     1     100.712 128.969  83.710  0.00  0.00    +0.000 A 
ENDBRANCH   1   5
BRANCH   1   8
ATOM      8  C   UNL     1     102.640 125.509  82.725  0.00  0.00    +0.000 C 
BRANCH   8   9
ATOM      9  C   UNL     1     103.635 124.921  81.765  0.00  0.00    +0.000 A 
ATOM     10  C   UNL     1     104.267 123.689  81.804  0.00  0.00    +0.000 A 
ATOM     11  C   UNL     1     105.138 123.487  80.693  0.00  0.00    +0.000 A 
ATOM     12  C   UNL     1     105.123 124.570  79.853  0.00  0.00    +0.000 A 
ATOM     13  S   UNL     1     104.094 125.808  80.366  0.00  0.00    +0.000 S 
ATOM     14 CL   UNL     1     106.016 124.749  78.397  0.00  0.00    +0.000 Cl
ENDBRANCH   8   9
ENDBRANCH   1   8
TORSDOF 3
ENDMDL
