MODEL 1
REMARK VINA RESULT:      -4.7      0.000      0.000
REMARK  Name = *****
REMARK  4 active torsions:
REMARK  status: ('A' for Active; 'I' for Inactive)
REMARK    1  A    between atoms: C_1  and  C_2
REMARK    2  A    between atoms: C_4  and  C_8
REMARK    3  A    between atoms: C_8  and  O_10
REMARK    4  A    between atoms: O_10  and  C_11
REMARK                            x       y       z     vdW  Elec       q    Type
REMARK                         _______ _______ _______ _____ _____    ______ ____
ROOT
ATOM      1  C   UNL     1      87.809  70.629  86.077  0.00  0.00    +0.000 C 
ATOM      2  O   UNL     1      88.016  70.640  84.872  0.00  0.00    +0.000 OA
ENDROOT
BRANCH   1   6
ATOM      3  C   UNL     1      83.334  72.969  85.773  0.00  0.00    +0.000 C 
ATOM      4  C   UNL     1      84.461  72.401  86.583  0.00  0.00    +0.000 A 
ATOM      5  C   UNL     1      85.567  71.816  85.947  0.00  0.00    +0.000 A 
ATOM      6  C   UNL     1      86.609  71.253  86.702  0.00  0.00    +0.000 A 
ATOM      7  C   UNL     1      86.531  71.272  88.100  0.00  0.00    +0.000 A 
ATOM      8  C   UNL     1      85.426  71.837  88.737  0.00  0.00    +0.000 A 
ATOM      9  C   UNL     1      84.394  72.393  87.982  0.00  0.00    +0.000 A 
ENDBRANCH   1   6
BRANCH   1  10
ATOM     10  O   UNL     1      88.606  70.064  87.055  0.00  0.00    +0.000 OA
BRANCH  10  11
ATOM     11  C   UNL     1      88.772  68.682  86.923  0.00  0.00    +0.000 A 
ATOM     12  C   UNL     1      89.948  68.163  86.385  0.00  0.00    +0.000 A 
ATOM     13  C   UNL     1      90.095  66.784  86.323  0.00  0.00    +0.000 A 
ATOM     14  C   UNL     1      89.103  65.931  86.800  0.00  0.00    +0.000 A 
ATOM     15  C   UNL     1      87.937  66.463  87.355  0.00  0.00    +0.000 A 
ATOM     16  C   UNL     1      87.773  67.848  87.425  0.00  0.00    +0.000 A 
ATOM     17  F   UNL     1      91.215  66.263  85.804  0.00  0.00    +0.000 F 
ENDBRANCH  10  11
ENDBRANCH   1  10
TORSDOF 3
ENDMDL
