MODEL 1
REMARK VINA RESULT:      -4.8      0.000      0.000
REMARK  Name = *****
REMARK  4 active torsions:
REMARK  status: ('A' for Active; 'I' for Inactive)
REMARK    1  A    between atoms: C_4  and  C_7
REMARK    2  A    between atoms: C_7  and  O_9
REMARK    3  A    between atoms: O_9  and  C_10
REMARK    4  A    between atoms: C_14  and  C_16
REMARK                            x       y       z     vdW  Elec       q    Type
REMARK                         _______ _______ _______ _____ _____    ______ ____
ROOT
ATOM      1  C   UNL     1     101.075 126.627  83.564  0.00  0.00    +0.000 A 
ATOM      2  C   UNL     1     101.888 127.018  84.626  0.00  0.00    +0.000 A 
ATOM      3  C   UNL     1     103.246 127.232  84.400  0.00  0.00    +0.000 A 
ATOM      4  C   UNL     1     103.775 127.072  83.116  0.00  0.00    +0.000 A 
ATOM      5  C   UNL     1     102.949 126.705  82.039  0.00  0.00    +0.000 A 
ATOM      6  C   UNL     1     101.584 126.482  82.275  0.00  0.00    +0.000 A 
ENDROOT
BRANCH   5   7
ATOM      7  C   UNL     1     103.521 126.518  80.657  0.00  0.00    +0.000 C 
ATOM      8  F   UNL     1     103.168 127.509  79.790  0.00  0.00    +0.000 F 
ATOM      9  F   UNL     1     104.882 126.488  80.655  0.00  0.00    +0.000 F 
ATOM     10  F   UNL     1     103.120 125.356  80.070  0.00  0.00    +0.000 F 
ENDBRANCH   5   7
BRANCH   1  11
ATOM     11  O   UNL     1      99.705 126.454  83.767  0.00  0.00    +0.000 OA
BRANCH  11  12
ATOM     12  C   UNL     1      98.932 127.378  83.088  0.00  0.00    +0.000 C 
ATOM     13  O   UNL     1      98.329 127.207  82.039  0.00  0.00    +0.000 OA
BRANCH  12  17
ATOM     14  C   UNL     1      98.849 131.040  85.324  0.00  0.00    +0.000 A 
ATOM     15  C   UNL     1      99.408 131.037  84.045  0.00  0.00    +0.000 A 
ATOM     16  C   UNL     1      99.445 129.857  83.300  0.00  0.00    +0.000 A 
ATOM     17  C   UNL     1      98.921 128.669  83.832  0.00  0.00    +0.000 A 
ATOM     18  C   UNL     1      98.361 128.683  85.117  0.00  0.00    +0.000 A 
ATOM     19  C   UNL     1      98.326 129.864  85.860  0.00  0.00    +0.000 A 
ENDBRANCH  12  17
ENDBRANCH  11  12
ENDBRANCH   1  11
TORSDOF 4
ENDMDL
