MODEL 1
REMARK VINA RESULT:      -4.4      0.000      0.000
REMARK  Name = *****
REMARK  5 active torsions:
REMARK  status: ('A' for Active; 'I' for Inactive)
REMARK    1  A    between atoms: C_1  and  C_2
REMARK    2  A    between atoms: C_2  and  C_3
REMARK    3  A    between atoms: C_2  and  N_9
REMARK    4  A    between atoms: N_9  and  C_10
REMARK    5  A    between atoms: C_10  and  C_11
REMARK                            x       y       z     vdW  Elec       q    Type
REMARK                         _______ _______ _______ _____ _____    ______ ____
ROOT
ATOM      1  C   UNL     1     105.809 125.354  80.496  0.00  0.00    +0.000 C 
ATOM      2  C   UNL     1     104.653 124.412  80.153  0.00  0.00    +0.000 C 
ENDROOT
BRANCH   2   3
ATOM      3  C   UNL     1     104.615 123.250  81.132  0.00  0.00    +0.000 A 
ATOM      4  C   UNL     1     104.676 121.922  80.684  0.00  0.00    +0.000 A 
ATOM      5  C   UNL     1     104.629 120.862  81.590  0.00  0.00    +0.000 A 
ATOM      6  C   UNL     1     104.516 121.117  82.955  0.00  0.00    +0.000 A 
ATOM      7  C   UNL     1     104.449 122.430  83.415  0.00  0.00    +0.000 A 
ATOM      8  C   UNL     1     104.496 123.492  82.509  0.00  0.00    +0.000 A 
ENDBRANCH   2   3
BRANCH   2   9
ATOM      9  N   UNL     1     103.414 125.214  80.153  0.00  0.00    +0.000 NA
BRANCH   9  10
ATOM     10  C   UNL     1     103.559 126.405  80.631  0.00  0.00    +0.000 C 
BRANCH  10  11
ATOM     11  C   UNL     1     102.713 126.914  81.727  0.00  0.00    +0.000 A 
ATOM     12  C   UNL     1     103.037 128.100  82.391  0.00  0.00    +0.000 A 
ATOM     13  C   UNL     1     102.221 128.562  83.424  0.00  0.00    +0.000 A 
ATOM     14  C   UNL     1     101.086 127.840  83.793  0.00  0.00    +0.000 A 
ATOM     15  C   UNL     1     100.763 126.655  83.130  0.00  0.00    +0.000 A 
ATOM     16  C   UNL     1     101.576 126.189  82.094  0.00  0.00    +0.000 A 
ENDBRANCH  10  11
ENDBRANCH   9  10
ENDBRANCH   2   9
TORSDOF 4
ENDMDL
