MODEL 1
REMARK VINA RESULT:      -4.5      0.000      0.000
REMARK  Name = *****
REMARK  4 active torsions:
REMARK  status: ('A' for Active; 'I' for Inactive)
REMARK    1  A    between atoms: C_1  and  C_2
REMARK    2  A    between atoms: C_5  and  O_8
REMARK    3  A    between atoms: O_8  and  C_9
REMARK    4  A    between atoms: C_9  and  C_11
REMARK                            x       y       z     vdW  Elec       q    Type
REMARK                         _______ _______ _______ _____ _____    ______ ____
ROOT
ATOM      1  O   UNL     1     100.316 126.797  83.442  0.00  0.00    +0.000 OA
ENDROOT
BRANCH   1   6
ATOM      2  C   UNL     1     105.215 127.054  80.556  0.00  0.00    +0.000 C 
ATOM      3  C   UNL     1     103.908 127.016  81.293  0.00  0.00    +0.000 A 
ATOM      4  C   UNL     1     103.540 128.074  82.137  0.00  0.00    +0.000 A 
ATOM      5  C   UNL     1     102.340 128.029  82.848  0.00  0.00    +0.000 A 
ATOM      6  C   UNL     1     101.503 126.925  82.705  0.00  0.00    +0.000 A 
ATOM      7  C   UNL     1     101.866 125.849  81.898  0.00  0.00    +0.000 A 
ATOM      8  C   UNL     1     103.069 125.897  81.192  0.00  0.00    +0.000 A 
ENDBRANCH   1   6
BRANCH   1   9
ATOM      9  C   UNL     1      99.216 127.508  82.995  0.00  0.00    +0.000 C 
ATOM     10  O   UNL     1      98.494 127.235  82.047  0.00  0.00    +0.000 OA
BRANCH   9  11
ATOM     11  C   UNL     1      99.010 128.706  83.856  0.00  0.00    +0.000 A 
ATOM     12  C   UNL     1      98.359 128.527  85.085  0.00  0.00    +0.000 A 
ATOM     13  C   UNL     1      98.138 129.616  85.932  0.00  0.00    +0.000 A 
ATOM     14  C   UNL     1      98.568 130.887  85.558  0.00  0.00    +0.000 A 
ATOM     15  C   UNL     1      99.218 131.075  84.338  0.00  0.00    +0.000 A 
ATOM     16  C   UNL     1      99.439 129.989  83.487  0.00  0.00    +0.000 A 
ENDBRANCH   9  11
ENDBRANCH   1   9
TORSDOF 3
ENDMDL
