REMARK  Name = *****
REMARK  4 active torsions:
REMARK  status: ('A' for Active; 'I' for Inactive)
REMARK    1  A    between atoms: C_3  and  C_10
REMARK    2  A    between atoms: C_5  and  C_7
REMARK    3  A    between atoms: C_10  and  O_12
REMARK    4  A    between atoms: O_12  and  C_13
REMARK                            x       y       z     vdW  Elec       q    Type
REMARK                         _______ _______ _______ _____ _____    ______ ____
ROOT
ATOM      1  C   UNL     1      -1.529  -2.143  -0.591  0.00  0.00    +0.000 C 
ATOM      2  O   UNL     1      -2.748  -2.075  -0.615  0.00  0.00    +0.000 OA
ENDROOT
BRANCH   1   5
ATOM      3  C   UNL     1       1.478  -0.042   0.423  0.00  0.00    +0.000 A 
ATOM      4  C   UNL     1       0.716  -1.143   0.030  0.00  0.00    +0.000 A 
ATOM      5  C   UNL     1      -0.667  -1.009  -0.156  0.00  0.00    +0.000 A 
ATOM      6  C   UNL     1      -1.281   0.237   0.063  0.00  0.00    +0.000 A 
ATOM      7  C   UNL     1      -0.520   1.346   0.454  0.00  0.00    +0.000 A 
ATOM      8  C   UNL     1       0.865   1.194   0.631  0.00  0.00    +0.000 A 
BRANCH   7   9
ATOM      9  C   UNL     1      -1.135   2.696   0.684  0.00  0.00    +0.000 C 
ATOM     10  O   UNL     1      -0.373   3.613   0.991  0.00  0.00    +0.000 OA
ATOM     11 CL   UNL     1      -2.862   2.912   0.512  0.00  0.00    +0.000 Cl
ENDBRANCH   7   9
ENDBRANCH   1   5
BRANCH   1  12
ATOM     12  O   UNL     1      -0.742  -3.212  -0.975  0.00  0.00    +0.000 OA
BRANCH  12  13
ATOM     13  C   UNL     1      -1.448  -4.291  -1.519  0.00  0.00    +0.000 A 
ATOM     14  C   UNL     1      -2.084  -4.173  -2.753  0.00  0.00    +0.000 A 
ATOM     15  C   UNL     1      -2.718  -5.289  -3.282  0.00  0.00    +0.000 A 
ATOM     16  C   UNL     1      -2.710  -6.509  -2.610  0.00  0.00    +0.000 A 
ATOM     17  C   UNL     1      -2.052  -6.620  -1.384  0.00  0.00    +0.000 A 
ATOM     18  C   UNL     1      -1.410  -5.508  -0.837  0.00  0.00    +0.000 A 
ATOM     19  F   UNL     1      -3.340  -5.195  -4.464  0.00  0.00    +0.000 F 
ENDBRANCH  12  13
ENDBRANCH   1  12
TORSDOF 4
