MODEL 1
REMARK VINA RESULT:      -4.3      0.000      0.000
REMARK  Name = *****
REMARK  5 active torsions:
REMARK  status: ('A' for Active; 'I' for Inactive)
REMARK    1  A    between atoms: C_1  and  S_2
REMARK    2  A    between atoms: S_2  and  C_3
REMARK    3  A    between atoms: S_2  and  C_12
REMARK    4  A    between atoms: C_3  and  C_4
REMARK    5  A    between atoms: C_7  and  C_10
REMARK                            x       y       z     vdW  Elec       q    Type
REMARK                         _______ _______ _______ _____ _____    ______ ____
ROOT
ATOM      1  C   UNL     1      87.036  68.442  88.236  0.00  0.00    +0.000 C 
ENDROOT
BRANCH   1   2
ATOM      2  C   UNL     1      88.082  67.664  87.477  0.00  0.00    +0.000 A 
ATOM      3  C   UNL     1      88.071  66.262  87.488  0.00  0.00    +0.000 A 
ATOM      4  C   UNL     1      89.051  65.538  86.803  0.00  0.00    +0.000 A 
ATOM      5  C   UNL     1      90.058  66.210  86.104  0.00  0.00    +0.000 A 
ATOM      6  C   UNL     1      90.080  67.607  86.093  0.00  0.00    +0.000 A 
ATOM      7  C   UNL     1      89.098  68.330  86.777  0.00  0.00    +0.000 A 
BRANCH   5   8
ATOM      8  C   UNL     1      91.066  65.469  85.405  0.00  0.00    +0.000 C 
ATOM      9  N   UNL     1      91.884  64.871  84.838  0.00  0.00    +0.000 NA
ENDBRANCH   5   8
ENDBRANCH   1   2
BRANCH   1  11
ATOM     10  C   UNL     1      86.909  70.216  90.272  0.00  0.00    +0.000 C 
ATOM     11  S   UNL     1      87.598  70.132  88.607  0.00  0.00    +0.000 S 
BRANCH  11  12
ATOM     12  C   UNL     1      86.371  71.071  87.683  0.00  0.00    +0.000 A 
ATOM     13  C   UNL     1      85.287  71.733  88.265  0.00  0.00    +0.000 A 
ATOM     14  C   UNL     1      84.372  72.428  87.468  0.00  0.00    +0.000 A 
ATOM     15  C   UNL     1      84.533  72.463  86.085  0.00  0.00    +0.000 A 
ATOM     16  C   UNL     1      85.608  71.803  85.496  0.00  0.00    +0.000 A 
ATOM     17  C   UNL     1      86.523  71.111  86.292  0.00  0.00    +0.000 A 
ENDBRANCH  11  12
ENDBRANCH   1  11
TORSDOF 4
ENDMDL
