REMARK  Name = *****
REMARK  3 active torsions:
REMARK  status: ('A' for Active; 'I' for Inactive)
REMARK    1  A    between atoms: C_3  and  C_8
REMARK    2  A    between atoms: C_8  and  O_10
REMARK    3  A    between atoms: O_10  and  C_11
REMARK                            x       y       z     vdW  Elec       q    Type
REMARK                         _______ _______ _______ _____ _____    ______ ____
ROOT
ATOM      1  C   UNL     1       2.434   2.213  -0.656  0.00  0.00    +0.000 C 
ATOM      2  O   UNL     1       3.584   2.397  -0.287  0.00  0.00    +0.000 OA
ENDROOT
BRANCH   1   5
ATOM      3  C   UNL     1       1.436  -0.930   1.175  0.00  0.00    +0.000 A 
ATOM      4  C   UNL     1       2.185   0.134   0.670  0.00  0.00    +0.000 A 
ATOM      5  C   UNL     1       1.584   1.100  -0.151  0.00  0.00    +0.000 A 
ATOM      6  C   UNL     1       0.221   0.996  -0.456  0.00  0.00    +0.000 A 
ATOM      7  C   UNL     1      -0.520  -0.071   0.054  0.00  0.00    +0.000 A 
ATOM      8  C   UNL     1       0.080  -1.033   0.865  0.00  0.00    +0.000 A 
ATOM      9 CL   UNL     1      -2.194  -0.201  -0.323  0.00  0.00    +0.000 Cl
ENDBRANCH   1   5
BRANCH   1  10
ATOM     10  O   UNL     1       1.736   2.946  -1.597  0.00  0.00    +0.000 OA
BRANCH  10  11
ATOM     11  C   UNL     1       2.456   4.061  -2.041  0.00  0.00    +0.000 A 
ATOM     12  C   UNL     1       2.297   5.305  -1.416  0.00  0.00    +0.000 A 
ATOM     13  C   UNL     1       3.010   6.401  -1.914  0.00  0.00    +0.000 A 
ATOM     14  C   UNL     1       3.853   6.247  -3.024  0.00  0.00    +0.000 A 
ATOM     15  C   UNL     1       3.984   5.003  -3.646  0.00  0.00    +0.000 A 
ATOM     16  C   UNL     1       3.279   3.906  -3.160  0.00  0.00    +0.000 A 
ATOM     17 CL   UNL     1       2.892   7.979  -1.218  0.00  0.00    +0.000 Cl
ATOM     18 CL   UNL     1       1.218   5.453  -0.069  0.00  0.00    +0.000 Cl
ENDBRANCH  10  11
ENDBRANCH   1  10
TORSDOF 3
