MODEL 1
REMARK VINA RESULT:      -4.4      0.000      0.000
REMARK  Name = *****
REMARK  5 active torsions:
REMARK  status: ('A' for Active; 'I' for Inactive)
REMARK    1  A    between atoms: C_1  and  C_2
REMARK    2  A    between atoms: C_4  and  N_8
REMARK    3  A    between atoms: N_8  and  C_9
REMARK    4  A    between atoms: N_8  and  C_10
REMARK    5  A    between atoms: C_10  and  C_11
REMARK                            x       y       z     vdW  Elec       q    Type
REMARK                         _______ _______ _______ _____ _____    ______ ____
ROOT
ATOM      1  N   UNL     1      87.942  70.726  85.762  0.00  0.00    +0.000 N 
ATOM      2  C   UNL     1      88.417  70.839  84.388  0.00  0.00    +0.000 C 
ENDROOT
BRANCH   1   6
ATOM      3  C   UNL     1      84.810  72.109  89.365  0.00  0.00    +0.000 C 
ATOM      4  C   UNL     1      85.135  71.977  87.905  0.00  0.00    +0.000 A 
ATOM      5  C   UNL     1      86.354  71.403  87.500  0.00  0.00    +0.000 A 
ATOM      6  C   UNL     1      86.728  71.286  86.147  0.00  0.00    +0.000 A 
ATOM      7  C   UNL     1      85.815  71.801  85.212  0.00  0.00    +0.000 A 
ATOM      8  C   UNL     1      84.602  72.387  85.596  0.00  0.00    +0.000 A 
ATOM      9  C   UNL     1      84.264  72.478  86.940  0.00  0.00    +0.000 A 
ENDBRANCH   1   6
BRANCH   1  10
ATOM     10  C   UNL     1      88.897  70.182  86.736  0.00  0.00    +0.000 C 
BRANCH  10  11
ATOM     11  C   UNL     1      88.902  68.666  86.802  0.00  0.00    +0.000 A 
ATOM     12  C   UNL     1      87.874  67.924  87.404  0.00  0.00    +0.000 A 
ATOM     13  C   UNL     1      87.937  66.529  87.465  0.00  0.00    +0.000 A 
ATOM     14  C   UNL     1      89.032  65.856  86.932  0.00  0.00    +0.000 A 
ATOM     15  C   UNL     1      90.068  66.575  86.339  0.00  0.00    +0.000 A 
ATOM     16  C   UNL     1      90.004  67.969  86.278  0.00  0.00    +0.000 A 
ENDBRANCH  10  11
ENDBRANCH   1  10
TORSDOF 3
ENDMDL
