REMARK  Name = *****
REMARK  2 active torsions:
REMARK  status: ('A' for Active; 'I' for Inactive)
REMARK    1  A    between atoms: C_4  and  C_7
REMARK    2  A    between atoms: C_8  and  C_9
REMARK                            x       y       z     vdW  Elec       q    Type
REMARK                         _______ _______ _______ _____ _____    ______ ____
ROOT
ATOM      1  C   UNL     1      -2.865   0.477  -0.344  0.00  0.00    +0.000 C 
ATOM      2  C   UNL     1      -3.296   1.767  -0.145  0.00  0.00    +0.000 C 
ATOM      3  S   UNL     1      -2.403   3.243   0.320  0.00  0.00    +0.000 S 
ATOM      4  S   UNL     1      -3.757  -0.998  -0.810  0.00  0.00    +0.000 S 
ENDROOT
BRANCH   1   8
ATOM      5  C   UNL     1       1.322  -0.370   0.200  0.00  0.00    +0.000 A 
ATOM      6  C   UNL     1       0.447  -0.446   1.284  0.00  0.00    +0.000 A 
ATOM      7  C   UNL     1      -0.911  -0.170   1.106  0.00  0.00    +0.000 A 
ATOM      8  C   UNL     1      -1.411   0.182  -0.156  0.00  0.00    +0.000 A 
ATOM      9  C   UNL     1      -0.519   0.260  -1.236  0.00  0.00    +0.000 A 
ATOM     10  C   UNL     1       0.839  -0.016  -1.061  0.00  0.00    +0.000 A 
ENDBRANCH   1   8
BRANCH   2  11
ATOM     11  C   UNL     1      -4.750   2.062  -0.331  0.00  0.00    +0.000 A 
ATOM     12  C   UNL     1      -5.650   1.919   0.735  0.00  0.00    +0.000 A 
ATOM     13  C   UNL     1      -7.009   2.193   0.563  0.00  0.00    +0.000 A 
ATOM     14  C   UNL     1      -7.484   2.613  -0.681  0.00  0.00    +0.000 A 
ATOM     15  C   UNL     1      -6.601   2.754  -1.752  0.00  0.00    +0.000 A 
ATOM     16  C   UNL     1      -5.242   2.478  -1.577  0.00  0.00    +0.000 A 
ENDBRANCH   2  11
TORSDOF 2
