REMARK  Name = *****
REMARK  5 active torsions:
REMARK  status: ('A' for Active; 'I' for Inactive)
REMARK    1  A    between atoms: C_4  and  C_7
REMARK    2  A    between atoms: C_7  and  S_8
REMARK    3  A    between atoms: S_8  and  C_9
REMARK    4  A    between atoms: C_9  and  C_10
REMARK    5  A    between atoms: C_9  and  C_12
REMARK                            x       y       z     vdW  Elec       q    Type
REMARK                         _______ _______ _______ _____ _____    ______ ____
ROOT
ATOM      1  S   UNL     1      -3.715  -1.310  -0.016  0.00  0.00    +0.000 S 
ENDROOT
BRANCH   1   2
ATOM      2  C   UNL     1      -5.459  -0.850  -0.516  0.00  0.00    +0.000 C 
ATOM      3 CL   UNL     1      -5.437  -0.342  -2.257  0.00  0.00    +0.000 Cl
BRANCH   2   4
ATOM      4  C   UNL     1      -6.069   0.273   0.343  0.00  0.00    +0.000 C 
ATOM      5  F   UNL     1      -6.058  -0.046   1.660  0.00  0.00    +0.000 F 
ATOM      6  F   UNL     1      -5.416   1.450   0.213  0.00  0.00    +0.000 F 
ATOM      7  F   UNL     1      -7.364   0.505   0.013  0.00  0.00    +0.000 F 
ENDBRANCH   2   4
BRANCH   2   8
ATOM      8  C   UNL     1      -6.382  -2.076  -0.344  0.00  0.00    +0.000 C 
ATOM      9 CL   UNL     1      -5.943  -3.512  -1.322  0.00  0.00    +0.000 Cl
ENDBRANCH   2   8
ENDBRANCH   1   2
BRANCH   1  10
ATOM     10  C   UNL     1      -2.892   0.316  -0.056  0.00  0.00    +0.000 C 
BRANCH  10  14
ATOM     11  C   UNL     1       1.395  -0.153   0.085  0.00  0.00    +0.000 A 
ATOM     12  C   UNL     1       0.728  -0.199  -1.138  0.00  0.00    +0.000 A 
ATOM     13  C   UNL     1      -0.659  -0.046  -1.183  0.00  0.00    +0.000 A 
ATOM     14  C   UNL     1      -1.392   0.160  -0.005  0.00  0.00    +0.000 A 
ATOM     15  C   UNL     1      -0.710   0.196   1.220  0.00  0.00    +0.000 A 
ATOM     16  C   UNL     1       0.677   0.043   1.263  0.00  0.00    +0.000 A 
ENDBRANCH  10  14
ENDBRANCH   1  10
TORSDOF 5
