REMARK  Name = *****
REMARK  5 active torsions:
REMARK  status: ('A' for Active; 'I' for Inactive)
REMARK    1  A    between atoms: C_1  and  C_2
REMARK    2  A    between atoms: C_3  and  O_16
REMARK    3  A    between atoms: C_6  and  C_8
REMARK    4  A    between atoms: C_9  and  C_10
REMARK    5  A    between atoms: O_16  and  C_17
REMARK                            x       y       z     vdW  Elec       q    Type
REMARK                         _______ _______ _______ _____ _____    ______ ____
ROOT
ATOM      1  C   UNL     1       1.040  -0.158   0.107  0.00  0.00    +0.000 C 
ATOM      2  C   UNL     1       2.536  -0.145  -0.047  0.00  0.00    +0.000 A 
ATOM      3  C   UNL     1       3.281   1.047   0.013  0.00  0.00    +0.000 A 
ATOM      4  C   UNL     1       4.675   0.995  -0.097  0.00  0.00    +0.000 A 
ATOM      5  C   UNL     1       5.329  -0.230  -0.268  0.00  0.00    +0.000 A 
ATOM      6  C   UNL     1       4.596  -1.413  -0.324  0.00  0.00    +0.000 A 
ATOM      7  C   UNL     1       3.206  -1.371  -0.205  0.00  0.00    +0.000 A 
ENDROOT
BRANCH   6   8
ATOM      8  C   UNL     1       5.263  -2.664  -0.510  0.00  0.00    +0.000 C 
ATOM      9  C   UNL     1       5.820  -3.713  -0.689  0.00  0.00    +0.000 C 
BRANCH   9  10
ATOM     10  C   UNL     1       6.480  -4.959  -0.927  0.00  0.00    +0.000 A 
ATOM     11  C   UNL     1       7.694  -4.986  -1.618  0.00  0.00    +0.000 A 
ATOM     12  C   UNL     1       8.332  -6.203  -1.864  0.00  0.00    +0.000 A 
ATOM     13  C   UNL     1       7.758  -7.394  -1.419  0.00  0.00    +0.000 A 
ATOM     14  C   UNL     1       6.547  -7.369  -0.727  0.00  0.00    +0.000 A 
ATOM     15  C   UNL     1       5.908  -6.153  -0.480  0.00  0.00    +0.000 A 
ENDBRANCH   9  10
ENDBRANCH   6   8
BRANCH   3  16
ATOM     16  O   UNL     1       2.560   2.199   0.193  0.00  0.00    +0.000 OA
ATOM     17  C   UNL     1       3.256   3.432   0.063  0.00  0.00    +0.000 C 
ENDBRANCH   3  16
TORSDOF 3
