MODEL 1
REMARK VINA RESULT:      -4.8      0.000      0.000
REMARK  Name = *****
REMARK  5 active torsions:
REMARK  status: ('A' for Active; 'I' for Inactive)
REMARK    1  A    between atoms: C_1  and  C_2
REMARK    2  A    between atoms: C_2  and  C_3
REMARK    3  A    between atoms: C_3  and  C_4
REMARK    4  A    between atoms: C_3  and  C_10
REMARK    5  A    between atoms: C_10  and  C_12
REMARK                            x       y       z     vdW  Elec       q    Type
REMARK                         _______ _______ _______ _____ _____    ______ ____
ROOT
ATOM      1  C   UNL     1      88.433  69.999  86.600  0.00  0.00    +0.000 C 
ENDROOT
BRANCH   1   2
ATOM      2  C   UNL     1      88.673  68.501  86.745  0.00  0.00    +0.000 A 
ATOM      3  C   UNL     1      89.847  67.899  86.270  0.00  0.00    +0.000 A 
ATOM      4  C   UNL     1      90.042  66.522  86.400  0.00  0.00    +0.000 A 
ATOM      5  C   UNL     1      89.064  65.731  86.998  0.00  0.00    +0.000 A 
ATOM      6  C   UNL     1      87.886  66.314  87.460  0.00  0.00    +0.000 A 
ATOM      7  C   UNL     1      87.689  67.689  87.330  0.00  0.00    +0.000 A 
ENDBRANCH   1   2
BRANCH   1   9
ATOM      8  C   UNL     1      89.585  71.443  84.841  0.00  0.00    +0.000 C 
ATOM      9  C   UNL     1      89.739  70.691  86.156  0.00  0.00    +0.000 C 
ENDBRANCH   1   9
BRANCH   1  10
ATOM     10  C   UNL     1      87.878  70.620  87.891  0.00  0.00    +0.000 C 
ATOM     11  O   UNL     1      88.501  70.582  88.953  0.00  0.00    +0.000 OA
BRANCH  10  12
ATOM     12  C   UNL     1      86.542  71.298  87.873  0.00  0.00    +0.000 A 
ATOM     13  C   UNL     1      85.838  71.626  89.038  0.00  0.00    +0.000 A 
ATOM     14  C   UNL     1      84.592  72.254  88.953  0.00  0.00    +0.000 A 
ATOM     15  C   UNL     1      84.041  72.560  87.710  0.00  0.00    +0.000 A 
ATOM     16  C   UNL     1      84.737  72.243  86.546  0.00  0.00    +0.000 A 
ATOM     17  C   UNL     1      85.982  71.618  86.627  0.00  0.00    +0.000 A 
ENDBRANCH  10  12
ENDBRANCH   1  10
TORSDOF 4
ENDMDL
