REMARK  Name = *****
REMARK  2 active torsions:
REMARK  status: ('A' for Active; 'I' for Inactive)
REMARK    1  A    between atoms: C_4  and  N_7
REMARK    2  A    between atoms: C_8  and  C_9
REMARK                            x       y       z     vdW  Elec       q    Type
REMARK                         _______ _______ _______ _____ _____    ______ ____
ROOT
ATOM      1  N   UNL     1      -2.714   0.416  -0.774  0.00  0.00    +0.000 NA
ATOM      2  C   UNL     1      -3.596  -0.327  -0.183  0.00  0.00    +0.000 C 
ENDROOT
BRANCH   2   3
ATOM      3  C   UNL     1      -5.039  -0.195  -0.463  0.00  0.00    +0.000 A 
ATOM      4  C   UNL     1      -5.507   0.755  -1.377  0.00  0.00    +0.000 A 
ATOM      5  C   UNL     1      -6.877   0.863  -1.627  0.00  0.00    +0.000 A 
ATOM      6  C   UNL     1      -7.770   0.023  -0.964  0.00  0.00    +0.000 A 
ATOM      7  C   UNL     1      -7.306  -0.926  -0.052  0.00  0.00    +0.000 A 
ATOM      8  C   UNL     1      -5.936  -1.037   0.201  0.00  0.00    +0.000 A 
ATOM      9 CL   UNL     1      -9.457   0.155  -1.272  0.00  0.00    +0.000 Cl
ENDBRANCH   2   3
BRANCH   1  13
ATOM     10  C   UNL     1       1.293  -0.254   0.294  0.00  0.00    +0.000 A 
ATOM     11  C   UNL     1       0.705  -1.017  -0.715  0.00  0.00    +0.000 A 
ATOM     12  C   UNL     1      -0.627  -0.794  -1.069  0.00  0.00    +0.000 A 
ATOM     13  C   UNL     1      -1.380   0.183  -0.412  0.00  0.00    +0.000 A 
ATOM     14  C   UNL     1      -0.779   0.953   0.586  0.00  0.00    +0.000 A 
ATOM     15  C   UNL     1       0.553   0.733   0.943  0.00  0.00    +0.000 A 
ENDBRANCH   1  13
TORSDOF 2
