MODEL 1
REMARK VINA RESULT:      -5.2      0.000      0.000
REMARK  Name = *****
REMARK  5 active torsions:
REMARK  status: ('A' for Active; 'I' for Inactive)
REMARK    1  A    between atoms: C_1  and  C_2
REMARK    2  A    between atoms: C_3  and  C_18
REMARK    3  A    between atoms: C_4  and  O_8
REMARK    4  A    between atoms: O_8  and  C_9
REMARK    5  A    between atoms: C_9  and  C_11
REMARK                            x       y       z     vdW  Elec       q    Type
REMARK                         _______ _______ _______ _____ _____    ______ ____
ROOT
ATOM      1  O   UNL     1     102.524 126.900  82.999  0.00  0.00    +0.000 OA
ENDROOT
BRANCH   1   5
ATOM      2  C   UNL     1      99.355 130.554  84.136  0.00  0.00    +0.000 C 
ATOM      3  C   UNL     1      99.683 129.202  83.559  0.00  0.00    +0.000 A 
ATOM      4  C   UNL     1     100.990 128.671  83.615  0.00  0.00    +0.000 A 
ATOM      5  C   UNL     1     101.216 127.405  83.047  0.00  0.00    +0.000 A 
ATOM      6  C   UNL     1     100.195 126.673  82.439  0.00  0.00    +0.000 A 
ATOM      7  C   UNL     1      98.905 127.193  82.416  0.00  0.00    +0.000 A 
ATOM      8  C   UNL     1      98.652 128.447  82.973  0.00  0.00    +0.000 A 
ATOM      9  C   UNL     1     102.124 129.458  84.212  0.00  0.00    +0.000 C 
ENDBRANCH   1   5
BRANCH   1  10
ATOM     10  C   UNL     1     102.675 125.639  83.544  0.00  0.00    +0.000 C 
ATOM     11  O   UNL     1     102.246 125.236  84.615  0.00  0.00    +0.000 OA
BRANCH  10  12
ATOM     12  C   UNL     1     103.468 124.783  82.615  0.00  0.00    +0.000 A 
ATOM     13  C   UNL     1     104.122 123.613  83.035  0.00  0.00    +0.000 A 
ATOM     14  C   UNL     1     104.849 122.850  82.117  0.00  0.00    +0.000 A 
ATOM     15  C   UNL     1     104.922 123.255  80.788  0.00  0.00    +0.000 A 
ATOM     16  C   UNL     1     104.279 124.410  80.356  0.00  0.00    +0.000 A 
ATOM     17  C   UNL     1     103.551 125.175  81.270  0.00  0.00    +0.000 A 
ATOM     18  F   UNL     1     105.619 122.521  79.912  0.00  0.00    +0.000 F 
ENDBRANCH  10  12
ENDBRANCH   1  10
TORSDOF 3
ENDMDL
