REMARK  Name = *****
REMARK  3 active torsions:
REMARK  status: ('A' for Active; 'I' for Inactive)
REMARK    1  A    between atoms: C_1  and  C_2
REMARK    2  A    between atoms: C_2  and  C_10
REMARK    3  A    between atoms: C_3  and  C_4
REMARK                            x       y       z     vdW  Elec       q    Type
REMARK                         _______ _______ _______ _____ _____    ______ ____
ROOT
ATOM      1  C   UNL     1       0.972  -0.095  -0.464  0.00  0.00    +0.000 C 
ATOM      2  C   UNL     1       2.415   0.009  -0.048  0.00  0.00    +0.000 C 
ATOM      3  C   UNL     1       3.031  -0.805   0.832  0.00  0.00    +0.000 C 
ENDROOT
BRANCH   3   4
ATOM      4  C   UNL     1       2.399  -1.940   1.511  0.00  0.00    +0.000 A 
ATOM      5  C   UNL     1       2.097  -3.113   0.811  0.00  0.00    +0.000 A 
ATOM      6  C   UNL     1       1.502  -4.191   1.470  0.00  0.00    +0.000 A 
ATOM      7  C   UNL     1       1.209  -4.101   2.830  0.00  0.00    +0.000 A 
ATOM      8  C   UNL     1       1.511  -2.935   3.533  0.00  0.00    +0.000 A 
ATOM      9  C   UNL     1       2.107  -1.857   2.876  0.00  0.00    +0.000 A 
ENDBRANCH   3   4
BRANCH   2  10
ATOM     10  C   UNL     1       3.192   1.101  -0.677  0.00  0.00    +0.000 A 
ATOM     11  C   UNL     1       3.231   1.236  -2.071  0.00  0.00    +0.000 A 
ATOM     12  C   UNL     1       3.956   2.272  -2.667  0.00  0.00    +0.000 A 
ATOM     13  C   UNL     1       4.646   3.187  -1.875  0.00  0.00    +0.000 A 
ATOM     14  C   UNL     1       4.611   3.069  -0.488  0.00  0.00    +0.000 A 
ATOM     15  C   UNL     1       3.888   2.033   0.108  0.00  0.00    +0.000 A 
ENDBRANCH   2  10
TORSDOF 2
