MODEL 1
REMARK VINA RESULT:      -4.8      0.000      0.000
REMARK  Name = *****
REMARK  1 active torsions:
REMARK  status: ('A' for Active; 'I' for Inactive)
REMARK    1  A    between atoms: C_4  and  C_7
REMARK                            x       y       z     vdW  Elec       q    Type
REMARK                         _______ _______ _______ _____ _____    ______ ____
ROOT
ATOM      1  C   UNL     1     102.685 126.329  81.798  0.00  0.00    +0.000 A 
ATOM      2  C   UNL     1     103.050 125.017  82.036  0.00  0.00    +0.000 A 
ATOM      3  C   UNL     1     104.096 124.545  81.175  0.00  0.00    +0.000 A 
ATOM      4  C   UNL     1     104.509 125.543  80.290  0.00  0.00    +0.000 A 
ATOM      5  S   UNL     1     103.632 127.000  80.541  0.00  0.00    +0.000 S 
ATOM      6  C   UNL     1     105.522 125.315  79.340  0.00  0.00    +0.000 A 
ATOM      7  C   UNL     1     106.115 124.058  79.299  0.00  0.00    +0.000 A 
ATOM      8  C   UNL     1     105.735 123.045  80.162  0.00  0.00    +0.000 A 
ATOM      9  C   UNL     1     104.727 123.277  81.103  0.00  0.00    +0.000 A 
ATOM     10  F   UNL     1     107.081 123.821  78.400  0.00  0.00    +0.000 F 
ENDROOT
BRANCH   1  14
ATOM     11  C   UNL     1      99.678 128.667  83.772  0.00  0.00    +0.000 A 
ATOM     12  C   UNL     1      99.325 127.529  83.052  0.00  0.00    +0.000 A 
ATOM     13  C   UNL     1     100.311 126.769  82.416  0.00  0.00    +0.000 A 
ATOM     14  C   UNL     1     101.665 127.134  82.491  0.00  0.00    +0.000 A 
ATOM     15  C   UNL     1     102.000 128.288  83.218  0.00  0.00    +0.000 A 
ATOM     16  C   UNL     1     101.015 129.047  83.856  0.00  0.00    +0.000 A 
ENDBRANCH   1  14
TORSDOF 1
ENDMDL
