MODEL 1
REMARK VINA RESULT:      -4.3      0.000      0.000
REMARK  Name = *****
REMARK  3 active torsions:
REMARK  status: ('A' for Active; 'I' for Inactive)
REMARK    1  A    between atoms: C_4  and  C_7
REMARK    2  A    between atoms: C_7  and  O_9
REMARK    3  A    between atoms: O_9  and  C_10
REMARK                            x       y       z     vdW  Elec       q    Type
REMARK                         _______ _______ _______ _____ _____    ______ ____
ROOT
ATOM      1  C   UNL     1     101.962 126.342  83.522  0.00  0.00    +0.000 C 
ATOM      2  O   UNL     1     102.709 126.446  84.486  0.00  0.00    +0.000 OA
ENDROOT
BRANCH   1   6
ATOM      3  C   UNL     1     104.559 126.263  80.026  0.00  0.00    +0.000 C 
ATOM      4  C   UNL     1     103.860 124.974  80.448  0.00  0.00    +0.000 C 
ATOM      5  C   UNL     1     103.345 125.056  81.884  0.00  0.00    +0.000 C 
ATOM      6  C   UNL     1     102.448 126.280  82.087  0.00  0.00    +0.000 C 
ATOM      7  C   UNL     1     103.153 127.573  81.665  0.00  0.00    +0.000 C 
ATOM      8  C   UNL     1     103.664 127.484  80.228  0.00  0.00    +0.000 C 
ENDBRANCH   1   6
BRANCH   1   9
ATOM      9  O   UNL     1     100.603 126.312  83.586  0.00  0.00    +0.000 OA
BRANCH   9  10
ATOM     10  C   UNL     1      99.902 127.430  82.991  0.00  0.00    +0.000 C 
ATOM     11  C   UNL     1      98.505 126.970  82.547  0.00  0.00    +0.000 C 
ATOM     12  C   UNL     1      97.624 126.580  83.734  0.00  0.00    +0.000 C 
ATOM     13  C   UNL     1      97.533 127.701  84.766  0.00  0.00    +0.000 C 
ATOM     14  C   UNL     1      98.916 128.165  85.221  0.00  0.00    +0.000 C 
ATOM     15  C   UNL     1      99.835 128.542  84.052  0.00  0.00    +0.000 C 
ATOM     16 CL   UNL     1      99.302 130.090  83.319  0.00  0.00    +0.000 Cl
ENDBRANCH   9  10
ENDBRANCH   1   9
TORSDOF 3
ENDMDL
