REMARK  Name = *****
REMARK  2 active torsions:
REMARK  status: ('A' for Active; 'I' for Inactive)
REMARK    1  A    between atoms: C_4  and  C_7
REMARK    2  A    between atoms: C_8  and  C_10
REMARK                            x       y       z     vdW  Elec       q    Type
REMARK                         _______ _______ _______ _____ _____    ______ ____
ROOT
ATOM      1  C   UNL     1      -4.991   0.834   1.284  0.00  0.00    +0.000 A 
ATOM      2  C   UNL     1      -6.270   0.255   1.286  0.00  0.00    +0.000 A 
ATOM      3  C   UNL     1      -7.406   0.984   1.633  0.00  0.00    +0.000 A 
ATOM      4  C   UNL     1      -7.292   2.316   1.995  0.00  0.00    +0.000 A 
ATOM      5  C   UNL     1      -6.043   2.916   2.016  0.00  0.00    +0.000 A 
ATOM      6  C   UNL     1      -4.912   2.181   1.669  0.00  0.00    +0.000 A 
ATOM      7  F   UNL     1      -3.711   2.780   1.705  0.00  0.00    +0.000 F 
ATOM      8  F   UNL     1      -5.921   4.201   2.374  0.00  0.00    +0.000 F 
ATOM      9  F   UNL     1      -8.382   3.019   2.332  0.00  0.00    +0.000 F 
ATOM     10  F   UNL     1      -8.609   0.393   1.622  0.00  0.00    +0.000 F 
ATOM     11  F   UNL     1      -6.406  -1.038   0.958  0.00  0.00    +0.000 F 
ENDROOT
BRANCH   1  13
ATOM     12  C   UNL     1      -2.833   0.531  -0.187  0.00  0.00    +0.000 C 
ATOM     13  C   UNL     1      -3.765   0.044   0.917  0.00  0.00    +0.000 C 
ATOM     14  O   UNL     1      -3.739  -0.564  -0.383  0.00  0.00    +0.000 OA
BRANCH  12  18
ATOM     15  C   UNL     1       1.407  -0.295   0.119  0.00  0.00    +0.000 A 
ATOM     16  C   UNL     1       0.613  -1.048  -0.741  0.00  0.00    +0.000 A 
ATOM     17  C   UNL     1      -0.756  -0.783  -0.840  0.00  0.00    +0.000 A 
ATOM     18  C   UNL     1      -1.361   0.233  -0.082  0.00  0.00    +0.000 A 
ATOM     19  C   UNL     1      -0.535   0.981   0.775  0.00  0.00    +0.000 A 
ATOM     20  C   UNL     1       0.834   0.721   0.877  0.00  0.00    +0.000 A 
ENDBRANCH  12  18
ENDBRANCH   1  13
TORSDOF 2
