MODEL 1
REMARK VINA RESULT:      -4.2      0.000      0.000
REMARK  Name = *****
REMARK  3 active torsions:
REMARK  status: ('A' for Active; 'I' for Inactive)
REMARK    1  A    between atoms: C_4  and  C_8
REMARK    2  A    between atoms: C_8  and  S_9
REMARK    3  A    between atoms: S_9  and  C_12
REMARK                            x       y       z     vdW  Elec       q    Type
REMARK                         _______ _______ _______ _____ _____    ______ ____
ROOT
ATOM      1  C   UNL     1     103.003 126.904  83.158  0.00  0.00    +0.000 C 
ENDROOT
BRANCH   1   5
ATOM      2  C   UNL     1     104.560 123.734  80.661  0.00  0.00    +0.000 A 
ATOM      3  C   UNL     1     104.295 123.519  82.009  0.00  0.00    +0.000 A 
ATOM      4  C   UNL     1     103.781 124.557  82.782  0.00  0.00    +0.000 A 
ATOM      5  C   UNL     1     103.517 125.823  82.246  0.00  0.00    +0.000 A 
ATOM      6  C   UNL     1     103.786 126.021  80.885  0.00  0.00    +0.000 A 
ATOM      7  C   UNL     1     104.303 124.984  80.099  0.00  0.00    +0.000 A 
ATOM      8 CL   UNL     1     103.472 127.529  80.104  0.00  0.00    +0.000 Cl
ATOM      9  F   UNL     1     103.520 124.321  84.075  0.00  0.00    +0.000 F 
ENDBRANCH   1   5
BRANCH   1  10
ATOM     10  S   UNL     1     101.232 126.697  83.345  0.00  0.00    +0.000 S 
ATOM     11  O   UNL     1     100.623 126.314  82.088  0.00  0.00    +0.000 OA
ATOM     12  O   UNL     1     100.942 125.986  84.576  0.00  0.00    +0.000 OA
BRANCH  10  13
ATOM     13  C   UNL     1     100.654 128.354  83.667  0.00  0.00    +0.000 A 
ATOM     14  C   UNL     1      99.460 128.984  83.374  0.00  0.00    +0.000 A 
ATOM     15  C   UNL     1      99.432 130.334  83.828  0.00  0.00    +0.000 A 
ATOM     16  C   UNL     1     100.607 130.690  84.450  0.00  0.00    +0.000 A 
ATOM     17  S   UNL     1     101.733 129.402  84.482  0.00  0.00    +0.000 S 
ENDBRANCH  10  13
ENDBRANCH   1  10
TORSDOF 3
ENDMDL
