MODEL 1
REMARK VINA RESULT:      -4.6      0.000      0.000
REMARK  Name = *****
REMARK  4 active torsions:
REMARK  status: ('A' for Active; 'I' for Inactive)
REMARK    1  A    between atoms: C_4  and  S_7
REMARK    2  A    between atoms: S_7  and  C_9
REMARK    3  A    between atoms: C_9  and  C_10
REMARK    4  A    between atoms: C_10  and  C_11
REMARK                            x       y       z     vdW  Elec       q    Type
REMARK                         _______ _______ _______ _____ _____    ______ ____
ROOT
ATOM      1  C   UNL     1     100.607 126.606  83.684  0.00  0.00    +0.000 C 
ENDROOT
BRANCH   1   2
ATOM      2  S   UNL     1      98.825 126.954  83.511  0.00  0.00    +0.000 S 
ATOM      3  O   UNL     1      98.536 127.078  82.044  0.00  0.00    +0.000 OA
BRANCH   2   7
ATOM      4  C   UNL     1      98.950 131.261  85.141  0.00  0.00    +0.000 A 
ATOM      5  C   UNL     1      98.354 130.252  85.897  0.00  0.00    +0.000 A 
ATOM      6  C   UNL     1      98.314 128.945  85.408  0.00  0.00    +0.000 A 
ATOM      7  C   UNL     1      98.863 128.642  84.159  0.00  0.00    +0.000 A 
ATOM      8  C   UNL     1      99.468 129.657  83.408  0.00  0.00    +0.000 A 
ATOM      9  C   UNL     1      99.507 130.964  83.898  0.00  0.00    +0.000 A 
ENDBRANCH   2   7
ENDBRANCH   1   2
BRANCH   1  10
ATOM     10  C   UNL     1     101.224 126.353  82.312  0.00  0.00    +0.000 C 
BRANCH  10  11
ATOM     11  C   UNL     1     102.418 127.245  82.074  0.00  0.00    +0.000 A 
ATOM     12  C   UNL     1     102.823 128.167  83.050  0.00  0.00    +0.000 A 
ATOM     13  C   UNL     1     103.915 129.004  82.818  0.00  0.00    +0.000 A 
ATOM     14  C   UNL     1     104.597 128.923  81.611  0.00  0.00    +0.000 A 
ATOM     15  C   UNL     1     104.208 128.020  80.629  0.00  0.00    +0.000 A 
ATOM     16  C   UNL     1     103.116 127.181  80.858  0.00  0.00    +0.000 A 
ATOM     17  F   UNL     1     105.645 129.729  81.389  0.00  0.00    +0.000 F 
ENDBRANCH  10  11
ENDBRANCH   1  10
TORSDOF 4
ENDMDL
