MODEL 1
REMARK VINA RESULT:      -4.4      0.000      0.000
REMARK  Name = *****
REMARK  4 active torsions:
REMARK  status: ('A' for Active; 'I' for Inactive)
REMARK    1  A    between atoms: C_1  and  C_2
REMARK    2  A    between atoms: C_5  and  C_7
REMARK    3  A    between atoms: N_8  and  C_9
REMARK    4  A    between atoms: C_14  and  C_15
REMARK                            x       y       z     vdW  Elec       q    Type
REMARK                         _______ _______ _______ _____ _____    ______ ____
ROOT
ATOM      1  C   UNL     1     101.130 128.367  83.607  0.00  0.00    +0.000 A 
ATOM      2  C   UNL     1     101.906 129.434  84.082  0.00  0.00    +0.000 A 
ATOM      3  C   UNL     1     101.311 130.627  84.489  0.00  0.00    +0.000 A 
ATOM      4  C   UNL     1      99.927 130.763  84.437  0.00  0.00    +0.000 A 
ATOM      5  C   UNL     1      99.143 129.702  83.986  0.00  0.00    +0.000 A 
ATOM      6  C   UNL     1      99.734 128.493  83.571  0.00  0.00    +0.000 A 
ENDROOT
BRANCH   6   7
ATOM      7  C   UNL     1      98.877 127.350  83.099  0.00  0.00    +0.000 C 
ATOM      8  F   UNL     1      99.270 126.848  81.892  0.00  0.00    +0.000 F 
ATOM      9  F   UNL     1      98.842 126.297  83.962  0.00  0.00    +0.000 F 
ATOM     10  F   UNL     1      97.568 127.707  82.922  0.00  0.00    +0.000 F 
ENDBRANCH   6   7
BRANCH   1  12
ATOM     11  C   UNL     1     102.498 127.228  82.159  0.00  0.00    +0.000 C 
ATOM     12  N   UNL     1     101.764 127.177  83.227  0.00  0.00    +0.000 NA
BRANCH  11  17
ATOM     13  C   UNL     1     104.930 122.550  81.924  0.00  0.00    +0.000 C 
ATOM     14  C   UNL     1     104.330 123.870  81.577  0.00  0.00    +0.000 A 
ATOM     15  C   UNL     1     104.270 124.490  80.346  0.00  0.00    +0.000 A 
ATOM     16  C   UNL     1     103.614 125.753  80.410  0.00  0.00    +0.000 A 
ATOM     17  C   UNL     1     103.193 126.057  81.688  0.00  0.00    +0.000 A 
ATOM     18  S   UNL     1     103.593 124.819  82.795  0.00  0.00    +0.000 S 
ENDBRANCH  11  17
ENDBRANCH   1  12
TORSDOF 3
ENDMDL
