MODEL 1
REMARK VINA RESULT:      -4.4      0.000      0.000
REMARK  Name = *****
REMARK  3 active torsions:
REMARK  status: ('A' for Active; 'I' for Inactive)
REMARK    1  A    between atoms: C_4  and  C_7
REMARK    2  A    between atoms: C_7  and  C_8
REMARK    3  A    between atoms: C_8  and  C_9
REMARK                            x       y       z     vdW  Elec       q    Type
REMARK                         _______ _______ _______ _____ _____    ______ ____
ROOT
ATOM      1  C   UNL     1      88.836  70.184  86.890  0.00  0.00    +0.000 C 
ENDROOT
BRANCH   1   5
ATOM      2  C   UNL     1      89.078  65.879  86.853  0.00  0.00    +0.000 A 
ATOM      3  C   UNL     1      87.971  66.510  87.417  0.00  0.00    +0.000 A 
ATOM      4  C   UNL     1      87.888  67.903  87.424  0.00  0.00    +0.000 A 
ATOM      5  C   UNL     1      88.913  68.677  86.864  0.00  0.00    +0.000 A 
ATOM      6  C   UNL     1      90.025  68.033  86.305  0.00  0.00    +0.000 A 
ATOM      7  C   UNL     1      90.105  66.639  86.298  0.00  0.00    +0.000 A 
ENDBRANCH   1   5
BRANCH   1   8
ATOM      8  C   UNL     1      87.852  70.717  85.845  0.00  0.00    +0.000 C 
BRANCH   8   9
ATOM      9  C   UNL     1      86.625  71.313  86.490  0.00  0.00    +0.000 A 
ATOM     10  C   UNL     1      86.485  71.314  87.884  0.00  0.00    +0.000 A 
ATOM     11  C   UNL     1      85.342  71.847  88.479  0.00  0.00    +0.000 A 
ATOM     12  C   UNL     1      84.326  72.379  87.688  0.00  0.00    +0.000 A 
ATOM     13  C   UNL     1      84.453  72.378  86.300  0.00  0.00    +0.000 A 
ATOM     14  C   UNL     1      85.596  71.845  85.703  0.00  0.00    +0.000 A 
ENDBRANCH   8   9
ENDBRANCH   1   8
TORSDOF 3
ENDMDL
