MODEL 1
REMARK VINA RESULT:      -4.5      0.000      0.000
REMARK  Name = *****
REMARK  3 active torsions:
REMARK  status: ('A' for Active; 'I' for Inactive)
REMARK    1  A    between atoms: C_5  and  C_7
REMARK    2  A    between atoms: C_7  and  S_8
REMARK    3  A    between atoms: S_8  and  C_10
REMARK                            x       y       z     vdW  Elec       q    Type
REMARK                         _______ _______ _______ _____ _____    ______ ____
ROOT
ATOM      1  S   UNL     1     103.651 127.959  81.840  0.00  0.00    +0.000 S 
ATOM      2  O   UNL     1     104.970 128.585  82.193  0.00  0.00    +0.000 OA
ENDROOT
BRANCH   1   3
ATOM      3  C   UNL     1     104.012 126.220  81.503  0.00  0.00    +0.000 A 
ATOM      4  C   UNL     1     104.390 125.832  80.211  0.00  0.00    +0.000 A 
ATOM      5  C   UNL     1     104.674 124.491  79.936  0.00  0.00    +0.000 A 
ATOM      6  C   UNL     1     104.587 123.541  80.951  0.00  0.00    +0.000 A 
ATOM      7  C   UNL     1     104.223 123.920  82.242  0.00  0.00    +0.000 A 
ATOM      8  C   UNL     1     103.937 125.260  82.517  0.00  0.00    +0.000 A 
ATOM      9 CL   UNL     1     104.937 121.891  80.611  0.00  0.00    +0.000 Cl
ENDBRANCH   1   3
BRANCH   1  10
ATOM     10  C   UNL     1     102.736 127.696  83.399  0.00  0.00    +0.000 C 
BRANCH  10  15
ATOM     11  C   UNL     1      99.171 126.844  82.382  0.00  0.00    +0.000 A 
ATOM     12  C   UNL     1      98.465 127.967  82.803  0.00  0.00    +0.000 A 
ATOM     13  C   UNL     1      99.138 129.017  83.427  0.00  0.00    +0.000 A 
ATOM     14  C   UNL     1     100.520 128.946  83.626  0.00  0.00    +0.000 A 
ATOM     15  C   UNL     1     101.248 127.826  83.194  0.00  0.00    +0.000 A 
ATOM     16  C   UNL     1     100.551 126.771  82.579  0.00  0.00    +0.000 A 
ATOM     17 CL   UNL     1     101.284 130.275  84.424  0.00  0.00    +0.000 Cl
ENDBRANCH  10  15
ENDBRANCH   1  10
TORSDOF 3
ENDMDL
