MODEL 1
REMARK VINA RESULT:      -4.5      0.000      0.000
REMARK  Name = *****
REMARK  3 active torsions:
REMARK  status: ('A' for Active; 'I' for Inactive)
REMARK    1  A    between atoms: C_5  and  N_7
REMARK    2  A    between atoms: N_7  and  N_8
REMARK    3  A    between atoms: N_8  and  C_10
REMARK                            x       y       z     vdW  Elec       q    Type
REMARK                         _______ _______ _______ _____ _____    ______ ____
ROOT
ATOM      1  N   UNL     1      87.840  62.789  87.675  0.00  0.00    +0.000 N 
ATOM      2  H   UNL     1      87.819  61.809  87.590  0.00  0.00    +0.000 HD
ENDROOT
BRANCH   1   7
ATOM      3  C   UNL     1      88.930  64.043  91.033  0.00  0.00    +0.000 A 
ATOM      4  C   UNL     1      87.703  64.208  91.668  0.00  0.00    +0.000 A 
ATOM      5  C   UNL     1      86.529  63.892  90.990  0.00  0.00    +0.000 A 
ATOM      6  C   UNL     1      86.592  63.421  89.675  0.00  0.00    +0.000 A 
ATOM      7  C   UNL     1      87.824  63.263  89.003  0.00  0.00    +0.000 A 
ATOM      8  C   UNL     1      88.989  63.569  89.717  0.00  0.00    +0.000 A 
ATOM      9 CL   UNL     1      85.102  63.045  88.873  0.00  0.00    +0.000 Cl
ENDBRANCH   1   7
BRANCH   1  10
ATOM     10  N   UNL     1      87.878  63.486  86.444  0.00  0.00    +0.000 N 
ATOM     11  O   UNL     1      86.940  63.469  85.671  0.00  0.00    +0.000 OA
BRANCH  10  12
ATOM     12  C   UNL     1      88.999  64.340  86.116  0.00  0.00    +0.000 A 
ATOM     13  C   UNL     1      90.078  63.771  85.421  0.00  0.00    +0.000 A 
ATOM     14  C   UNL     1      91.193  64.548  85.107  0.00  0.00    +0.000 A 
ATOM     15  C   UNL     1      91.237  65.888  85.487  0.00  0.00    +0.000 A 
ATOM     16  C   UNL     1      90.166  66.453  86.183  0.00  0.00    +0.000 A 
ATOM     17  C   UNL     1      89.045  65.681  86.505  0.00  0.00    +0.000 A 
ATOM     18 CL   UNL     1      87.788  66.450  87.405  0.00  0.00    +0.000 Cl
ENDBRANCH  10  12
ENDBRANCH   1  10
TORSDOF 3
ENDMDL
