REMARK  Name = *****
REMARK  3 active torsions:
REMARK  status: ('A' for Active; 'I' for Inactive)
REMARK    1  A    between atoms: C_4  and  C_7
REMARK    2  A    between atoms: C_7  and  C_8
REMARK    3  A    between atoms: C_9  and  C_10
REMARK                            x       y       z     vdW  Elec       q    Type
REMARK                         _______ _______ _______ _____ _____    ______ ____
ROOT
ATOM      1  C   UNL     1      -3.646  -0.792  -0.331  0.00  0.00    +0.000 C 
ATOM      2  C   UNL     1      -4.981  -0.846  -0.463  0.00  0.00    +0.000 C 
ATOM      3 CL   UNL     1      -5.974   0.564  -0.559  0.00  0.00    +0.000 Cl
ENDROOT
BRANCH   2   4
ATOM      4  C   UNL     1      -5.681  -2.137  -0.531  0.00  0.00    +0.000 A 
ATOM      5  C   UNL     1      -5.661  -3.016   0.562  0.00  0.00    +0.000 A 
ATOM      6  C   UNL     1      -6.322  -4.244   0.496  0.00  0.00    +0.000 A 
ATOM      7  C   UNL     1      -7.007  -4.606  -0.663  0.00  0.00    +0.000 A 
ATOM      8  C   UNL     1      -7.034  -3.741  -1.755  0.00  0.00    +0.000 A 
ATOM      9  C   UNL     1      -6.375  -2.511  -1.690  0.00  0.00    +0.000 A 
ENDBRANCH   2   4
BRANCH   1  10
ATOM     10  C   UNL     1      -2.787   0.437  -0.237  0.00  0.00    +0.000 C 
BRANCH  10  14
ATOM     11  C   UNL     1      -0.688   0.590   3.530  0.00  0.00    +0.000 A 
ATOM     12  C   UNL     1      -0.039   0.117   2.391  0.00  0.00    +0.000 A 
ATOM     13  C   UNL     1      -0.713   0.071   1.170  0.00  0.00    +0.000 A 
ATOM     14  C   UNL     1      -2.044   0.503   1.077  0.00  0.00    +0.000 A 
ATOM     15  C   UNL     1      -2.689   0.970   2.231  0.00  0.00    +0.000 A 
ATOM     16  C   UNL     1      -2.012   1.015   3.451  0.00  0.00    +0.000 A 
ENDBRANCH  10  14
ENDBRANCH   1  10
TORSDOF 3
