MODEL 1
REMARK VINA RESULT:      -4.2      0.000      0.000
REMARK  Name = *****
REMARK  4 active torsions:
REMARK  status: ('A' for Active; 'I' for Inactive)
REMARK    1  A    between atoms: C_4  and  N_7
REMARK    2  A    between atoms: N_7  and  C_8
REMARK    3  A    between atoms: C_8  and  C_9
REMARK    4  A    between atoms: C_9  and  C_10
REMARK                            x       y       z     vdW  Elec       q    Type
REMARK                         _______ _______ _______ _____ _____    ______ ____
ROOT
ATOM      1  C   UNL     1      87.622  70.592  88.306  0.00  0.00    +0.000 C 
ATOM      2 CL   UNL     1      87.037  69.000  88.874  0.00  0.00    +0.000 Cl
ATOM      3 CL   UNL     1      88.071  71.574  89.757  0.00  0.00    +0.000 Cl
ENDROOT
BRANCH   1   4
ATOM      4  C   UNL     1      86.529  71.268  87.481  0.00  0.00    +0.000 A 
ATOM      5  C   UNL     1      86.598  71.298  86.073  0.00  0.00    +0.000 A 
ATOM      6  C   UNL     1      85.589  71.892  85.310  0.00  0.00    +0.000 A 
ATOM      7  C   UNL     1      84.479  72.450  85.933  0.00  0.00    +0.000 A 
ATOM      8  C   UNL     1      84.368  72.404  87.319  0.00  0.00    +0.000 A 
ATOM      9  C   UNL     1      85.376  71.812  88.083  0.00  0.00    +0.000 A 
ENDBRANCH   1   4
BRANCH   1  10
ATOM     10  C   UNL     1      88.943  70.439  87.548  0.00  0.00    +0.000 C 
BRANCH  10  11
ATOM     11  N   UNL     1      89.439  69.307  87.161  0.00  0.00    +0.000 NA
BRANCH  11  15
ATOM     12  C   UNL     1      89.386  70.016  82.951  0.00  0.00    +0.000 C 
ATOM     13  C   UNL     1      90.435  70.749  83.780  0.00  0.00    +0.000 C 
ATOM     14  C   UNL     1      90.103  70.713  85.269  0.00  0.00    +0.000 C 
ATOM     15  C   UNL     1      89.905  69.277  85.768  0.00  0.00    +0.000 C 
ATOM     16  C   UNL     1      88.844  68.551  84.934  0.00  0.00    +0.000 C 
ATOM     17  C   UNL     1      89.177  68.587  83.444  0.00  0.00    +0.000 C 
ENDBRANCH  11  15
ENDBRANCH  10  11
ENDBRANCH   1  10
TORSDOF 4
ENDMDL
