MODEL 1
REMARK VINA RESULT:      -4.5      0.000      0.000
REMARK  Name = *****
REMARK  7 active torsions:
REMARK  status: ('A' for Active; 'I' for Inactive)
REMARK    1  A    between atoms: C_1  and  C_2
REMARK    2  A    between atoms: C_5  and  O_8
REMARK    3  A    between atoms: O_8  and  C_9
REMARK    4  A    between atoms: C_9  and  C_10
REMARK    5  A    between atoms: C_11  and  C_17
REMARK    6  A    between atoms: C_13  and  O_15
REMARK    7  A    between atoms: O_15  and  C_16
REMARK                            x       y       z     vdW  Elec       q    Type
REMARK                         _______ _______ _______ _____ _____    ______ ____
ROOT
ATOM      1  C   UNL     1     102.698 125.559  82.681  0.00  0.00    +0.000 C 
ENDROOT
BRANCH   1   2
ATOM      2  C   UNL     1     103.621 125.166  81.563  0.00  0.00    +0.000 A 
ATOM      3  C   UNL     1     104.110 125.986  80.557  0.00  0.00    +0.000 A 
ATOM      4  S   UNL     1     105.136 125.080  79.520  0.00  0.00    +0.000 S 
ATOM      5  C   UNL     1     104.867 123.689  80.476  0.00  0.00    +0.000 A 
ATOM      6  N   UNL     1     104.076 123.852  81.511  0.00  0.00    +0.000 NA
ATOM      7  C   UNL     1     103.868 127.429  80.291  0.00  0.00    +0.000 C 
BRANCH   5   8
ATOM      8  O   UNL     1     105.448 122.530  80.165  0.00  0.00    +0.000 OA
ATOM      9  C   UNL     1     106.802 122.416  80.583  0.00  0.00    +0.000 C 
ENDBRANCH   5   8
ENDBRANCH   1   2
BRANCH   1  10
ATOM     10  O   UNL     1     101.380 125.824  82.194  0.00  0.00    +0.000 OA
BRANCH  10  15
ATOM     11  C   UNL     1      99.259 130.690  84.207  0.00  0.00    +0.000 C 
ATOM     12  C   UNL     1      99.777 129.391  83.666  0.00  0.00    +0.000 A 
ATOM     13  C   UNL     1      98.916 128.464  83.068  0.00  0.00    +0.000 A 
ATOM     14  C   UNL     1      99.410 127.256  82.560  0.00  0.00    +0.000 A 
ATOM     15  C   UNL     1     100.770 126.961  82.646  0.00  0.00    +0.000 A 
ATOM     16  C   UNL     1     101.630 127.886  83.241  0.00  0.00    +0.000 A 
ATOM     17  C   UNL     1     101.140 129.093  83.748  0.00  0.00    +0.000 A 
ENDBRANCH  10  15
ENDBRANCH   1  10
TORSDOF 4
ENDMDL
