MODEL 1
REMARK VINA RESULT:      -4.7      0.000      0.000
REMARK  Name = *****
REMARK  3 active torsions:
REMARK  status: ('A' for Active; 'I' for Inactive)
REMARK    1  A    between atoms: C_5  and  C_7
REMARK    2  A    between atoms: C_8  and  C_9
REMARK    3  A    between atoms: C_9  and  C_10
REMARK                            x       y       z     vdW  Elec       q    Type
REMARK                         _______ _______ _______ _____ _____    ______ ____
ROOT
ATOM      1  C   UNL     1     101.570 126.414  82.233  0.00  0.00    +0.000 C 
ATOM      2  C   UNL     1     100.426 126.724  82.430  0.00  0.00    +0.000 C 
ENDROOT
BRANCH   1   7
ATOM      3  C   UNL     1     104.468 124.852  80.311  0.00  0.00    +0.000 C 
ATOM      4  C   UNL     1     104.555 123.607  81.197  0.00  0.00    +0.000 C 
ATOM      5  C   UNL     1     104.070 123.849  82.597  0.00  0.00    +0.000 C 
ATOM      6  C   UNL     1     103.371 124.940  82.952  0.00  0.00    +0.000 C 
ATOM      7  C   UNL     1     102.969 126.023  81.982  0.00  0.00    +0.000 C 
ATOM      8  C   UNL     1     103.146 125.588  80.516  0.00  0.00    +0.000 C 
ENDBRANCH   1   7
BRANCH   2   9
ATOM      9  C   UNL     1      99.025 127.106  82.658  0.00  0.00    +0.000 C 
BRANCH   9  10
ATOM     10  C   UNL     1      98.901 128.287  83.590  0.00  0.00    +0.000 A 
ATOM     11  C   UNL     1      99.444 129.532  83.239  0.00  0.00    +0.000 A 
ATOM     12  C   UNL     1      99.340 130.620  84.109  0.00  0.00    +0.000 A 
ATOM     13  C   UNL     1      98.700 130.472  85.338  0.00  0.00    +0.000 A 
ATOM     14  C   UNL     1      98.167 129.237  85.702  0.00  0.00    +0.000 A 
ATOM     15  C   UNL     1      98.269 128.149  84.834  0.00  0.00    +0.000 A 
ENDBRANCH   9  10
ENDBRANCH   2   9
TORSDOF 3
ENDMDL
