MODEL 1
REMARK VINA RESULT:      -4.3      0.000      0.000
REMARK  Name = *****
REMARK  3 active torsions:
REMARK  status: ('A' for Active; 'I' for Inactive)
REMARK    1  A    between atoms: C_4  and  S_7
REMARK    2  A    between atoms: S_7  and  N_8
REMARK    3  A    between atoms: N_8  and  C_9
REMARK                            x       y       z     vdW  Elec       q    Type
REMARK                         _______ _______ _______ _____ _____    ______ ____
ROOT
ATOM      1  N   UNL     1      89.166  63.781  87.891  0.00  0.00    +0.000 N 
ATOM      2  H   UNL     1      89.973  63.772  88.457  0.00  0.00    +0.000 HD
ENDROOT
BRANCH   1   3
ATOM      3  C   UNL     1      87.937  63.339  88.447  0.00  0.00    +0.000 A 
ATOM      4  C   UNL     1      86.914  62.773  87.668  0.00  0.00    +0.000 A 
ATOM      5  C   UNL     1      85.740  62.288  88.255  0.00  0.00    +0.000 A 
ATOM      6  C   UNL     1      85.571  62.340  89.636  0.00  0.00    +0.000 A 
ATOM      7  C   UNL     1      86.582  62.871  90.436  0.00  0.00    +0.000 A 
ATOM      8  C   UNL     1      87.754  63.354  89.847  0.00  0.00    +0.000 A 
ATOM      9 CL   UNL     1      88.981  63.996  90.888  0.00  0.00    +0.000 Cl
ENDBRANCH   1   3
BRANCH   1  10
ATOM     10  S   UNL     1      89.298  64.317  86.318  0.00  0.00    +0.000 S 
BRANCH  10  14
ATOM     11  C   UNL     1      88.775  68.825  86.999  0.00  0.00    +0.000 A 
ATOM     12  C   UNL     1      89.915  68.353  86.351  0.00  0.00    +0.000 A 
ATOM     13  C   UNL     1      90.084  66.982  86.142  0.00  0.00    +0.000 A 
ATOM     14  C   UNL     1      89.114  66.075  86.583  0.00  0.00    +0.000 A 
ATOM     15  C   UNL     1      87.969  66.556  87.225  0.00  0.00    +0.000 A 
ATOM     16  C   UNL     1      87.801  67.927  87.435  0.00  0.00    +0.000 A 
ENDBRANCH  10  14
ENDBRANCH   1  10
TORSDOF 3
ENDMDL
