REMARK  Name = *****
REMARK  5 active torsions:
REMARK  status: ('A' for Active; 'I' for Inactive)
REMARK    1  A    between atoms: C_1  and  C_2
REMARK    2  A    between atoms: C_5  and  C_8
REMARK    3  A    between atoms: C_9  and  C_10
REMARK    4  A    between atoms: C_13  and  O_16
REMARK    5  A    between atoms: O_16  and  C_17
REMARK                            x       y       z     vdW  Elec       q    Type
REMARK                         _______ _______ _______ _____ _____    ______ ____
ROOT
ATOM      1  C   UNL     1      -3.256   0.137  -0.012  0.00  0.00    +0.000 C 
ATOM      2  C   UNL     1      -4.060  -0.936  -0.114  0.00  0.00    +0.000 C 
ATOM      3 CL   UNL     1      -3.842   1.753   0.186  0.00  0.00    +0.000 Cl
ENDROOT
BRANCH   1   8
ATOM      4  C   UNL     1       2.504  -0.481  -0.077  0.00  0.00    +0.000 C 
ATOM      5  C   UNL     1       1.010  -0.348  -0.048  0.00  0.00    +0.000 A 
ATOM      6  C   UNL     1       0.244  -0.724  -1.157  0.00  0.00    +0.000 A 
ATOM      7  C   UNL     1      -1.145  -0.568  -1.145  0.00  0.00    +0.000 A 
ATOM      8  C   UNL     1      -1.792  -0.023  -0.027  0.00  0.00    +0.000 A 
ATOM      9  C   UNL     1      -1.020   0.368   1.075  0.00  0.00    +0.000 A 
ATOM     10  C   UNL     1       0.369   0.212   1.062  0.00  0.00    +0.000 A 
ENDBRANCH   1   8
BRANCH   2  11
ATOM     11  C   UNL     1      -5.528  -0.930  -0.106  0.00  0.00    +0.000 A 
ATOM     12  C   UNL     1      -6.263  -0.268  -1.096  0.00  0.00    +0.000 A 
ATOM     13  C   UNL     1      -7.662  -0.298  -1.085  0.00  0.00    +0.000 A 
ATOM     14  C   UNL     1      -8.341  -0.999  -0.088  0.00  0.00    +0.000 A 
ATOM     15  C   UNL     1      -7.607  -1.672   0.891  0.00  0.00    +0.000 A 
ATOM     16  C   UNL     1      -6.210  -1.643   0.883  0.00  0.00    +0.000 A 
BRANCH  14  17
ATOM     17  O   UNL     1      -9.698  -1.109   0.037  0.00  0.00    +0.000 OA
ATOM     18  C   UNL     1     -10.490  -0.406  -0.912  0.00  0.00    +0.000 C 
ENDBRANCH  14  17
ENDBRANCH   2  11
TORSDOF 3
