MODEL 1
REMARK VINA RESULT:      -4.6      0.000      0.000
REMARK  Name = *****
REMARK  1 active torsions:
REMARK  status: ('A' for Active; 'I' for Inactive)
REMARK    1  A    between atoms: C_9  and  C_11
REMARK                            x       y       z     vdW  Elec       q    Type
REMARK                         _______ _______ _______ _____ _____    ______ ____
ROOT
ATOM      1  C   UNL     1     103.916 123.964  83.145  0.00  0.00    +0.000 C 
ATOM      2  C   UNL     1     104.629 124.056  81.821  0.00  0.00    +0.000 A 
ATOM      3  C   UNL     1     105.650 123.109  81.589  0.00  0.00    +0.000 A 
ATOM      4  C   UNL     1     106.356 123.076  80.386  0.00  0.00    +0.000 A 
ATOM      5  C   UNL     1     106.046 123.984  79.385  0.00  0.00    +0.000 A 
ATOM      6  C   UNL     1     105.030 124.917  79.590  0.00  0.00    +0.000 A 
ATOM      7  C   UNL     1     104.306 124.962  80.795  0.00  0.00    +0.000 A 
ATOM      8  S   UNL     1     103.060 126.243  80.872  0.00  0.00    +0.000 S 
ATOM      9  C   UNL     1     102.117 125.814  82.370  0.00  0.00    +0.000 C 
ATOM     10  S   UNL     1     103.223 125.499  83.771  0.00  0.00    +0.000 S 
ENDROOT
BRANCH   9  11
ATOM     11  C   UNL     1     101.088 126.885  82.699  0.00  0.00    +0.000 A 
ATOM     12  C   UNL     1     101.491 128.069  83.342  0.00  0.00    +0.000 A 
ATOM     13  C   UNL     1     100.562 129.065  83.655  0.00  0.00    +0.000 A 
ATOM     14  C   UNL     1      99.218 128.894  83.332  0.00  0.00    +0.000 A 
ATOM     15  C   UNL     1      98.799 127.729  82.696  0.00  0.00    +0.000 A 
ATOM     16  C   UNL     1      99.725 126.732  82.381  0.00  0.00    +0.000 A 
ENDBRANCH   9  11
TORSDOF 1
ENDMDL
