MODEL 1
REMARK VINA RESULT:      -5.2      0.000      0.000
REMARK  Name = *****
REMARK  3 active torsions:
REMARK  status: ('A' for Active; 'I' for Inactive)
REMARK    1  A    between atoms: C_3  and  C_11
REMARK    2  A    between atoms: C_5  and  C_7
REMARK    3  A    between atoms: N_12  and  C_13
REMARK                            x       y       z     vdW  Elec       q    Type
REMARK                         _______ _______ _______ _____ _____    ______ ____
ROOT
ATOM      1  C   UNL     1     105.754 124.777  79.239  0.00  0.00    +0.000 A 
ATOM      2  C   UNL     1     104.849 125.684  79.789  0.00  0.00    +0.000 A 
ATOM      3  C   UNL     1     103.994 125.273  80.814  0.00  0.00    +0.000 A 
ATOM      4  C   UNL     1     104.043 123.960  81.292  0.00  0.00    +0.000 A 
ATOM      5  C   UNL     1     104.958 123.043  80.751  0.00  0.00    +0.000 A 
ATOM      6  C   UNL     1     105.806 123.464  79.714  0.00  0.00    +0.000 A 
ENDROOT
BRANCH   5   7
ATOM      7  C   UNL     1     104.998 121.619  81.249  0.00  0.00    +0.000 C 
ATOM      8  F   UNL     1     106.141 120.964  80.908  0.00  0.00    +0.000 F 
ATOM      9  F   UNL     1     104.911 121.544  82.606  0.00  0.00    +0.000 F 
ATOM     10  F   UNL     1     103.977 120.857  80.767  0.00  0.00    +0.000 F 
ENDBRANCH   5   7
BRANCH   3  11
ATOM     11  C   UNL     1     103.040 126.247  81.379  0.00  0.00    +0.000 C 
ATOM     12  N   UNL     1     102.017 125.873  82.081  0.00  0.00    +0.000 NA
BRANCH  12  13
ATOM     13  C   UNL     1     101.192 126.898  82.559  0.00  0.00    +0.000 A 
ATOM     14  C   UNL     1      99.802 126.809  82.427  0.00  0.00    +0.000 A 
ATOM     15  C   UNL     1      98.981 127.826  82.919  0.00  0.00    +0.000 A 
ATOM     16  C   UNL     1      99.557 128.924  83.550  0.00  0.00    +0.000 A 
ATOM     17  C   UNL     1     100.935 129.019  83.704  0.00  0.00    +0.000 A 
ATOM     18  C   UNL     1     101.753 128.002  83.210  0.00  0.00    +0.000 A 
ATOM     19  F   UNL     1      98.771 129.899  84.023  0.00  0.00    +0.000 F 
ENDBRANCH  12  13
ENDBRANCH   3  11
TORSDOF 3
ENDMDL
