REMARK  Name = *****
REMARK  4 active torsions:
REMARK  status: ('A' for Active; 'I' for Inactive)
REMARK    1  A    between atoms: C_3  and  C_8
REMARK    2  A    between atoms: C_8  and  O_9
REMARK    3  A    between atoms: O_9  and  C_10
REMARK    4  A    between atoms: C_14  and  C_16
REMARK                            x       y       z     vdW  Elec       q    Type
REMARK                         _______ _______ _______ _____ _____    ______ ____
ROOT
ATOM      1  O   UNL     1       1.481   3.658  -0.028  0.00  0.00    +0.000 OA
ENDROOT
BRANCH   1   2
ATOM      2  C   UNL     1       2.029   4.919  -0.112  0.00  0.00    +0.000 A 
ATOM      3  N   UNL     1       3.359   5.068  -0.253  0.00  0.00    +0.000 NA
ATOM      4  C   UNL     1       3.818   6.333  -0.327  0.00  0.00    +0.000 A 
ATOM      5  C   UNL     1       3.023   7.460  -0.268  0.00  0.00    +0.000 A 
ATOM      6  C   UNL     1       1.652   7.270  -0.122  0.00  0.00    +0.000 A 
ATOM      7  C   UNL     1       1.139   5.977  -0.041  0.00  0.00    +0.000 A 
ATOM      8 CL   UNL     1       5.518   6.463  -0.505  0.00  0.00    +0.000 Cl
BRANCH   6   9
ATOM      9  C   UNL     1       0.773   8.398  -0.054  0.00  0.00    +0.000 C 
ATOM     10  N   UNL     1       0.066   9.315  -0.000  0.00  0.00    +0.000 NA
ENDBRANCH   6   9
ENDBRANCH   1   2
BRANCH   1  11
ATOM     11  C   UNL     1       2.452   2.614  -0.127  0.00  0.00    +0.000 C 
BRANCH  11  14
ATOM     12  C   UNL     1       1.224  -0.782   1.115  0.00  0.00    +0.000 A 
ATOM     13  C   UNL     1       1.903   0.436   1.048  0.00  0.00    +0.000 A 
ATOM     14  C   UNL     1       1.722   1.294  -0.047  0.00  0.00    +0.000 A 
ATOM     15  C   UNL     1       0.843   0.911  -1.072  0.00  0.00    +0.000 A 
ATOM     16  C   UNL     1       0.167  -0.307  -0.998  0.00  0.00    +0.000 A 
ATOM     17  C   UNL     1       0.354  -1.155   0.090  0.00  0.00    +0.000 A 
ATOM     18 CL   UNL     1      -0.909  -0.764  -2.262  0.00  0.00    +0.000 Cl
ENDBRANCH  11  14
ENDBRANCH   1  11
TORSDOF 4
