MODEL 1
REMARK VINA RESULT:      -4.2      0.000      0.000
REMARK  Name = *****
REMARK  4 active torsions:
REMARK  status: ('A' for Active; 'I' for Inactive)
REMARK    1  A    between atoms: C_4  and  C_7
REMARK    2  A    between atoms: C_7  and  O_8
REMARK    3  A    between atoms: O_8  and  C_9
REMARK    4  A    between atoms: C_9  and  C_10
REMARK                            x       y       z     vdW  Elec       q    Type
REMARK                         _______ _______ _______ _____ _____    ______ ____
ROOT
ATOM      1  O   UNL     1     102.000 125.840  81.829  0.00  0.00    +0.000 OA
ENDROOT
BRANCH   1   2
ATOM      2  C   UNL     1     101.892 125.939  83.249  0.00  0.00    +0.000 C 
BRANCH   2   6
ATOM      3  C   UNL     1      99.109 129.309  83.060  0.00  0.00    +0.000 C 
ATOM      4  C   UNL     1      98.557 127.908  82.818  0.00  0.00    +0.000 C 
ATOM      5  C   UNL     1      99.668 126.907  82.507  0.00  0.00    +0.000 C 
ATOM      6  C   UNL     1     100.750 126.900  83.601  0.00  0.00    +0.000 C 
ATOM      7  C   UNL     1     101.294 128.314  83.841  0.00  0.00    +0.000 C 
ATOM      8  C   UNL     1     100.177 129.307  84.149  0.00  0.00    +0.000 C 
ENDBRANCH   2   6
ENDBRANCH   1   2
BRANCH   1   9
ATOM      9  C   UNL     1     103.275 126.276  81.360  0.00  0.00    +0.000 C 
BRANCH   9  10
ATOM     10  C   UNL     1     103.904 125.167  80.506  0.00  0.00    +0.000 C 
ATOM     11  C   UNL     1     104.228 123.942  81.372  0.00  0.00    +0.000 C 
ATOM     12  C   UNL     1     104.898 122.835  80.562  0.00  0.00    +0.000 C 
ATOM     13  C   UNL     1     106.144 123.341  79.841  0.00  0.00    +0.000 C 
ATOM     14  C   UNL     1     105.832 124.556  78.973  0.00  0.00    +0.000 C 
ATOM     15  C   UNL     1     105.162 125.668  79.777  0.00  0.00    +0.000 C 
ENDBRANCH   9  10
ENDBRANCH   1   9
TORSDOF 4
ENDMDL
