REMARK  Name = *****
REMARK  5 active torsions:
REMARK  status: ('A' for Active; 'I' for Inactive)
REMARK    1  A    between atoms: C_1  and  C_2
REMARK    2  A    between atoms: C_5  and  C_8
REMARK    3  A    between atoms: C_8  and  O_9
REMARK    4  A    between atoms: O_9  and  C_10
REMARK    5  A    between atoms: C_10  and  C_12
REMARK                            x       y       z     vdW  Elec       q    Type
REMARK                         _______ _______ _______ _____ _____    ______ ____
ROOT
ATOM      1  O   UNL     1      -3.936   1.217   0.264  0.00  0.00    +0.000 OA
ENDROOT
BRANCH   1   2
ATOM      2  C   UNL     1      -4.333   2.050  -0.726  0.00  0.00    +0.000 C 
ATOM      3  O   UNL     1      -4.310   1.815  -1.924  0.00  0.00    +0.000 OA
BRANCH   2   4
ATOM      4  C   UNL     1      -4.833   3.329  -0.155  0.00  0.00    +0.000 A 
ATOM      5  C   UNL     1      -4.738   3.629   1.208  0.00  0.00    +0.000 A 
ATOM      6  C   UNL     1      -5.224   4.845   1.676  0.00  0.00    +0.000 A 
ATOM      7  C   UNL     1      -5.802   5.771   0.814  0.00  0.00    +0.000 A 
ATOM      8  C   UNL     1      -5.898   5.481  -0.545  0.00  0.00    +0.000 A 
ATOM      9  C   UNL     1      -5.413   4.263  -1.029  0.00  0.00    +0.000 A 
ATOM     10  F   UNL     1      -5.132   5.130   2.981  0.00  0.00    +0.000 F 
ENDBRANCH   2   4
ENDBRANCH   1   2
BRANCH   1  11
ATOM     11  C   UNL     1      -3.386  -0.037  -0.157  0.00  0.00    +0.000 C 
BRANCH  11  16
ATOM     12  C   UNL     1       2.419   0.363   0.081  0.00  0.00    +0.000 C 
ATOM     13  C   UNL     1       0.927   0.226   0.012  0.00  0.00    +0.000 A 
ATOM     14  C   UNL     1       0.192  -0.106   1.156  0.00  0.00    +0.000 A 
ATOM     15  C   UNL     1      -1.201  -0.199   1.100  0.00  0.00    +0.000 A 
ATOM     16  C   UNL     1      -1.883   0.039  -0.100  0.00  0.00    +0.000 A 
ATOM     17  C   UNL     1      -1.148   0.399  -1.236  0.00  0.00    +0.000 A 
ATOM     18  C   UNL     1       0.245   0.493  -1.180  0.00  0.00    +0.000 A 
ENDBRANCH  11  16
ENDBRANCH   1  11
TORSDOF 4
