MODEL 1
REMARK VINA RESULT:      -4.9      0.000      0.000
REMARK  Name = *****
REMARK  3 active torsions:
REMARK  status: ('A' for Active; 'I' for Inactive)
REMARK    1  A    between atoms: C_4  and  C_7
REMARK    2  A    between atoms: C_8  and  C_9
REMARK    3  A    between atoms: C_14  and  C_15
REMARK                            x       y       z     vdW  Elec       q    Type
REMARK                         _______ _______ _______ _____ _____    ______ ____
ROOT
ATOM      1  C   UNL     1     102.599 127.082  82.269  0.00  0.00    +0.000 C 
ATOM      2  C   UNL     1     101.794 127.235  83.332  0.00  0.00    +0.000 C 
ENDROOT
BRANCH   1   6
ATOM      3  C   UNL     1     104.581 123.403  81.352  0.00  0.00    +0.000 A 
ATOM      4  C   UNL     1     104.361 124.334  80.340  0.00  0.00    +0.000 A 
ATOM      5  C   UNL     1     103.709 125.537  80.624  0.00  0.00    +0.000 A 
ATOM      6  C   UNL     1     103.261 125.816  81.921  0.00  0.00    +0.000 A 
ATOM      7  C   UNL     1     103.503 124.879  82.934  0.00  0.00    +0.000 A 
ATOM      8  C   UNL     1     104.155 123.676  82.650  0.00  0.00    +0.000 A 
ENDBRANCH   1   6
BRANCH   2   9
ATOM      9  C   UNL     1     101.135 128.514  83.646  0.00  0.00    +0.000 A 
ATOM     10  C   UNL     1     101.867 129.530  84.283  0.00  0.00    +0.000 A 
ATOM     11  C   UNL     1     101.265 130.746  84.609  0.00  0.00    +0.000 A 
ATOM     12  C   UNL     1      99.923 130.964  84.308  0.00  0.00    +0.000 A 
ATOM     13  C   UNL     1      99.180 129.962  83.683  0.00  0.00    +0.000 A 
ATOM     14  C   UNL     1      99.776 128.735  83.353  0.00  0.00    +0.000 A 
BRANCH  14  15
ATOM     15  C   UNL     1      98.973 127.735  82.708  0.00  0.00    +0.000 C 
ATOM     16  N   UNL     1      98.312 126.937  82.184  0.00  0.00    +0.000 NA
ENDBRANCH  14  15
ENDBRANCH   2   9
TORSDOF 3
ENDMDL
