MODEL 1
REMARK VINA RESULT:      -3.8      0.000      0.000
REMARK  Name = *****
REMARK  2 active torsions:
REMARK  status: ('A' for Active; 'I' for Inactive)
REMARK    1  A    between atoms: C_2  and  C_10
REMARK    2  A    between atoms: P_3  and  C_4
REMARK                            x       y       z     vdW  Elec       q    Type
REMARK                         _______ _______ _______ _____ _____    ______ ____
ROOT
ATOM      1  C   UNL     1      88.937  69.938  83.267  0.00  0.00    +0.000 C 
ATOM      2  C   UNL     1      89.818  68.901  83.889  0.00  0.00    +0.000 C 
ATOM      3  P   UNL     1      90.067  70.631  84.505  0.00  0.00    +0.000 P 
ENDROOT
BRANCH   3   4
ATOM      4  C   UNL     1      88.961  70.757  85.946  0.00  0.00    +0.000 A 
ATOM      5  C   UNL     1      87.607  71.075  85.767  0.00  0.00    +0.000 A 
ATOM      6  C   UNL     1      86.736  71.148  86.857  0.00  0.00    +0.000 A 
ATOM      7  C   UNL     1      87.202  70.881  88.142  0.00  0.00    +0.000 A 
ATOM      8  C   UNL     1      88.536  70.532  88.335  0.00  0.00    +0.000 A 
ATOM      9  C   UNL     1      89.406  70.463  87.243  0.00  0.00    +0.000 A 
ENDBRANCH   3   4
BRANCH   2  10
ATOM     10  C   UNL     1      89.324  67.835  84.837  0.00  0.00    +0.000 A 
ATOM     11  C   UNL     1      90.164  67.166  85.745  0.00  0.00    +0.000 A 
ATOM     12  C   UNL     1      89.670  66.198  86.626  0.00  0.00    +0.000 A 
ATOM     13  C   UNL     1      88.314  65.885  86.630  0.00  0.00    +0.000 A 
ATOM     14  C   UNL     1      87.454  66.543  85.760  0.00  0.00    +0.000 A 
ATOM     15  C   UNL     1      87.954  67.508  84.882  0.00  0.00    +0.000 A 
ENDBRANCH   2  10
TORSDOF 2
ENDMDL
