MODEL 1
REMARK VINA RESULT:      -4.8      0.000      0.000
REMARK  Name = *****
REMARK  2 active torsions:
REMARK  status: ('A' for Active; 'I' for Inactive)
REMARK    1  A    between atoms: C_4  and  C_7
REMARK    2  A    between atoms: N_8  and  C_9
REMARK                            x       y       z     vdW  Elec       q    Type
REMARK                         _______ _______ _______ _____ _____    ______ ____
ROOT
ATOM      1  C   UNL     1     102.015 126.028  82.205  0.00  0.00    +0.000 C 
ATOM      2  N   UNL     1     102.878 126.287  81.273  0.00  0.00    +0.000 NA
ENDROOT
BRANCH   2   3
ATOM      3  C   UNL     1     103.782 125.263  80.967  0.00  0.00    +0.000 A 
ATOM      4  C   UNL     1     104.587 125.345  79.828  0.00  0.00    +0.000 A 
ATOM      5  C   UNL     1     105.499 124.329  79.543  0.00  0.00    +0.000 A 
ATOM      6  C   UNL     1     105.614 123.238  80.402  0.00  0.00    +0.000 A 
ATOM      7  C   UNL     1     104.829 123.154  81.548  0.00  0.00    +0.000 A 
ATOM      8  C   UNL     1     103.916 124.171  81.832  0.00  0.00    +0.000 A 
ATOM      9  F   UNL     1     106.484 122.251  80.144  0.00  0.00    +0.000 F 
ATOM     10 CL   UNL     1     106.473 124.438  78.127  0.00  0.00    +0.000 Cl
ENDBRANCH   2   3
BRANCH   1  14
ATOM     11  C   UNL     1      99.055 128.848  83.411  0.00  0.00    +0.000 A 
ATOM     12  C   UNL     1     100.399 129.098  83.693  0.00  0.00    +0.000 A 
ATOM     13  C   UNL     1     101.375 128.180  83.302  0.00  0.00    +0.000 A 
ATOM     14  C   UNL     1     101.003 127.014  82.629  0.00  0.00    +0.000 A 
ATOM     15  C   UNL     1      99.657 126.762  82.347  0.00  0.00    +0.000 A 
ATOM     16  C   UNL     1      98.684 127.683  82.739  0.00  0.00    +0.000 A 
ENDBRANCH   1  14
TORSDOF 2
ENDMDL
