MODEL 1
REMARK VINA RESULT:      -4.6      0.000      0.000
REMARK  Name = *****
REMARK  3 active torsions:
REMARK  status: ('A' for Active; 'I' for Inactive)
REMARK    1  A    between atoms: C_1  and  C_2
REMARK    2  A    between atoms: C_5  and  S_8
REMARK    3  A    between atoms: S_8  and  C_10
REMARK                            x       y       z     vdW  Elec       q    Type
REMARK                         _______ _______ _______ _____ _____    ______ ____
ROOT
ATOM      1  S   UNL     1      87.954  70.280  88.839  0.00  0.00    +0.000 S 
ATOM      2  O   UNL     1      88.699  71.405  89.500  0.00  0.00    +0.000 OA
ENDROOT
BRANCH   1   7
ATOM      3  C   UNL     1      83.560  73.036  85.577  0.00  0.00    +0.000 C 
ATOM      4  C   UNL     1      84.621  72.333  86.371  0.00  0.00    +0.000 A 
ATOM      5  C   UNL     1      84.536  72.266  87.767  0.00  0.00    +0.000 A 
ATOM      6  C   UNL     1      85.542  71.639  88.508  0.00  0.00    +0.000 A 
ATOM      7  C   UNL     1      86.649  71.076  87.863  0.00  0.00    +0.000 A 
ATOM      8  C   UNL     1      86.745  71.162  86.472  0.00  0.00    +0.000 A 
ATOM      9  C   UNL     1      85.740  71.789  85.731  0.00  0.00    +0.000 A 
ENDBRANCH   1   7
BRANCH   1  10
ATOM     10  C   UNL     1      89.020  69.757  87.504  0.00  0.00    +0.000 C 
ATOM     11  C   UNL     1      88.845  68.589  86.856  0.00  0.00    +0.000 C 
ATOM     12  C   UNL     1      87.777  67.553  87.132  0.00  0.00    +0.000 C 
ATOM     13  C   UNL     1      88.405  66.185  87.407  0.00  0.00    +0.000 C 
ATOM     14  C   UNL     1      89.353  65.758  86.287  0.00  0.00    +0.000 C 
ATOM     15  C   UNL     1      90.415  66.824  86.017  0.00  0.00    +0.000 C 
ATOM     16  C   UNL     1      89.788  68.190  85.741  0.00  0.00    +0.000 C 
ENDBRANCH   1  10
TORSDOF 2
ENDMDL
