MODEL 1
REMARK VINA RESULT:      -4.5      0.000      0.000
REMARK  Name = *****
REMARK  3 active torsions:
REMARK  status: ('A' for Active; 'I' for Inactive)
REMARK    1  A    between atoms: C_4  and  C_8
REMARK    2  A    between atoms: C_8  and  S_9
REMARK    3  A    between atoms: S_9  and  C_10
REMARK                            x       y       z     vdW  Elec       q    Type
REMARK                         _______ _______ _______ _____ _____    ______ ____
ROOT
ATOM      1  C   UNL     1     102.723 127.715  83.526  0.00  0.00    +0.000 C 
ENDROOT
BRANCH   1   5
ATOM      2  C   UNL     1      98.503 128.347  82.862  0.00  0.00    +0.000 A 
ATOM      3  C   UNL     1      99.273 129.334  83.473  0.00  0.00    +0.000 A 
ATOM      4  C   UNL     1     100.636 129.124  83.678  0.00  0.00    +0.000 A 
ATOM      5  C   UNL     1     101.260 127.941  83.281  0.00  0.00    +0.000 A 
ATOM      6  C   UNL     1     100.471 126.963  82.672  0.00  0.00    +0.000 A 
ATOM      7  C   UNL     1      99.107 127.157  82.459  0.00  0.00    +0.000 A 
ATOM      8  F   UNL     1     101.027 125.813  82.268  0.00  0.00    +0.000 F 
ATOM      9  F   UNL     1     101.355 130.094  84.263  0.00  0.00    +0.000 F 
ENDBRANCH   1   5
BRANCH   1  10
ATOM     10  S   UNL     1     103.697 127.983  82.006  0.00  0.00    +0.000 S 
BRANCH  10  11
ATOM     11  C   UNL     1     104.093 126.328  81.456  0.00  0.00    +0.000 A 
ATOM     12  C   UNL     1     104.447 125.976  80.149  0.00  0.00    +0.000 A 
ATOM     13  C   UNL     1     104.742 124.646  79.821  0.00  0.00    +0.000 A 
ATOM     14  C   UNL     1     104.685 123.659  80.801  0.00  0.00    +0.000 A 
ATOM     15  C   UNL     1     104.335 123.989  82.106  0.00  0.00    +0.000 A 
ATOM     16  C   UNL     1     104.041 125.317  82.428  0.00  0.00    +0.000 A 
ATOM     17 CL   UNL     1     105.048 122.028  80.397  0.00  0.00    +0.000 Cl
ENDBRANCH  10  11
ENDBRANCH   1  10
TORSDOF 3
ENDMDL
