MODEL 1
REMARK VINA RESULT:      -3.9      0.000      0.000
REMARK  Name = *****
REMARK  4 active torsions:
REMARK  status: ('A' for Active; 'I' for Inactive)
REMARK    1  A    between atoms: C_1  and  C_2
REMARK    2  A    between atoms: C_4  and  O_9
REMARK    3  A    between atoms: O_9  and  C_10
REMARK    4  A    between atoms: C_10  and  C_11
REMARK                            x       y       z     vdW  Elec       q    Type
REMARK                         _______ _______ _______ _____ _____    ______ ____
ROOT
ATOM      1  C   UNL     1     102.931 129.548  84.059  0.00  0.00    +0.000 C 
ATOM      2  C   UNL     1     102.114 128.466  83.421  0.00  0.00    +0.000 A 
ATOM      3  C   UNL     1     102.710 127.458  82.662  0.00  0.00    +0.000 A 
ATOM      4  C   UNL     1     101.903 126.478  82.105  0.00  0.00    +0.000 A 
ATOM      5  N   UNL     1     100.563 126.438  82.241  0.00  0.00    +0.000 NA
ATOM      6  C   UNL     1     100.004 127.425  82.971  0.00  0.00    +0.000 A 
ATOM      7  C   UNL     1     100.726 128.446  83.574  0.00  0.00    +0.000 A 
ATOM      8 BR   UNL     1      98.117 127.405  83.173  0.00  0.00    +0.000 Br
ENDROOT
BRANCH   4   9
ATOM      9  O   UNL     1     102.545 125.517  81.352  0.00  0.00    +0.000 OA
BRANCH   9  10
ATOM     10  C   UNL     1     103.613 126.050  80.569  0.00  0.00    +0.000 C 
BRANCH  10  11
ATOM     11  C   UNL     1     104.562 124.915  80.319  0.00  0.00    +0.000 A 
ATOM     12  C   UNL     1     104.474 123.614  80.774  0.00  0.00    +0.000 A 
ATOM     13  C   UNL     1     105.567 122.811  80.340  0.00  0.00    +0.000 A 
ATOM     14  C   UNL     1     106.454 123.525  79.565  0.00  0.00    +0.000 A 
ATOM     15  S   UNL     1     105.970 125.154  79.371  0.00  0.00    +0.000 S 
ENDBRANCH  10  11
ENDBRANCH   9  10
ENDBRANCH   4   9
TORSDOF 3
ENDMDL
