MODEL 1
REMARK VINA RESULT:      -4.8      0.000      0.000
REMARK  Name = *****
REMARK  4 active torsions:
REMARK  status: ('A' for Active; 'I' for Inactive)
REMARK    1  A    between atoms: C_1  and  C_2
REMARK    2  A    between atoms: C_5  and  C_8
REMARK    3  A    between atoms: C_8  and  N_9
REMARK    4  A    between atoms: N_9  and  C_10
REMARK                            x       y       z     vdW  Elec       q    Type
REMARK                         _______ _______ _______ _____ _____    ______ ____
ROOT
ATOM      1  N   UNL     1      88.777  70.064  86.639  0.00  0.00    +0.000 N 
ATOM      2  O   UNL     1      89.690  70.761  87.193  0.00  0.00    +0.000 OA
ENDROOT
BRANCH   1   3
ATOM      3  C   UNL     1      88.823  68.620  86.784  0.00  0.00    +0.000 A 
ATOM      4  C   UNL     1      87.781  67.937  87.420  0.00  0.00    +0.000 A 
ATOM      5  C   UNL     1      87.839  66.546  87.527  0.00  0.00    +0.000 A 
ATOM      6  C   UNL     1      88.922  65.853  86.984  0.00  0.00    +0.000 A 
ATOM      7  C   UNL     1      89.947  66.534  86.323  0.00  0.00    +0.000 A 
ATOM      8  C   UNL     1      89.895  67.924  86.214  0.00  0.00    +0.000 A 
ATOM      9 CL   UNL     1      88.991  64.139  87.119  0.00  0.00    +0.000 Cl
ENDBRANCH   1   3
BRANCH   1  10
ATOM     10  C   UNL     1      87.841  70.668  85.944  0.00  0.00    +0.000 C 
BRANCH  10  15
ATOM     11  C   UNL     1      82.967  73.150  87.755  0.00  0.00    +0.000 C 
ATOM     12  C   UNL     1      84.224  72.471  87.297  0.00  0.00    +0.000 A 
ATOM     13  C   UNL     1      85.141  71.974  88.234  0.00  0.00    +0.000 A 
ATOM     14  C   UNL     1      86.329  71.372  87.815  0.00  0.00    +0.000 A 
ATOM     15  C   UNL     1      86.600  71.256  86.451  0.00  0.00    +0.000 A 
ATOM     16  C   UNL     1      85.717  71.788  85.509  0.00  0.00    +0.000 A 
ATOM     17  C   UNL     1      84.531  72.390  85.934  0.00  0.00    +0.000 A 
ENDBRANCH  10  15
ENDBRANCH   1  10
TORSDOF 3
ENDMDL
