MODEL 1
REMARK VINA RESULT:      -4.0      0.000      0.000
REMARK  Name = *****
REMARK  3 active torsions:
REMARK  status: ('A' for Active; 'I' for Inactive)
REMARK    1  A    between atoms: C_4  and  C_8
REMARK    2  A    between atoms: C_8  and  S_10
REMARK    3  A    between atoms: S_10  and  C_11
REMARK                            x       y       z     vdW  Elec       q    Type
REMARK                         _______ _______ _______ _____ _____    ______ ____
ROOT
ATOM      1  C   UNL     1      89.544  67.768  86.234  0.00  0.00    +0.000 C 
ATOM      2  O   UNL     1      90.556  67.146  86.534  0.00  0.00    +0.000 OA
ENDROOT
BRANCH   1   6
ATOM      3  C   UNL     1      88.332  63.949  85.934  0.00  0.00    +0.000 C 
ATOM      4  C   UNL     1      88.721  65.019  84.921  0.00  0.00    +0.000 C 
ATOM      5  C   UNL     1      87.884  66.292  85.012  0.00  0.00    +0.000 C 
ATOM      6  C   UNL     1      88.122  67.189  86.234  0.00  0.00    +0.000 C 
ATOM      7  C   UNL     1      87.785  66.597  87.580  0.00  0.00    +0.000 C 
ATOM      8  C   UNL     1      88.041  65.367  88.049  0.00  0.00    +0.000 C 
ATOM      9  C   UNL     1      88.767  64.252  87.362  0.00  0.00    +0.000 C 
ENDBRANCH   1   6
BRANCH   1  10
ATOM     10  S   UNL     1      89.652  69.445  85.677  0.00  0.00    +0.000 S 
BRANCH  10  11
ATOM     11  C   UNL     1      88.501  70.217  86.796  0.00  0.00    +0.000 A 
ATOM     12  C   UNL     1      87.294  70.758  86.339  0.00  0.00    +0.000 A 
ATOM     13  C   UNL     1      86.400  71.345  87.236  0.00  0.00    +0.000 A 
ATOM     14  C   UNL     1      86.704  71.391  88.596  0.00  0.00    +0.000 A 
ATOM     15  C   UNL     1      87.900  70.846  89.060  0.00  0.00    +0.000 A 
ATOM     16  C   UNL     1      88.794  70.257  88.163  0.00  0.00    +0.000 A 
ENDBRANCH  10  11
ENDBRANCH   1  10
TORSDOF 3
ENDMDL
