MODEL 1
REMARK VINA RESULT:      -4.8      0.000      0.000
REMARK  Name = *****
REMARK  1 active torsions:
REMARK  status: ('A' for Active; 'I' for Inactive)
REMARK    1  A    between atoms: C_4  and  C_7
REMARK                            x       y       z     vdW  Elec       q    Type
REMARK                         _______ _______ _______ _____ _____    ______ ____
ROOT
ATOM      1  C   UNL     1     102.156 126.310  83.104  0.00  0.00    +0.000 C 
ATOM      2  C   UNL     1     100.777 126.377  82.495  0.00  0.00    +0.000 C 
ATOM      3  C   UNL     1      99.905 127.387  82.629  0.00  0.00    +0.000 C 
ATOM      4  C   UNL     1     100.210 128.589  83.411  0.00  0.00    +0.000 A 
ATOM      5  C   UNL     1      99.153 129.433  83.788  0.00  0.00    +0.000 A 
ATOM      6  C   UNL     1      99.398 130.602  84.511  0.00  0.00    +0.000 A 
ATOM      7  C   UNL     1     100.702 130.947  84.856  0.00  0.00    +0.000 A 
ATOM      8  C   UNL     1     101.761 130.121  84.477  0.00  0.00    +0.000 A 
ATOM      9  C   UNL     1     101.524 128.940  83.761  0.00  0.00    +0.000 A 
ATOM     10  S   UNL     1     102.936 127.959  83.277  0.00  0.00    +0.000 S 
ENDROOT
BRANCH   1  14
ATOM     11  C   UNL     1     104.787 123.662  80.896  0.00  0.00    +0.000 A 
ATOM     12  C   UNL     1     104.590 123.461  82.261  0.00  0.00    +0.000 A 
ATOM     13  C   UNL     1     103.743 124.308  82.977  0.00  0.00    +0.000 A 
ATOM     14  C   UNL     1     103.081 125.372  82.339  0.00  0.00    +0.000 A 
ATOM     15  C   UNL     1     103.288 125.557  80.961  0.00  0.00    +0.000 A 
ATOM     16  C   UNL     1     104.136 124.708  80.247  0.00  0.00    +0.000 A 
ENDBRANCH   1  14
TORSDOF 1
ENDMDL
