MODEL 1
REMARK VINA RESULT:      -5.1      0.000      0.000
REMARK  Name = *****
REMARK  2 active torsions:
REMARK  status: ('A' for Active; 'I' for Inactive)
REMARK    1  A    between atoms: C_4  and  O_7
REMARK    2  A    between atoms: O_7  and  C_8
REMARK                            x       y       z     vdW  Elec       q    Type
REMARK                         _______ _______ _______ _____ _____    ______ ____
ROOT
ATOM      1  C   UNL     1     103.243 126.182  82.265  0.00  0.00    +0.000 A 
ATOM      2  N   UNL     1     103.548 125.115  83.036  0.00  0.00    +0.000 NA
ATOM      3  C   UNL     1     104.060 124.030  82.432  0.00  0.00    +0.000 A 
ATOM      4  C   UNL     1     104.366 122.908  83.191  0.00  0.00    +0.000 A 
ATOM      5  C   UNL     1     104.896 121.751  82.612  0.00  0.00    +0.000 A 
ATOM      6  C   UNL     1     105.131 121.706  81.243  0.00  0.00    +0.000 A 
ATOM      7  C   UNL     1     104.836 122.817  80.456  0.00  0.00    +0.000 A 
ATOM      8  C   UNL     1     104.302 123.979  81.041  0.00  0.00    +0.000 A 
ATOM      9  C   UNL     1     103.995 125.112  80.277  0.00  0.00    +0.000 A 
ATOM     10  C   UNL     1     103.462 126.235  80.899  0.00  0.00    +0.000 A 
ENDROOT
BRANCH   1  11
ATOM     11  O   UNL     1     102.741 127.343  82.841  0.00  0.00    +0.000 OA
BRANCH  11  15
ATOM     12  C   UNL     1      98.642 128.064  83.018  0.00  0.00    +0.000 A 
ATOM     13  C   UNL     1      99.092 126.882  82.430  0.00  0.00    +0.000 A 
ATOM     14  C   UNL     1     100.459 126.606  82.371  0.00  0.00    +0.000 A 
ATOM     15  C   UNL     1     101.377 127.504  82.922  0.00  0.00    +0.000 A 
ATOM     16  C   UNL     1     100.925 128.697  83.490  0.00  0.00    +0.000 A 
ATOM     17  C   UNL     1      99.558 128.974  83.545  0.00  0.00    +0.000 A 
ENDBRANCH  11  15
ENDBRANCH   1  11
TORSDOF 2
ENDMDL
