MODEL 1
REMARK VINA RESULT:      -4.3      0.000      0.000
REMARK  Name = *****
REMARK  7 active torsions:
REMARK  status: ('A' for Active; 'I' for Inactive)
REMARK    1  A    between atoms: C_1  and  C_2
REMARK    2  A    between atoms: C_5  and  S_8
REMARK    3  A    between atoms: S_8  and  C_9
REMARK    4  A    between atoms: C_9  and  C_10
REMARK    5  A    between atoms: C_10  and  C_18
REMARK    6  A    between atoms: C_14  and  O_16
REMARK    7  A    between atoms: O_16  and  C_17
REMARK                            x       y       z     vdW  Elec       q    Type
REMARK                         _______ _______ _______ _____ _____    ______ ____
ROOT
ATOM      1  C   UNL     1      87.717  68.599  86.420  0.00  0.00    +0.000 C 
ENDROOT
BRANCH   1   2
ATOM      2  C   UNL     1      87.906  69.969  87.141  0.00  0.00    +0.000 C 
ATOM      3  C   UNL     1      86.936  71.048  86.590  0.00  0.00    +0.000 C 
ATOM      4  C   UNL     1      87.327  71.581  85.241  0.00  0.00    +0.000 C 
ATOM      5  C   UNL     1      88.563  71.455  84.736  0.00  0.00    +0.000 C 
ATOM      6  C   UNL     1      89.708  70.816  85.467  0.00  0.00    +0.000 C 
ATOM      7  C   UNL     1      89.367  70.474  86.928  0.00  0.00    +0.000 C 
ATOM      8  C   UNL     1      87.682  69.819  88.662  0.00  0.00    +0.000 C 
BRANCH   6   9
ATOM      9  O   UNL     1      90.052  69.638  84.737  0.00  0.00    +0.000 OA
ATOM     10  C   UNL     1      90.087  69.844  83.331  0.00  0.00    +0.000 C 
ENDBRANCH   6   9
ENDBRANCH   1   2
BRANCH   1  11
ATOM     11  S   UNL     1      87.722  67.125  87.517  0.00  0.00    +0.000 S 
BRANCH  11  16
ATOM     12  C   UNL     1      91.893  63.810  84.560  0.00  0.00    +0.000 C 
ATOM     13  C   UNL     1      90.878  64.613  85.317  0.00  0.00    +0.000 A 
ATOM     14  C   UNL     1      89.692  64.020  85.761  0.00  0.00    +0.000 A 
ATOM     15  C   UNL     1      88.730  64.777  86.437  0.00  0.00    +0.000 A 
ATOM     16  C   UNL     1      88.942  66.138  86.672  0.00  0.00    +0.000 A 
ATOM     17  C   UNL     1      90.113  66.739  86.205  0.00  0.00    +0.000 A 
ATOM     18  C   UNL     1      91.074  65.982  85.530  0.00  0.00    +0.000 A 
ENDBRANCH  11  16
ENDBRANCH   1  11
TORSDOF 4
ENDMDL
