MODEL 1
REMARK VINA RESULT:      -4.4      0.000      0.000
REMARK  Name = *****
REMARK  4 active torsions:
REMARK  status: ('A' for Active; 'I' for Inactive)
REMARK    1  A    between atoms: C_1  and  C_2
REMARK    2  A    between atoms: C_7  and  C_8
REMARK    3  A    between atoms: C_8  and  O_10
REMARK    4  A    between atoms: O_10  and  C_11
REMARK                            x       y       z     vdW  Elec       q    Type
REMARK                         _______ _______ _______ _____ _____    ______ ____
ROOT
ATOM      1  C   UNL     1      88.743  70.350  86.079  0.00  0.00    +0.000 C 
ATOM      2  O   UNL     1      89.793  70.968  86.001  0.00  0.00    +0.000 OA
ENDROOT
BRANCH   1   9
ATOM      3  C   UNL     1      88.250  70.432  89.097  0.00  0.00    +0.000 C 
ATOM      4  C   UNL     1      87.267  70.942  88.080  0.00  0.00    +0.000 A 
ATOM      5  C   UNL     1      86.044  71.470  88.533  0.00  0.00    +0.000 A 
ATOM      6  C   UNL     1      85.104  71.980  87.636  0.00  0.00    +0.000 A 
ATOM      7  C   UNL     1      85.366  71.972  86.270  0.00  0.00    +0.000 A 
ATOM      8  C   UNL     1      86.565  71.437  85.799  0.00  0.00    +0.000 A 
ATOM      9  C   UNL     1      87.510  70.904  86.691  0.00  0.00    +0.000 A 
ENDBRANCH   1   9
BRANCH   1  10
ATOM     10  O   UNL     1      88.489  69.128  85.550  0.00  0.00    +0.000 OA
BRANCH  10  11
ATOM     11  C   UNL     1      89.198  68.024  86.140  0.00  0.00    +0.000 C 
ATOM     12  C   UNL     1      90.076  67.347  85.085  0.00  0.00    +0.000 C 
ATOM     13  C   UNL     1      90.721  66.073  85.621  0.00  0.00    +0.000 C 
ATOM     14  C   UNL     1      89.680  65.106  86.177  0.00  0.00    +0.000 C 
ATOM     15  C   UNL     1      88.791  65.774  87.223  0.00  0.00    +0.000 C 
ATOM     16  C   UNL     1      88.150  67.047  86.681  0.00  0.00    +0.000 C 
ENDBRANCH  10  11
ENDBRANCH   1  10
TORSDOF 3
ENDMDL
