MODEL 1
REMARK VINA RESULT:      -4.7      0.000      0.000
REMARK  Name = *****
REMARK  3 active torsions:
REMARK  status: ('A' for Active; 'I' for Inactive)
REMARK    1  A    between atoms: C_1  and  C_2
REMARK    2  A    between atoms: C_5  and  N_8
REMARK    3  A    between atoms: C_9  and  C_10
REMARK                            x       y       z     vdW  Elec       q    Type
REMARK                         _______ _______ _______ _____ _____    ______ ____
ROOT
ATOM      1  N   UNL     1     102.708 126.015  81.472  0.00  0.00    +0.000 NA
ATOM      2  C   UNL     1     101.957 125.981  82.528  0.00  0.00    +0.000 C 
ENDROOT
BRANCH   1   7
ATOM      3  C   UNL     1     106.509 121.775  80.985  0.00  0.00    +0.000 C 
ATOM      4  C   UNL     1     105.487 122.867  81.103  0.00  0.00    +0.000 A 
ATOM      5  C   UNL     1     105.235 123.721  80.021  0.00  0.00    +0.000 A 
ATOM      6  C   UNL     1     104.310 124.762  80.144  0.00  0.00    +0.000 A 
ATOM      7  C   UNL     1     103.627 124.964  81.345  0.00  0.00    +0.000 A 
ATOM      8  C   UNL     1     103.900 124.133  82.433  0.00  0.00    +0.000 A 
ATOM      9  C   UNL     1     104.825 123.092  82.315  0.00  0.00    +0.000 A 
ENDBRANCH   1   7
BRANCH   2  10
ATOM     10  C   UNL     1     100.945 127.021  82.795  0.00  0.00    +0.000 A 
ATOM     11  C   UNL     1     101.299 128.216  83.426  0.00  0.00    +0.000 A 
ATOM     12  C   UNL     1     100.320 129.177  83.664  0.00  0.00    +0.000 A 
ATOM     13  C   UNL     1      98.998 128.954  83.279  0.00  0.00    +0.000 A 
ATOM     14  C   UNL     1      98.648 127.757  82.649  0.00  0.00    +0.000 A 
ATOM     15  C   UNL     1      99.622 126.788  82.406  0.00  0.00    +0.000 A 
ATOM     16 CL   UNL     1     100.741 130.654  84.441  0.00  0.00    +0.000 Cl
ENDBRANCH   2  10
TORSDOF 2
ENDMDL
