MODEL 1
REMARK VINA RESULT:      -4.4      0.000      0.000
REMARK  Name = *****
REMARK  5 active torsions:
REMARK  status: ('A' for Active; 'I' for Inactive)
REMARK    1  A    between atoms: C_1  and  C_2
REMARK    2  A    between atoms: C_2  and  C_3
REMARK    3  A    between atoms: C_2  and  O_9
REMARK    4  A    between atoms: O_9  and  C_10
REMARK    5  A    between atoms: C_10  and  C_11
REMARK                            x       y       z     vdW  Elec       q    Type
REMARK                         _______ _______ _______ _____ _____    ______ ____
ROOT
ATOM      1  C   UNL     1     104.961 126.976  80.387  0.00  0.00    +0.000 C 
ATOM      2  C   UNL     1     103.486 126.589  80.302  0.00  0.00    +0.000 C 
ENDROOT
BRANCH   2   3
ATOM      3  C   UNL     1     102.775 126.937  81.597  0.00  0.00    +0.000 A 
ATOM      4  C   UNL     1     101.768 126.108  82.117  0.00  0.00    +0.000 A 
ATOM      5  C   UNL     1     101.127 126.433  83.313  0.00  0.00    +0.000 A 
ATOM      6  C   UNL     1     101.488 127.586  84.007  0.00  0.00    +0.000 A 
ATOM      7  C   UNL     1     102.490 128.415  83.506  0.00  0.00    +0.000 A 
ATOM      8  C   UNL     1     103.132 128.092  82.308  0.00  0.00    +0.000 A 
ENDBRANCH   2   3
BRANCH   2   9
ATOM      9  O   UNL     1     103.428 125.185  80.028  0.00  0.00    +0.000 OA
BRANCH   9  10
ATOM     10  C   UNL     1     104.700 124.548  80.142  0.00  0.00    +0.000 C 
BRANCH  10  11
ATOM     11  C   UNL     1     104.606 123.390  81.104  0.00  0.00    +0.000 A 
ATOM     12  C   UNL     1     104.714 122.071  80.638  0.00  0.00    +0.000 A 
ATOM     13  C   UNL     1     104.666 120.997  81.529  0.00  0.00    +0.000 A 
ATOM     14  C   UNL     1     104.519 121.229  82.896  0.00  0.00    +0.000 A 
ATOM     15  C   UNL     1     104.419 122.534  83.373  0.00  0.00    +0.000 A 
ATOM     16  C   UNL     1     104.468 123.608  82.482  0.00  0.00    +0.000 A 
ENDBRANCH  10  11
ENDBRANCH   9  10
ENDBRANCH   2   9
TORSDOF 4
ENDMDL
