MODEL 1
REMARK VINA RESULT:      -4.6      0.000      0.000
REMARK  Name = *****
REMARK  5 active torsions:
REMARK  status: ('A' for Active; 'I' for Inactive)
REMARK    1  A    between atoms: C_1  and  O_2
REMARK    2  A    between atoms: O_2  and  C_3
REMARK    3  A    between atoms: C_6  and  C_9
REMARK    4  A    between atoms: C_10  and  C_11
REMARK    5  A    between atoms: C_16  and  N_17
REMARK                            x       y       z     vdW  Elec       q    Type
REMARK                         _______ _______ _______ _____ _____    ______ ____
ROOT
ATOM      1  C   UNL     1     102.800 125.964  81.246  0.00  0.00    +0.000 C 
ATOM      2  C   UNL     1     102.086 125.977  82.384  0.00  0.00    +0.000 C 
ENDROOT
BRANCH   1   6
ATOM      3  C   UNL     1     105.911 123.108  80.479  0.00  0.00    +0.000 A 
ATOM      4  C   UNL     1     105.704 124.159  79.587  0.00  0.00    +0.000 A 
ATOM      5  C   UNL     1     104.687 125.094  79.823  0.00  0.00    +0.000 A 
ATOM      6  C   UNL     1     103.857 124.987  80.945  0.00  0.00    +0.000 A 
ATOM      7  C   UNL     1     104.083 123.939  81.845  0.00  0.00    +0.000 A 
ATOM      8  C   UNL     1     105.099 123.007  81.609  0.00  0.00    +0.000 A 
BRANCH   3  10
ATOM      9  C   UNL     1     106.761 121.031  81.263  0.00  0.00    +0.000 C 
ATOM     10  O   UNL     1     106.864 122.132  80.369  0.00  0.00    +0.000 OA
ENDBRANCH   3  10
ENDBRANCH   1   6
BRANCH   2  11
ATOM     11  C   UNL     1     101.044 126.975  82.677  0.00  0.00    +0.000 A 
ATOM     12  C   UNL     1      99.699 126.713  82.370  0.00  0.00    +0.000 A 
ATOM     13  C   UNL     1      98.699 127.644  82.672  0.00  0.00    +0.000 A 
ATOM     14  C   UNL     1      99.023 128.848  83.294  0.00  0.00    +0.000 A 
ATOM     15  C   UNL     1     100.348 129.123  83.623  0.00  0.00    +0.000 A 
ATOM     16  C   UNL     1     101.341 128.187  83.318  0.00  0.00    +0.000 A 
BRANCH  16  17
ATOM     17  N   UNL     1     102.650 128.505  83.667  0.00  0.00    +0.000 NA
ATOM     18  C   UNL     1     103.754 128.751  83.976  0.00  0.00    +0.000 C 
ENDBRANCH  16  17
ENDBRANCH   2  11
TORSDOF 4
ENDMDL
