MODEL 1
REMARK VINA RESULT:      -4.1      0.000      0.000
REMARK  Name = *****
REMARK  4 active torsions:
REMARK  status: ('A' for Active; 'I' for Inactive)
REMARK    1  A    between atoms: C_7  and  C_8
REMARK    2  A    between atoms: C_8  and  O_10
REMARK    3  A    between atoms: O_10  and  C_11
REMARK    4  A    between atoms: C_11  and  C_12
REMARK                            x       y       z     vdW  Elec       q    Type
REMARK                         _______ _______ _______ _____ _____    ______ ____
ROOT
ATOM      1  C   UNL     1     104.943 125.727  82.222  0.00  0.00    +0.000 C 
ATOM      2  C   UNL     1     103.629 124.991  81.916  0.00  0.00    +0.000 C 
ATOM      3  C   UNL     1     103.541 125.322  80.438  0.00  0.00    +0.000 C 
ATOM      4  C   UNL     1     104.010 126.569  80.284  0.00  0.00    +0.000 C 
ATOM      5  C   UNL     1     104.433 127.055  81.652  0.00  0.00    +0.000 C 
ATOM      6  C   UNL     1     103.191 127.267  82.545  0.00  0.00    +0.000 C 
ATOM      7  C   UNL     1     102.576 125.856  82.662  0.00  0.00    +0.000 C 
ATOM      8  F   UNL     1     101.380 125.764  82.007  0.00  0.00    +0.000 F 
ATOM      9  F   UNL     1     102.346 128.182  82.027  0.00  0.00    +0.000 F 
ATOM     10  F   UNL     1     103.597 127.750  83.747  0.00  0.00    +0.000 F 
ENDROOT
BRANCH   7  11
ATOM     11  C   UNL     1     102.444 125.467  84.117  0.00  0.00    +0.000 C 
ATOM     12  O   UNL     1     103.366 125.066  84.818  0.00  0.00    +0.000 OA
BRANCH  11  13
ATOM     13  O   UNL     1     101.160 125.622  84.536  0.00  0.00    +0.000 OA
BRANCH  13  14
ATOM     14  C   UNL     1     100.916 126.654  85.499  0.00  0.00    +0.000 C 
BRANCH  14  15
ATOM     15  C   UNL     1     100.378 127.864  84.782  0.00  0.00    +0.000 A 
ATOM     16  C   UNL     1      99.449 127.721  83.742  0.00  0.00    +0.000 A 
ATOM     17  C   UNL     1      98.965 128.843  83.066  0.00  0.00    +0.000 A 
ATOM     18  C   UNL     1      99.412 130.115  83.418  0.00  0.00    +0.000 A 
ATOM     19  C   UNL     1     100.348 130.267  84.440  0.00  0.00    +0.000 A 
ATOM     20  C   UNL     1     100.833 129.146  85.116  0.00  0.00    +0.000 A 
ENDBRANCH  14  15
ENDBRANCH  13  14
ENDBRANCH  11  13
ENDBRANCH   7  11
TORSDOF 4
ENDMDL
