REMARK  Name = *****
REMARK  3 active torsions:
REMARK  status: ('A' for Active; 'I' for Inactive)
REMARK    1  A    between atoms: C_4  and  O_7
REMARK    2  A    between atoms: O_7  and  P_8
REMARK    3  A    between atoms: P_8  and  C_9
REMARK                            x       y       z     vdW  Elec       q    Type
REMARK                         _______ _______ _______ _____ _____    ______ ____
ROOT
ATOM      1  P   UNL     1      -3.663  -1.053  -0.436  0.00  0.00    +0.000 P 
ATOM      2 CL   UNL     1      -5.258   0.306  -0.250  0.00  0.00    +0.000 Cl
ENDROOT
BRANCH   1   3
ATOM      3  C   UNL     1      -3.824  -1.980   1.137  0.00  0.00    +0.000 A 
ATOM      4  C   UNL     1      -5.042  -2.595   1.474  0.00  0.00    +0.000 A 
ATOM      5  C   UNL     1      -5.175  -3.330   2.655  0.00  0.00    +0.000 A 
ATOM      6  C   UNL     1      -4.090  -3.469   3.516  0.00  0.00    +0.000 A 
ATOM      7  C   UNL     1      -2.871  -2.879   3.195  0.00  0.00    +0.000 A 
ATOM      8  C   UNL     1      -2.738  -2.144   2.013  0.00  0.00    +0.000 A 
ENDBRANCH   1   3
BRANCH   1   9
ATOM      9  O   UNL     1      -2.434  -0.073  -0.062  0.00  0.00    +0.000 OA
BRANCH   9  13
ATOM     10  C   UNL     1       0.062   2.162  -2.539  0.00  0.00    +0.000 A 
ATOM     11  C   UNL     1      -1.109   1.633  -3.080  0.00  0.00    +0.000 A 
ATOM     12  C   UNL     1      -1.975   0.878  -2.284  0.00  0.00    +0.000 A 
ATOM     13  C   UNL     1      -1.666   0.647  -0.941  0.00  0.00    +0.000 A 
ATOM     14  C   UNL     1      -0.496   1.189  -0.402  0.00  0.00    +0.000 A 
ATOM     15  C   UNL     1       0.369   1.942  -1.198  0.00  0.00    +0.000 A 
ENDBRANCH   9  13
ENDBRANCH   1   9
TORSDOF 3
