MODEL 1
REMARK VINA RESULT:      -4.9      0.000      0.000
REMARK  Name = *****
REMARK  3 active torsions:
REMARK  status: ('A' for Active; 'I' for Inactive)
REMARK    1  A    between atoms: C_1  and  C_2
REMARK    2  A    between atoms: C_7  and  C_8
REMARK    3  A    between atoms: C_9  and  C_10
REMARK                            x       y       z     vdW  Elec       q    Type
REMARK                         _______ _______ _______ _____ _____    ______ ____
ROOT
ATOM      1  C   UNL     1      89.164  67.414  86.663  0.00  0.00    +0.000 C 
ATOM      2  C   UNL     1      88.151  66.590  86.356  0.00  0.00    +0.000 C 
ENDROOT
BRANCH   2   3
ATOM      3  C   UNL     1      87.759  65.406  87.133  0.00  0.00    +0.000 C 
ATOM      4  C   UNL     1      88.638  64.993  88.290  0.00  0.00    +0.000 C 
ATOM      5  C   UNL     1      87.253  65.611  88.543  0.00  0.00    +0.000 C 
ATOM      6  C   UNL     1      86.674  64.518  89.422  0.00  0.00    +0.000 C 
ATOM      7  C   UNL     1      87.198  64.510  90.680  0.00  0.00    +0.000 C 
ATOM      8  C   UNL     1      88.557  63.816  90.524  0.00  0.00    +0.000 C 
ATOM      9  C   UNL     1      88.569  63.607  88.979  0.00  0.00    +0.000 C 
ATOM     10  C   UNL     1      87.110  63.186  88.801  0.00  0.00    +0.000 C 
ENDBRANCH   2   3
BRANCH   1  17
ATOM     11  C   UNL     1      89.200  70.168  87.809  0.00  0.00    +0.000 C 
ATOM     12  C   UNL     1      89.515  69.889  86.365  0.00  0.00    +0.000 A 
ATOM     13  C   UNL     1      89.819  70.960  85.509  0.00  0.00    +0.000 A 
ATOM     14  C   UNL     1      90.109  70.739  84.162  0.00  0.00    +0.000 A 
ATOM     15  C   UNL     1      90.092  69.445  83.651  0.00  0.00    +0.000 A 
ATOM     16  C   UNL     1      89.784  68.371  84.485  0.00  0.00    +0.000 A 
ATOM     17  C   UNL     1      89.492  68.582  85.840  0.00  0.00    +0.000 A 
ENDBRANCH   1  17
TORSDOF 2
ENDMDL
