MODEL 1
REMARK VINA RESULT:      -4.5      0.000      0.000
REMARK  Name = *****
REMARK  3 active torsions:
REMARK  status: ('A' for Active; 'I' for Inactive)
REMARK    1  A    between atoms: N_2  and  C_3
REMARK    2  A    between atoms: C_6  and  C_9
REMARK    3  A    between atoms: C_10  and  C_11
REMARK                            x       y       z     vdW  Elec       q    Type
REMARK                         _______ _______ _______ _____ _____    ______ ____
ROOT
ATOM      1  C   UNL     1     105.969 122.679  81.326  0.00  0.00    +0.000 A 
ATOM      2  C   UNL     1     105.389 123.392  80.279  0.00  0.00    +0.000 A 
ATOM      3  C   UNL     1     104.353 124.286  80.558  0.00  0.00    +0.000 A 
ATOM      4  C   UNL     1     103.911 124.458  81.875  0.00  0.00    +0.000 A 
ATOM      5  C   UNL     1     104.504 123.734  82.916  0.00  0.00    +0.000 A 
ATOM      6  C   UNL     1     105.540 122.838  82.643  0.00  0.00    +0.000 A 
ENDROOT
BRANCH   1   8
ATOM      7  C   UNL     1     107.870 121.040  80.821  0.00  0.00    +0.000 C 
ATOM      8  N   UNL     1     106.999 121.790  81.052  0.00  0.00    +0.000 NA
ENDBRANCH   1   8
BRANCH   4   9
ATOM      9  C   UNL     1     102.852 125.377  82.159  0.00  0.00    +0.000 C 
ATOM     10  C   UNL     1     101.962 126.146  82.401  0.00  0.00    +0.000 C 
BRANCH  10  11
ATOM     11  C   UNL     1     100.902 127.062  82.690  0.00  0.00    +0.000 A 
ATOM     12  C   UNL     1      99.587 126.746  82.339  0.00  0.00    +0.000 A 
ATOM     13  C   UNL     1      98.554 127.641  82.620  0.00  0.00    +0.000 A 
ATOM     14  C   UNL     1      98.833 128.853  83.252  0.00  0.00    +0.000 A 
ATOM     15  C   UNL     1     100.145 129.171  83.605  0.00  0.00    +0.000 A 
ATOM     16  C   UNL     1     101.179 128.276  83.324  0.00  0.00    +0.000 A 
ENDBRANCH  10  11
ENDBRANCH   4   9
TORSDOF 3
ENDMDL
