MODEL 1
REMARK VINA RESULT:      -4.7      0.000      0.000
REMARK  Name = *****
REMARK  3 active torsions:
REMARK  status: ('A' for Active; 'I' for Inactive)
REMARK    1  A    between atoms: C_4  and  C_7
REMARK    2  A    between atoms: C_7  and  C_8
REMARK    3  A    between atoms: C_8  and  C_9
REMARK                            x       y       z     vdW  Elec       q    Type
REMARK                         _______ _______ _______ _____ _____    ______ ____
ROOT
ATOM      1  C   UNL     1      87.880  70.763  85.798  0.00  0.00    +0.000 C 
ATOM      2  F   UNL     1      88.573  71.719  85.112  0.00  0.00    +0.000 F 
ATOM      3  F   UNL     1      87.603  69.783  84.887  0.00  0.00    +0.000 F 
ENDROOT
BRANCH   1   4
ATOM      4  C   UNL     1      86.609  71.329  86.407  0.00  0.00    +0.000 A 
ATOM      5  C   UNL     1      85.600  71.860  85.588  0.00  0.00    +0.000 A 
ATOM      6  C   UNL     1      84.442  72.400  86.150  0.00  0.00    +0.000 A 
ATOM      7  C   UNL     1      84.281  72.415  87.534  0.00  0.00    +0.000 A 
ATOM      8  C   UNL     1      85.273  71.889  88.359  0.00  0.00    +0.000 A 
ATOM      9  C   UNL     1      86.432  71.349  87.799  0.00  0.00    +0.000 A 
ENDBRANCH   1   4
BRANCH   1  10
ATOM     10  C   UNL     1      88.782  70.183  86.900  0.00  0.00    +0.000 C 
BRANCH  10  14
ATOM     11  C   UNL     1      89.053  65.875  86.859  0.00  0.00    +0.000 A 
ATOM     12  C   UNL     1      87.949  66.499  87.436  0.00  0.00    +0.000 A 
ATOM     13  C   UNL     1      87.859  67.892  87.449  0.00  0.00    +0.000 A 
ATOM     14  C   UNL     1      88.874  68.673  86.880  0.00  0.00    +0.000 A 
ATOM     15  C   UNL     1      89.984  68.036  86.309  0.00  0.00    +0.000 A 
ATOM     16  C   UNL     1      90.070  66.643  86.297  0.00  0.00    +0.000 A 
ENDBRANCH  10  14
ENDBRANCH   1  10
TORSDOF 3
ENDMDL
