MODEL 1
REMARK VINA RESULT:      -4.0      0.000      0.000
REMARK  Name = *****
REMARK  4 active torsions:
REMARK  status: ('A' for Active; 'I' for Inactive)
REMARK    1  A    between atoms: C_1  and  C_2
REMARK    2  A    between atoms: C_7  and  C_8
REMARK    3  A    between atoms: C_8  and  C_9
REMARK    4  A    between atoms: C_9  and  C_10
REMARK                            x       y       z     vdW  Elec       q    Type
REMARK                         _______ _______ _______ _____ _____    ______ ____
ROOT
ATOM      1  C   UNL     1      87.298  64.185  87.494  0.00  0.00    +0.000 C 
ENDROOT
BRANCH   1   8
ATOM      2  C   UNL     1      85.754  66.157  89.197  0.00  0.00    +0.000 C 
ATOM      3  C   UNL     1      86.801  65.239  89.769  0.00  0.00    +0.000 C 
ATOM      4  C   UNL     1      86.791  64.940  91.083  0.00  0.00    +0.000 C 
ATOM      5  C   UNL     1      87.843  64.123  91.769  0.00  0.00    +0.000 C 
ATOM      6  C   UNL     1      89.113  63.993  90.935  0.00  0.00    +0.000 C 
ATOM      7  C   UNL     1      88.779  63.648  89.490  0.00  0.00    +0.000 C 
ATOM      8  C   UNL     1      87.885  64.719  88.823  0.00  0.00    +0.000 C 
ENDBRANCH   1   8
BRANCH   1   9
ATOM      9  C   UNL     1      87.022  62.677  87.506  0.00  0.00    +0.000 C 
BRANCH   9  10
ATOM     10  C   UNL     1      85.788  62.344  88.309  0.00  0.00    +0.000 A 
ATOM     11  C   UNL     1      84.552  62.923  87.987  0.00  0.00    +0.000 A 
ATOM     12  C   UNL     1      83.415  62.629  88.741  0.00  0.00    +0.000 A 
ATOM     13  C   UNL     1      83.504  61.758  89.826  0.00  0.00    +0.000 A 
ATOM     14  C   UNL     1      84.728  61.183  90.159  0.00  0.00    +0.000 A 
ATOM     15  C   UNL     1      85.867  61.476  89.406  0.00  0.00    +0.000 A 
ENDBRANCH   9  10
ENDBRANCH   1   9
TORSDOF 3
ENDMDL
