MODEL 1
REMARK VINA RESULT:      -4.1      0.000      0.000
REMARK  Name = *****
REMARK  3 active torsions:
REMARK  status: ('A' for Active; 'I' for Inactive)
REMARK    1  A    between atoms: C_4  and  C_7
REMARK    2  A    between atoms: C_8  and  C_9
REMARK    3  A    between atoms: C_9  and  C_10
REMARK                            x       y       z     vdW  Elec       q    Type
REMARK                         _______ _______ _______ _____ _____    ______ ____
ROOT
ATOM      1  C   UNL     1     101.193 126.966  82.319  0.00  0.00    +0.000 C 
ATOM      2  C   UNL     1      99.891 126.663  82.465  0.00  0.00    +0.000 C 
ENDROOT
BRANCH   1   6
ATOM      3  C   UNL     1     104.377 124.110  82.238  0.00  0.00    +0.000 A 
ATOM      4  C   UNL     1     103.947 124.692  81.047  0.00  0.00    +0.000 A 
ATOM      5  C   UNL     1     102.903 125.620  81.058  0.00  0.00    +0.000 A 
ATOM      6  C   UNL     1     102.270 125.969  82.258  0.00  0.00    +0.000 A 
ATOM      7  C   UNL     1     102.723 125.389  83.451  0.00  0.00    +0.000 A 
ATOM      8  C   UNL     1     103.766 124.460  83.440  0.00  0.00    +0.000 A 
ENDBRANCH   1   6
BRANCH   2   9
ATOM      9  C   UNL     1      98.795 127.689  82.534  0.00  0.00    +0.000 C 
BRANCH   9  10
ATOM     10  C   UNL     1      99.032 128.677  83.639  0.00  0.00    +0.000 A 
ATOM     11  C   UNL     1      98.963 128.381  84.989  0.00  0.00    +0.000 A 
ATOM     12  S   UNL     1      99.289 129.732  85.985  0.00  0.00    +0.000 S 
ATOM     13  C   UNL     1      99.529 130.741  84.627  0.00  0.00    +0.000 A 
ATOM     14  C   UNL     1      99.364 130.059  83.442  0.00  0.00    +0.000 A 
ENDBRANCH   9  10
ENDBRANCH   2   9
TORSDOF 3
ENDMDL
