MODEL 1
REMARK VINA RESULT:      -4.6      0.000      0.000
REMARK  Name = *****
REMARK  3 active torsions:
REMARK  status: ('A' for Active; 'I' for Inactive)
REMARK    1  A    between atoms: C_4  and  S_7
REMARK    2  A    between atoms: S_7  and  C_9
REMARK    3  A    between atoms: C_9  and  C_10
REMARK                            x       y       z     vdW  Elec       q    Type
REMARK                         _______ _______ _______ _____ _____    ______ ____
ROOT
ATOM      1  C   UNL     1      88.464  68.507  87.054  0.00  0.00    +0.000 A 
ATOM      2  C   UNL     1      87.590  67.644  87.722  0.00  0.00    +0.000 A 
ATOM      3  C   UNL     1      87.817  66.269  87.745  0.00  0.00    +0.000 A 
ATOM      4  C   UNL     1      88.925  65.738  87.099  0.00  0.00    +0.000 A 
ATOM      5  C   UNL     1      89.803  66.578  86.431  0.00  0.00    +0.000 A 
ATOM      6  C   UNL     1      89.572  67.951  86.410  0.00  0.00    +0.000 A 
ATOM      7  F   UNL     1      90.425  68.754  85.758  0.00  0.00    +0.000 F 
ATOM      8  F   UNL     1      90.870  66.070  85.798  0.00  0.00    +0.000 F 
ATOM      9  F   UNL     1      89.139  64.415  87.114  0.00  0.00    +0.000 F 
ATOM     10  F   UNL     1      86.957  65.460  88.380  0.00  0.00    +0.000 F 
ATOM     11  F   UNL     1      86.508  68.141  88.336  0.00  0.00    +0.000 F 
ENDROOT
BRANCH   1  12
ATOM     12  C   UNL     1      88.243  69.992  87.061  0.00  0.00    +0.000 C 
BRANCH  12  13
ATOM     13  S   UNL     1      87.435  70.549  85.520  0.00  0.00    +0.000 S 
ATOM     14  O   UNL     1      88.297  71.626  84.925  0.00  0.00    +0.000 OA
BRANCH  13  18
ATOM     15  C   UNL     1      83.896  72.692  87.540  0.00  0.00    +0.000 A 
ATOM     16  C   UNL     1      83.971  72.641  86.148  0.00  0.00    +0.000 A 
ATOM     17  C   UNL     1      85.039  71.990  85.529  0.00  0.00    +0.000 A 
ATOM     18  C   UNL     1      86.040  71.393  86.300  0.00  0.00    +0.000 A 
ATOM     19  C   UNL     1      85.956  71.438  87.696  0.00  0.00    +0.000 A 
ATOM     20  C   UNL     1      84.887  72.089  88.313  0.00  0.00    +0.000 A 
ENDBRANCH  13  18
ENDBRANCH  12  13
ENDBRANCH   1  12
TORSDOF 3
ENDMDL
