MODEL 1
REMARK VINA RESULT:      -4.2      0.000      0.000
REMARK  Name = *****
REMARK  3 active torsions:
REMARK  status: ('A' for Active; 'I' for Inactive)
REMARK    1  A    between atoms: C_5  and  C_6
REMARK    2  A    between atoms: C_5  and  S_8
REMARK    3  A    between atoms: S_8  and  C_9
REMARK                            x       y       z     vdW  Elec       q    Type
REMARK                         _______ _______ _______ _____ _____    ______ ____
ROOT
ATOM      1  C   UNL     1      87.440  64.106  90.617  0.00  0.00    +0.000 C 
ATOM      2  C   UNL     1      86.562  65.247  90.105  0.00  0.00    +0.000 C 
ATOM      3  C   UNL     1      86.399  65.207  88.582  0.00  0.00    +0.000 C 
ATOM      4  C   UNL     1      87.761  65.200  87.901  0.00  0.00    +0.000 C 
ATOM      5  C   UNL     1      88.181  66.133  87.015  0.00  0.00    +0.000 C 
ATOM      6  C   UNL     1      88.579  64.006  88.364  0.00  0.00    +0.000 C 
ATOM      7  C   UNL     1      88.778  64.047  89.880  0.00  0.00    +0.000 C 
ENDROOT
BRANCH   5   8
ATOM      8  C   UNL     1      89.543  66.130  86.384  0.00  0.00    +0.000 C 
ATOM      9  O   UNL     1      90.438  66.925  86.646  0.00  0.00    +0.000 OA
ENDBRANCH   5   8
BRANCH   5  10
ATOM     10  S   UNL     1      87.160  67.427  86.435  0.00  0.00    +0.000 S 
BRANCH  10  11
ATOM     11  C   UNL     1      87.471  68.657  87.692  0.00  0.00    +0.000 A 
ATOM     12  C   UNL     1      88.525  69.559  87.515  0.00  0.00    +0.000 A 
ATOM     13  C   UNL     1      88.789  70.536  88.478  0.00  0.00    +0.000 A 
ATOM     14  C   UNL     1      87.995  70.621  89.621  0.00  0.00    +0.000 A 
ATOM     15  C   UNL     1      86.934  69.734  89.799  0.00  0.00    +0.000 A 
ATOM     16  C   UNL     1      86.669  68.758  88.836  0.00  0.00    +0.000 A 
ENDBRANCH  10  11
ENDBRANCH   5  10
TORSDOF 3
ENDMDL
