MODEL 1
REMARK VINA RESULT:      -4.2      0.000      0.000
REMARK  Name = *****
REMARK  5 active torsions:
REMARK  status: ('A' for Active; 'I' for Inactive)
REMARK    1  A    between atoms: C_1  and  O_2
REMARK    2  A    between atoms: O_2  and  C_3
REMARK    3  A    between atoms: C_3  and  C_4
REMARK    4  A    between atoms: C_3  and  C_10
REMARK    5  A    between atoms: C_10  and  C_13
REMARK                            x       y       z     vdW  Elec       q    Type
REMARK                         _______ _______ _______ _____ _____    ______ ____
ROOT
ATOM      1  C   UNL     1      87.788  68.492  87.439  0.00  0.00    +0.000 C 
ENDROOT
BRANCH   1   2
ATOM      2  C   UNL     1      88.607  67.742  86.389  0.00  0.00    +0.000 A 
ATOM      3  C   UNL     1      89.706  66.934  86.707  0.00  0.00    +0.000 A 
ATOM      4  C   UNL     1      90.434  66.280  85.707  0.00  0.00    +0.000 A 
ATOM      5  C   UNL     1      90.078  66.429  84.370  0.00  0.00    +0.000 A 
ATOM      6  C   UNL     1      89.002  67.241  84.028  0.00  0.00    +0.000 A 
ATOM      7  C   UNL     1      88.279  67.897  85.026  0.00  0.00    +0.000 A 
ENDBRANCH   1   2
BRANCH   1   8
ATOM      8  C   UNL     1      88.028  70.024  87.531  0.00  0.00    +0.000 C 
ATOM      9  C   UNL     1      89.431  70.599  87.322  0.00  0.00    +0.000 C 
ATOM     10  C   UNL     1      88.836  70.645  88.687  0.00  0.00    +0.000 C 
BRANCH   8  11
ATOM     11  C   UNL     1      86.810  70.866  87.104  0.00  0.00    +0.000 A 
ATOM     12  C   UNL     1      86.585  71.161  85.745  0.00  0.00    +0.000 A 
ATOM     13  C   UNL     1      85.492  71.925  85.328  0.00  0.00    +0.000 A 
ATOM     14  C   UNL     1      84.590  72.414  86.267  0.00  0.00    +0.000 A 
ATOM     15  C   UNL     1      84.780  72.134  87.616  0.00  0.00    +0.000 A 
ATOM     16  C   UNL     1      85.877  71.369  88.026  0.00  0.00    +0.000 A 
ENDBRANCH   8  11
ENDBRANCH   1   8
BRANCH   1  18
ATOM     17  C   UNL     1      85.945  67.364  88.592  0.00  0.00    +0.000 C 
ATOM     18  O   UNL     1      86.404  68.092  87.471  0.00  0.00    +0.000 OA
ENDBRANCH   1  18
TORSDOF 4
ENDMDL
