MODEL 1
REMARK VINA RESULT:      -4.4      0.000      0.000
REMARK  Name = *****
REMARK  5 active torsions:
REMARK  status: ('A' for Active; 'I' for Inactive)
REMARK    1  A    between atoms: C_1  and  C_2
REMARK    2  A    between atoms: C_5  and  C_8
REMARK    3  A    between atoms: C_8  and  C_9
REMARK    4  A    between atoms: C_9  and  O_11
REMARK    5  A    between atoms: O_11  and  C_12
REMARK                            x       y       z     vdW  Elec       q    Type
REMARK                         _______ _______ _______ _____ _____    ______ ____
ROOT
ATOM      1  C   UNL     1      88.224  69.220  87.585  0.00  0.00    +0.000 C 
ATOM      2  O   UNL     1      87.416  68.304  87.483  0.00  0.00    +0.000 OA
ENDROOT
BRANCH   1   3
ATOM      3  C   UNL     1      87.910  70.554  88.219  0.00  0.00    +0.000 C 
BRANCH   3   8
ATOM      4  C   UNL     1      83.168  73.110  86.010  0.00  0.00    +0.000 C 
ATOM      5  C   UNL     1      84.371  72.418  86.577  0.00  0.00    +0.000 A 
ATOM      6  C   UNL     1      85.400  71.983  85.736  0.00  0.00    +0.000 A 
ATOM      7  C   UNL     1      86.538  71.369  86.266  0.00  0.00    +0.000 A 
ATOM      8  C   UNL     1      86.667  71.188  87.649  0.00  0.00    +0.000 A 
ATOM      9  C   UNL     1      85.646  71.644  88.492  0.00  0.00    +0.000 A 
ATOM     10  C   UNL     1      84.510  72.256  87.960  0.00  0.00    +0.000 A 
ENDBRANCH   3   8
ENDBRANCH   1   3
BRANCH   1  11
ATOM     11  O   UNL     1      89.548  69.217  87.159  0.00  0.00    +0.000 OA
BRANCH  11  12
ATOM     12  C   UNL     1      89.689  69.522  85.805  0.00  0.00    +0.000 A 
ATOM     13  C   UNL     1      90.093  70.806  85.443  0.00  0.00    +0.000 A 
ATOM     14  C   UNL     1      90.285  71.101  84.094  0.00  0.00    +0.000 A 
ATOM     15  C   UNL     1      90.087  70.113  83.127  0.00  0.00    +0.000 A 
ATOM     16  C   UNL     1      89.701  68.823  83.506  0.00  0.00    +0.000 A 
ATOM     17  C   UNL     1      89.506  68.522  84.853  0.00  0.00    +0.000 A 
ENDBRANCH  11  12
ENDBRANCH   1  11
TORSDOF 4
ENDMDL
