MODEL 1
REMARK VINA RESULT:      -4.0      0.000      0.000
REMARK  Name = *****
REMARK  5 active torsions:
REMARK  status: ('A' for Active; 'I' for Inactive)
REMARK    1  A    between atoms: C_1  and  C_2
REMARK    2  A    between atoms: C_7  and  S_8
REMARK    3  A    between atoms: S_8  and  S_9
REMARK    4  A    between atoms: S_9  and  C_11
REMARK    5  A    between atoms: C_16  and  C_17
REMARK                            x       y       z     vdW  Elec       q    Type
REMARK                         _______ _______ _______ _____ _____    ______ ____
ROOT
ATOM      1  S   UNL     1      88.782  69.103  83.617  0.00  0.00    +0.000 S 
ATOM      2  O   UNL     1      90.026  68.872  82.811  0.00  0.00    +0.000 OA
ENDROOT
BRANCH   1   3
ATOM      3  C   UNL     1      88.735  67.846  84.941  0.00  0.00    +0.000 A 
ATOM      4  C   UNL     1      89.978  67.360  85.398  0.00  0.00    +0.000 A 
ATOM      5  C   UNL     1      90.053  66.409  86.416  0.00  0.00    +0.000 A 
ATOM      6  C   UNL     1      88.889  65.936  87.004  0.00  0.00    +0.000 A 
ATOM      7  C   UNL     1      87.652  66.420  86.581  0.00  0.00    +0.000 A 
ATOM      8  C   UNL     1      87.554  67.386  85.559  0.00  0.00    +0.000 A 
ATOM      9  C   UNL     1      86.179  67.862  85.179  0.00  0.00    +0.000 C 
ENDBRANCH   1   3
BRANCH   1  10
ATOM     10  S   UNL     1      89.365  70.749  84.657  0.00  0.00    +0.000 S 
BRANCH  10  17
ATOM     11  C   UNL     1      89.135  70.156  87.772  0.00  0.00    +0.000 C 
ATOM     12  C   UNL     1      87.938  70.744  87.076  0.00  0.00    +0.000 A 
ATOM     13  C   UNL     1      86.782  71.013  87.830  0.00  0.00    +0.000 A 
ATOM     14  C   UNL     1      85.648  71.563  87.230  0.00  0.00    +0.000 A 
ATOM     15  C   UNL     1      85.652  71.854  85.871  0.00  0.00    +0.000 A 
ATOM     16  C   UNL     1      86.791  71.593  85.110  0.00  0.00    +0.000 A 
ATOM     17  C   UNL     1      87.936  71.034  85.697  0.00  0.00    +0.000 A 
ENDBRANCH  10  17
ENDBRANCH   1  10
TORSDOF 3
ENDMDL
