MODEL 1
REMARK VINA RESULT:      -4.7      0.000      0.000
REMARK  Name = *****
REMARK  2 active torsions:
REMARK  status: ('A' for Active; 'I' for Inactive)
REMARK    1  A    between atoms: C_1  and  C_2
REMARK    2  A    between atoms: C_5  and  N_8
REMARK                            x       y       z     vdW  Elec       q    Type
REMARK                         _______ _______ _______ _____ _____    ______ ____
ROOT
ATOM      1  N   UNL     1     102.135 126.820  82.641  0.00  0.00    +0.000 N 
ATOM      2  C   UNL     1     102.592 127.967  83.284  0.00  0.00    +0.000 C 
ATOM      3  C   UNL     1     101.558 128.841  83.742  0.00  0.00    +0.000 C 
ATOM      4  C   UNL     1     100.330 128.281  83.412  0.00  0.00    +0.000 C 
ATOM      5  S   UNL     1     100.488 126.780  82.572  0.00  0.00    +0.000 S 
ATOM      6  C   UNL     1      98.997 128.903  83.698  0.00  0.00    +0.000 C 
ATOM      7  C   UNL     1      99.149 130.027  84.739  0.00  0.00    +0.000 C 
ATOM      8  C   UNL     1     100.362 130.925  84.447  0.00  0.00    +0.000 C 
ATOM      9  C   UNL     1     101.683 130.136  84.478  0.00  0.00    +0.000 C 
ENDROOT
BRANCH   1  14
ATOM     10  C   UNL     1     105.480 122.636  80.451  0.00  0.00    +0.000 C 
ATOM     11  C   UNL     1     104.634 123.738  81.027  0.00  0.00    +0.000 A 
ATOM     12  C   UNL     1     104.135 124.752  80.203  0.00  0.00    +0.000 A 
ATOM     13  C   UNL     1     103.320 125.761  80.728  0.00  0.00    +0.000 A 
ATOM     14  C   UNL     1     102.991 125.756  82.088  0.00  0.00    +0.000 A 
ATOM     15  C   UNL     1     103.478 124.736  82.915  0.00  0.00    +0.000 A 
ATOM     16  C   UNL     1     104.289 123.730  82.381  0.00  0.00    +0.000 A 
ENDBRANCH   1  14
TORSDOF 1
ENDMDL
