MODEL 1
REMARK VINA RESULT:      -4.6      0.000      0.000
REMARK  Name = *****
REMARK  4 active torsions:
REMARK  status: ('A' for Active; 'I' for Inactive)
REMARK    1  A    between atoms: C_4  and  C_7
REMARK    2  A    between atoms: C_8  and  C_9
REMARK    3  A    between atoms: C_14  and  S_15
REMARK    4  A    between atoms: S_15  and  C_16
REMARK                            x       y       z     vdW  Elec       q    Type
REMARK                         _______ _______ _______ _____ _____    ______ ____
ROOT
ATOM      1  C   UNL     1      84.513  58.529  90.942  0.00  0.00    +0.000 A 
ATOM      2  C   UNL     1      83.150  58.773  90.703  0.00  0.00    +0.000 A 
ATOM      3  C   UNL     1      82.233  57.723  90.673  0.00  0.00    +0.000 A 
ATOM      4  C   UNL     1      82.666  56.418  90.885  0.00  0.00    +0.000 A 
ATOM      5  C   UNL     1      84.018  56.161  91.127  0.00  0.00    +0.000 A 
ATOM      6  C   UNL     1      84.953  57.209  91.165  0.00  0.00    +0.000 A 
ENDROOT
BRANCH   1   8
ATOM      7  C   UNL     1      85.206  60.697  90.049  0.00  0.00    +0.000 C 
ATOM      8  C   UNL     1      85.411  59.689  90.911  0.00  0.00    +0.000 C 
BRANCH   7  12
ATOM      9  C   UNL     1      87.648  64.203  89.803  0.00  0.00    +0.000 A 
ATOM     10  C   UNL     1      86.868  63.992  90.938  0.00  0.00    +0.000 A 
ATOM     11  C   UNL     1      86.063  62.853  91.035  0.00  0.00    +0.000 A 
ATOM     12  C   UNL     1      86.022  61.919  89.991  0.00  0.00    +0.000 A 
ATOM     13  C   UNL     1      86.825  62.135  88.863  0.00  0.00    +0.000 A 
ATOM     14  C   UNL     1      87.630  63.272  88.767  0.00  0.00    +0.000 A 
ENDBRANCH   7  12
ENDBRANCH   1   8
BRANCH   6  15
ATOM     15  S   UNL     1      86.669  56.765  91.437  0.00  0.00    +0.000 S 
BRANCH  15  16
ATOM     16  C   UNL     1      86.998  56.207  89.875  0.00  0.00    +0.000 C 
ATOM     17  N   UNL     1      87.219  55.832  88.799  0.00  0.00    +0.000 NA
ENDBRANCH  15  16
ENDBRANCH   6  15
TORSDOF 4
ENDMDL
