REMARK  Name = *****
REMARK  4 active torsions:
REMARK  status: ('A' for Active; 'I' for Inactive)
REMARK    1  A    between atoms: C_1  and  O_2
REMARK    2  A    between atoms: O_2  and  C_3
REMARK    3  A    between atoms: C_6  and  C_9
REMARK    4  A    between atoms: C_10  and  C_11
REMARK                            x       y       z     vdW  Elec       q    Type
REMARK                         _______ _______ _______ _____ _____    ______ ____
ROOT
ATOM      1  C   UNL     1       3.189  -0.606   0.909  0.00  0.00    +0.000 A 
ATOM      2  C   UNL     1       2.726  -1.748   1.561  0.00  0.00    +0.000 A 
ATOM      3  C   UNL     1       3.485  -2.334   2.582  0.00  0.00    +0.000 A 
ATOM      4  C   UNL     1       4.721  -1.794   2.958  0.00  0.00    +0.000 A 
ATOM      5  C   UNL     1       5.172  -0.639   2.311  0.00  0.00    +0.000 A 
ATOM      6  C   UNL     1       4.413  -0.056   1.292  0.00  0.00    +0.000 A 
ENDROOT
BRANCH   1   8
ATOM      7  C   UNL     1       1.301  -0.464  -0.527  0.00  0.00    +0.000 C 
ATOM      8  O   UNL     1       2.550   0.063  -0.097  0.00  0.00    +0.000 OA
ENDBRANCH   1   8
BRANCH   4   9
ATOM      9  C   UNL     1       5.526  -2.360   4.048  0.00  0.00    +0.000 C 
ATOM     10  C   UNL     1       5.669  -3.679   4.272  0.00  0.00    +0.000 C 
BRANCH  10  11
ATOM     11  C   UNL     1       6.494  -4.250   5.385  0.00  0.00    +0.000 C 
ATOM     12  S   UNL     1       7.814  -5.283   4.683  0.00  0.00    +0.000 S 
ATOM     13  C   UNL     1       7.548  -6.723   5.747  0.00  0.00    +0.000 C 
ATOM     14  C   UNL     1       6.056  -6.861   5.966  0.00  0.00    +0.000 C 
ATOM     15  S   UNL     1       5.428  -5.242   6.473  0.00  0.00    +0.000 S 
ENDBRANCH  10  11
ENDBRANCH   4   9
TORSDOF 3
