MODEL 1
REMARK VINA RESULT:      -4.7      0.000      0.000
REMARK  Name = *****
REMARK  5 active torsions:
REMARK  status: ('A' for Active; 'I' for Inactive)
REMARK    1  A    between atoms: C_1  and  C_2
REMARK    2  A    between atoms: C_5  and  S_8
REMARK    3  A    between atoms: S_8  and  O_10
REMARK    4  A    between atoms: O_10  and  C_11
REMARK    5  A    between atoms: C_11  and  C_12
REMARK                            x       y       z     vdW  Elec       q    Type
REMARK                         _______ _______ _______ _____ _____    ______ ____
ROOT
ATOM      1  O   UNL     1      88.464  65.793  86.167  0.00  0.00    +0.000 OA
ENDROOT
BRANCH   1   2
ATOM      2  S   UNL     1      89.520  66.898  85.656  0.00  0.00    +0.000 S 
ATOM      3  O   UNL     1      90.872  66.519  86.181  0.00  0.00    +0.000 OA
BRANCH   2   8
ATOM      4  C   UNL     1      87.397  71.208  89.454  0.00  0.00    +0.000 C 
ATOM      5  C   UNL     1      87.927  70.140  88.544  0.00  0.00    +0.000 A 
ATOM      6  C   UNL     1      89.079  70.367  87.783  0.00  0.00    +0.000 A 
ATOM      7  C   UNL     1      89.555  69.386  86.909  0.00  0.00    +0.000 A 
ATOM      8  C   UNL     1      88.877  68.170  86.773  0.00  0.00    +0.000 A 
ATOM      9  C   UNL     1      87.720  67.945  87.527  0.00  0.00    +0.000 A 
ATOM     10  C   UNL     1      87.243  68.926  88.399  0.00  0.00    +0.000 A 
ENDBRANCH   2   8
ENDBRANCH   1   2
BRANCH   1  11
ATOM     11  C   UNL     1      89.023  64.520  86.466  0.00  0.00    +0.000 C 
BRANCH  11  12
ATOM     12  C   UNL     1      88.304  63.959  87.667  0.00  0.00    +0.000 A 
ATOM     13  C   UNL     1      88.594  64.421  88.958  0.00  0.00    +0.000 A 
ATOM     14  C   UNL     1      87.919  63.893  90.059  0.00  0.00    +0.000 A 
ATOM     15  C   UNL     1      86.955  62.909  89.905  0.00  0.00    +0.000 A 
ATOM     16  C   UNL     1      86.667  62.452  88.627  0.00  0.00    +0.000 A 
ATOM     17  C   UNL     1      87.328  62.963  87.513  0.00  0.00    +0.000 A 
ATOM     18  F   UNL     1      85.736  61.503  88.461  0.00  0.00    +0.000 F 
ATOM     19  F   UNL     1      88.210  64.345  91.285  0.00  0.00    +0.000 F 
ENDBRANCH  11  12
ENDBRANCH   1  11
TORSDOF 4
ENDMDL
