MODEL 1
REMARK VINA RESULT:      -4.7      0.000      0.000
REMARK  Name = *****
REMARK  5 active torsions:
REMARK  status: ('A' for Active; 'I' for Inactive)
REMARK    1  A    between atoms: C_1  and  C_2
REMARK    2  A    between atoms: C_4  and  C_8
REMARK    3  A    between atoms: C_8  and  O_10
REMARK    4  A    between atoms: O_10  and  C_11
REMARK    5  A    between atoms: C_12  and  C_18
REMARK                            x       y       z     vdW  Elec       q    Type
REMARK                         _______ _______ _______ _____ _____    ______ ____
ROOT
ATOM      1  C   UNL     1      89.216  68.736  86.458  0.00  0.00    +0.000 C 
ATOM      2  O   UNL     1      90.232  68.062  86.547  0.00  0.00    +0.000 OA
ENDROOT
BRANCH   1   6
ATOM      3  C   UNL     1      88.617  72.034  90.248  0.00  0.00    +0.000 C 
ATOM      4  C   UNL     1      88.175  70.816  89.490  0.00  0.00    +0.000 A 
ATOM      5  C   UNL     1      88.902  70.373  88.374  0.00  0.00    +0.000 A 
ATOM      6  C   UNL     1      88.476  69.255  87.643  0.00  0.00    +0.000 A 
ATOM      7  C   UNL     1      87.307  68.586  88.030  0.00  0.00    +0.000 A 
ATOM      8  C   UNL     1      86.571  69.032  89.128  0.00  0.00    +0.000 A 
ATOM      9  C   UNL     1      87.000  70.146  89.850  0.00  0.00    +0.000 A 
ENDBRANCH   1   6
BRANCH   1  10
ATOM     10  O   UNL     1      88.580  69.136  85.298  0.00  0.00    +0.000 OA
BRANCH  10  11
ATOM     11  C   UNL     1      89.121  70.295  84.729  0.00  0.00    +0.000 A 
ATOM     12  C   UNL     1      88.338  71.455  84.666  0.00  0.00    +0.000 A 
ATOM     13  C   UNL     1      88.885  72.590  84.054  0.00  0.00    +0.000 A 
ATOM     14  C   UNL     1      90.170  72.545  83.504  0.00  0.00    +0.000 A 
ATOM     15  C   UNL     1      90.926  71.375  83.554  0.00  0.00    +0.000 A 
ATOM     16  C   UNL     1      90.397  70.238  84.164  0.00  0.00    +0.000 A 
ATOM     17 CL   UNL     1      90.823  73.948  82.750  0.00  0.00    +0.000 Cl
ATOM     18  C   UNL     1      86.961  71.498  85.259  0.00  0.00    +0.000 C 
ENDBRANCH  10  11
ENDBRANCH   1  10
TORSDOF 3
ENDMDL
