MODEL 1
REMARK VINA RESULT:      -5.0      0.000      0.000
REMARK  Name = *****
REMARK  3 active torsions:
REMARK  status: ('A' for Active; 'I' for Inactive)
REMARK    1  A    between atoms: C_1  and  C_2
REMARK    2  A    between atoms: C_5  and  C_8
REMARK    3  A    between atoms: C_8  and  C_9
REMARK                            x       y       z     vdW  Elec       q    Type
REMARK                         _______ _______ _______ _____ _____    ______ ____
ROOT
ATOM      1  C   UNL     1      89.246  68.580  86.911  0.00  0.00    +0.000 A 
ATOM      2  N   UNL     1      88.288  67.706  87.167  0.00  0.00    +0.000 NA
ATOM      3  C   UNL     1      88.805  66.520  86.713  0.00  0.00    +0.000 A 
ATOM      4  C   UNL     1      88.268  65.227  86.695  0.00  0.00    +0.000 A 
ATOM      5  C   UNL     1      89.051  64.192  86.159  0.00  0.00    +0.000 A 
ATOM      6  C   UNL     1      90.335  64.441  85.656  0.00  0.00    +0.000 A 
ATOM      7  C   UNL     1      90.886  65.729  85.669  0.00  0.00    +0.000 A 
ATOM      8  C   UNL     1      90.079  66.723  86.206  0.00  0.00    +0.000 A 
ATOM      9  O   UNL     1      90.374  68.049  86.338  0.00  0.00    +0.000 OA
ENDROOT
BRANCH   1  10
ATOM     10  C   UNL     1      89.268  70.042  87.186  0.00  0.00    +0.000 C 
BRANCH  10  15
ATOM     11  C   UNL     1      84.032  72.577  86.805  0.00  0.00    +0.000 C 
ATOM     12  C   UNL     1      85.365  71.894  86.901  0.00  0.00    +0.000 A 
ATOM     13  C   UNL     1      86.102  71.610  85.747  0.00  0.00    +0.000 A 
ATOM     14  C   UNL     1      87.358  71.007  85.839  0.00  0.00    +0.000 A 
ATOM     15  C   UNL     1      87.902  70.681  87.089  0.00  0.00    +0.000 A 
ATOM     16  C   UNL     1      87.173  70.989  88.245  0.00  0.00    +0.000 A 
ATOM     17  C   UNL     1      85.916  71.593  88.151  0.00  0.00    +0.000 A 
ENDBRANCH  10  15
ENDBRANCH   1  10
TORSDOF 2
ENDMDL
