REMARK  Name = *****
REMARK  3 active torsions:
REMARK  status: ('A' for Active; 'I' for Inactive)
REMARK    1  A    between atoms: C_3  and  C_5
REMARK    2  A    between atoms: C_5  and  C_6
REMARK    3  A    between atoms: C_6  and  C_7
REMARK                            x       y       z     vdW  Elec       q    Type
REMARK                         _______ _______ _______ _____ _____    ______ ____
ROOT
ATOM      1  C   UNL     1      -0.456  -1.462  -1.641  0.00  0.00    +0.000 C 
ENDROOT
BRANCH   1   4
ATOM      2  C   UNL     1       1.422  -1.829   0.749  0.00  0.00    +0.000 C 
ATOM      3  C   UNL     1       1.103  -0.438   0.170  0.00  0.00    +0.000 C 
ATOM      4  C   UNL     1      -0.306  -0.971  -0.201  0.00  0.00    +0.000 C 
ATOM      5  C   UNL     1      -0.096  -2.049   0.897  0.00  0.00    +0.000 C 
ENDBRANCH   1   4
BRANCH   1   6
ATOM      6  C   UNL     1      -1.851  -2.048  -1.866  0.00  0.00    +0.000 C 
BRANCH   6   7
ATOM      7  C   UNL     1      -2.007  -2.506  -3.309  0.00  0.00    +0.000 C 
ATOM      8  C   UNL     1      -3.319  -3.270  -3.637  0.00  0.00    +0.000 C 
ATOM      9  C   UNL     1      -2.487  -4.139  -4.601  0.00  0.00    +0.000 C 
ATOM     10  C   UNL     1      -1.258  -3.799  -3.733  0.00  0.00    +0.000 C 
ENDBRANCH   6   7
ENDBRANCH   1   6
TORSDOF 3
