REMARK  Name = *****
REMARK  4 active torsions:
REMARK  status: ('A' for Active; 'I' for Inactive)
REMARK    1  A    between atoms: C_3  and  N_8
REMARK    2  A    between atoms: N_8  and  C_9
REMARK    3  A    between atoms: C_9  and  C_10
REMARK    4  A    between atoms: C_13  and  C_16
REMARK                            x       y       z     vdW  Elec       q    Type
REMARK                         _______ _______ _______ _____ _____    ______ ____
ROOT
ATOM      1  C   UNL     1      -3.048   2.651   0.088  0.00  0.00    +0.000 C 
ENDROOT
BRANCH   1   2
ATOM      2  C   UNL     1      -3.838   3.892   0.015  0.00  0.00    +0.000 A 
ATOM      3  C   UNL     1      -3.485   5.008  -0.744  0.00  0.00    +0.000 A 
ATOM      4  C   UNL     1      -4.317   6.133  -0.771  0.00  0.00    +0.000 A 
ATOM      5  C   UNL     1      -5.516   6.156  -0.046  0.00  0.00    +0.000 A 
ATOM      6  C   UNL     1      -5.874   5.023   0.700  0.00  0.00    +0.000 A 
ATOM      7  C   UNL     1      -5.043   3.899   0.727  0.00  0.00    +0.000 A 
BRANCH   5   8
ATOM      8  C   UNL     1      -6.427   7.360  -0.075  0.00  0.00    +0.000 C 
ATOM      9  F   UNL     1      -5.883   8.442  -0.698  0.00  0.00    +0.000 F 
ATOM     10  F   UNL     1      -7.598   7.106  -0.722  0.00  0.00    +0.000 F 
ATOM     11  F   UNL     1      -6.774   7.783   1.172  0.00  0.00    +0.000 F 
ENDBRANCH   5   8
ENDBRANCH   1   2
BRANCH   1  12
ATOM     12  N   UNL     1      -1.773   2.527  -0.206  0.00  0.00    +0.000 N 
ATOM     13  O   UNL     1      -1.027   3.500  -0.549  0.00  0.00    +0.000 OA
BRANCH  12  16
ATOM     14  C   UNL     1      -1.158  -1.163  -0.566  0.00  0.00    +0.000 A 
ATOM     15  C   UNL     1      -1.755   0.093  -0.702  0.00  0.00    +0.000 A 
ATOM     16  C   UNL     1      -1.181   1.204  -0.068  0.00  0.00    +0.000 A 
ATOM     17  C   UNL     1      -0.004   1.072   0.675  0.00  0.00    +0.000 A 
ATOM     18  C   UNL     1       0.574  -0.184   0.798  0.00  0.00    +0.000 A 
ATOM     19  C   UNL     1       0.007  -1.301   0.189  0.00  0.00    +0.000 A 
ATOM     20  F   UNL     1       1.698  -0.326   1.514  0.00  0.00    +0.000 F 
ENDBRANCH  12  16
ENDBRANCH   1  12
TORSDOF 4
