MODEL 1
REMARK VINA RESULT:      -4.4      0.000      0.000
REMARK  Name = *****
REMARK  6 active torsions:
REMARK  status: ('A' for Active; 'I' for Inactive)
REMARK    1  A    between atoms: C_1  and  C_2
REMARK    2  A    between atoms: C_2  and  C_3
REMARK    3  A    between atoms: C_2  and  N_9
REMARK    4  A    between atoms: N_9  and  C_10
REMARK    5  A    between atoms: N_9  and  N_17
REMARK    6  A    between atoms: C_10  and  C_11
REMARK                            x       y       z     vdW  Elec       q    Type
REMARK                         _______ _______ _______ _____ _____    ______ ____
ROOT
ATOM      1  N   UNL     1     100.988 126.527  83.879  0.00  0.00    +0.000 NA
ENDROOT
BRANCH   1   3
ATOM      2  C   UNL     1      98.936 126.670  82.404  0.00  0.00    +0.000 C 
ATOM      3  C   UNL     1      99.563 126.954  83.783  0.00  0.00    +0.000 C 
BRANCH   3   4
ATOM      4  C   UNL     1      99.390 128.394  84.286  0.00  0.00    +0.000 A 
ATOM      5  C   UNL     1      99.052 128.717  85.609  0.00  0.00    +0.000 A 
ATOM      6  C   UNL     1      98.899 130.049  86.002  0.00  0.00    +0.000 A 
ATOM      7  C   UNL     1      99.082 131.079  85.081  0.00  0.00    +0.000 A 
ATOM      8  C   UNL     1      99.419 130.778  83.765  0.00  0.00    +0.000 A 
ATOM      9  C   UNL     1      99.572 129.449  83.371  0.00  0.00    +0.000 A 
ENDBRANCH   3   4
ENDBRANCH   1   3
BRANCH   1  10
ATOM     10  N   UNL     1     101.248 125.626  84.806  0.00  0.00    +0.000 NA
ATOM     11  O   UNL     1     100.224 125.291  85.410  0.00  0.00    +0.000 OA
ENDBRANCH   1  10
BRANCH   1  12
ATOM     12  C   UNL     1     101.573 126.187  82.569  0.00  0.00    +0.000 C 
BRANCH  12  13
ATOM     13  C   UNL     1     102.657 127.156  82.135  0.00  0.00    +0.000 A 
ATOM     14  C   UNL     1     103.144 128.130  83.017  0.00  0.00    +0.000 A 
ATOM     15  C   UNL     1     104.141 129.018  82.607  0.00  0.00    +0.000 A 
ATOM     16  C   UNL     1     104.657 128.942  81.314  0.00  0.00    +0.000 A 
ATOM     17  C   UNL     1     104.176 127.982  80.428  0.00  0.00    +0.000 A 
ATOM     18  C   UNL     1     103.179 127.093  80.834  0.00  0.00    +0.000 A 
ENDBRANCH  12  13
ENDBRANCH   1  12
TORSDOF 5
ENDMDL
