MODEL 1
REMARK VINA RESULT:      -4.3      0.000      0.000
REMARK  Name = *****
REMARK  5 active torsions:
REMARK  status: ('A' for Active; 'I' for Inactive)
REMARK    1  A    between atoms: C_1  and  C_2
REMARK    2  A    between atoms: C_2  and  N_3
REMARK    3  A    between atoms: N_3  and  C_4
REMARK    4  A    between atoms: C_8  and  C_10
REMARK    5  A    between atoms: C_11  and  C_13
REMARK                            x       y       z     vdW  Elec       q    Type
REMARK                         _______ _______ _______ _____ _____    ______ ____
ROOT
ATOM      1  N   UNL     1      88.257  69.048  86.529  0.00  0.00    +0.000 N 
ATOM      2  C   UNL     1      88.215  67.661  86.791  0.00  0.00    +0.000 C 
ATOM      3  O   UNL     1      87.595  67.173  87.742  0.00  0.00    +0.000 OA
ENDROOT
BRANCH   1   4
ATOM      4  C   UNL     1      87.730  69.976  87.514  0.00  0.00    +0.000 A 
ATOM      5  C   UNL     1      88.458  70.289  88.672  0.00  0.00    +0.000 A 
ATOM      6  C   UNL     1      87.972  71.198  89.618  0.00  0.00    +0.000 A 
ATOM      7  C   UNL     1      86.746  71.825  89.421  0.00  0.00    +0.000 A 
ATOM      8  C   UNL     1      86.004  71.557  88.270  0.00  0.00    +0.000 A 
ATOM      9  C   UNL     1      86.498  70.629  87.334  0.00  0.00    +0.000 A 
ATOM     10  C   UNL     1      84.661  72.195  88.067  0.00  0.00    +0.000 C 
ENDBRANCH   1   4
BRANCH   2  11
ATOM     11  C   UNL     1      88.971  66.705  85.847  0.00  0.00    +0.000 C 
ATOM     12  C   UNL     1      88.376  65.283  85.917  0.00  0.00    +0.000 C 
ATOM     13  C   UNL     1      89.127  64.309  85.013  0.00  0.00    +0.000 C 
ATOM     14  C   UNL     1      90.615  64.277  85.345  0.00  0.00    +0.000 C 
ATOM     15  C   UNL     1      91.225  65.673  85.307  0.00  0.00    +0.000 C 
ATOM     16  C   UNL     1      90.463  66.651  86.199  0.00  0.00    +0.000 C 
ENDBRANCH   2  11
BRANCH   1  18
ATOM     17  C   UNL     1      89.925  70.457  85.283  0.00  0.00    +0.000 C 
ATOM     18  C   UNL     1      88.661  69.603  85.222  0.00  0.00    +0.000 C 
ENDBRANCH   1  18
TORSDOF 3
ENDMDL
