MODEL 1
REMARK VINA RESULT:      -4.1      0.000      0.000
REMARK  Name = *****
REMARK  1 active torsions:
REMARK  status: ('A' for Active; 'I' for Inactive)
REMARK    1  A    between atoms: C_6  and  C_7
REMARK                            x       y       z     vdW  Elec       q    Type
REMARK                         _______ _______ _______ _____ _____    ______ ____
ROOT
ATOM      1  C   UNL     1      96.715 120.449  82.325  0.00  0.00    +0.000 C 
ATOM      2  C   UNL     1      95.723 119.338  81.983  0.00  0.00    +0.000 C 
ATOM      3  C   UNL     1      96.425 117.995  81.777  0.00  0.00    +0.000 C 
ATOM      4  C   UNL     1      97.540 118.120  80.769  0.00  0.00    +0.000 C 
ATOM      5  C   UNL     1      97.611 117.373  79.702  0.00  0.00    +0.000 C 
ATOM      6  C   UNL     1      97.669 116.633  78.632  0.00  0.00    +0.000 C 
ATOM      7  C   UNL     1      98.534 119.215  81.067  0.00  0.00    +0.000 C 
ATOM      8  C   UNL     1      97.826 120.553  81.278  0.00  0.00    +0.000 C 
ENDROOT
BRANCH   6   9
ATOM      9  C   UNL     1      96.678 116.684  77.610  0.00  0.00    +0.000 A 
ATOM     10  C   UNL     1      95.478 117.377  77.563  0.00  0.00    +0.000 A 
ATOM     11  C   UNL     1      94.755 117.167  76.354  0.00  0.00    +0.000 A 
ATOM     12  C   UNL     1      95.419 116.316  75.502  0.00  0.00    +0.000 A 
ATOM     13  S   UNL     1      96.901 115.780  76.159  0.00  0.00    +0.000 S 
ENDBRANCH   6   9
TORSDOF 1
ENDMDL
