MODEL 1
REMARK VINA RESULT:      -5.1      0.000      0.000
REMARK  Name = *****
REMARK  4 active torsions:
REMARK  status: ('A' for Active; 'I' for Inactive)
REMARK    1  A    between atoms: C_1  and  C_2
REMARK    2  A    between atoms: C_5  and  C_6
REMARK    3  A    between atoms: C_6  and  C_7
REMARK    4  A    between atoms: C_14  and  C_17
REMARK                            x       y       z     vdW  Elec       q    Type
REMARK                         _______ _______ _______ _____ _____    ______ ____
ROOT
ATOM      1  C   UNL     1      86.795  65.305  87.884  0.00  0.00    +0.000 C 
ATOM      2  C   UNL     1      87.859  66.236  87.397  0.00  0.00    +0.000 C 
ATOM      3  C   UNL     1      87.820  67.568  87.573  0.00  0.00    +0.000 C 
ATOM      4  C   UNL     1      88.873  68.435  87.069  0.00  0.00    +0.000 C 
ATOM      5  C   UNL     1      88.857  69.774  87.229  0.00  0.00    +0.000 C 
ATOM      6  C   UNL     1      89.986  67.840  86.338  0.00  0.00    +0.000 C 
ATOM      7  C   UNL     1      90.076  66.515  86.139  0.00  0.00    +0.000 C 
ATOM      8  C   UNL     1      89.007  65.613  86.669  0.00  0.00    +0.000 C 
ATOM      9  O   UNL     1      89.070  64.397  86.509  0.00  0.00    +0.000 OA
ATOM     10  C   UNL     1      91.201  65.860  85.402  0.00  0.00    +0.000 C 
ENDROOT
BRANCH   5  11
ATOM     11  C   UNL     1      87.852  70.624  87.961  0.00  0.00    +0.000 C 
BRANCH  11  12
ATOM     12  C   UNL     1      86.799  71.200  87.044  0.00  0.00    +0.000 A 
ATOM     13  C   UNL     1      87.029  71.291  85.664  0.00  0.00    +0.000 A 
ATOM     14  C   UNL     1      86.061  71.834  84.817  0.00  0.00    +0.000 A 
ATOM     15  C   UNL     1      84.857  72.297  85.340  0.00  0.00    +0.000 A 
ATOM     16  C   UNL     1      84.617  72.217  86.712  0.00  0.00    +0.000 A 
ATOM     17  C   UNL     1      85.583  71.671  87.560  0.00  0.00    +0.000 A 
ENDBRANCH  11  12
ENDBRANCH   5  11
TORSDOF 2
ENDMDL
