MODEL 1
REMARK VINA RESULT:      -4.7      0.000      0.000
REMARK  Name = *****
REMARK  3 active torsions:
REMARK  status: ('A' for Active; 'I' for Inactive)
REMARK    1  A    between atoms: C_4  and  C_7
REMARK    2  A    between atoms: C_8  and  C_9
REMARK    3  A    between atoms: C_9  and  C_10
REMARK                            x       y       z     vdW  Elec       q    Type
REMARK                         _______ _______ _______ _____ _____    ______ ____
ROOT
ATOM      1  C   UNL     1     102.021 125.977  82.341  0.00  0.00    +0.000 C 
ATOM      2  C   UNL     1     101.089 126.553  82.834  0.00  0.00    +0.000 C 
ENDROOT
BRANCH   1   6
ATOM      3  C   UNL     1     105.311 123.971  80.614  0.00  0.00    +0.000 A 
ATOM      4  C   UNL     1     104.601 124.915  79.871  0.00  0.00    +0.000 A 
ATOM      5  C   UNL     1     103.514 125.579  80.443  0.00  0.00    +0.000 A 
ATOM      6  C   UNL     1     103.135 125.297  81.757  0.00  0.00    +0.000 A 
ATOM      7  C   UNL     1     103.846 124.352  82.499  0.00  0.00    +0.000 A 
ATOM      8  C   UNL     1     104.934 123.689  81.928  0.00  0.00    +0.000 A 
ENDBRANCH   1   6
BRANCH   2   9
ATOM      9  C   UNL     1      99.948 127.255  83.438  0.00  0.00    +0.000 C 
ATOM     10 CL   UNL     1      98.573 127.177  82.299  0.00  0.00    +0.000 Cl
BRANCH   9  11
ATOM     11  C   UNL     1     100.251 128.697  83.793  0.00  0.00    +0.000 A 
ATOM     12  C   UNL     1     101.488 129.077  84.341  0.00  0.00    +0.000 A 
ATOM     13  C   UNL     1     101.749 130.411  84.662  0.00  0.00    +0.000 A 
ATOM     14  C   UNL     1     100.779 131.384  84.437  0.00  0.00    +0.000 A 
ATOM     15  C   UNL     1      99.547 131.026  83.892  0.00  0.00    +0.000 A 
ATOM     16  C   UNL     1      99.285 129.693  83.571  0.00  0.00    +0.000 A 
ENDBRANCH   9  11
ENDBRANCH   2   9
TORSDOF 3
ENDMDL
