MODEL 1
REMARK VINA RESULT:      -4.7      0.000      0.000
REMARK  Name = *****
REMARK  3 active torsions:
REMARK  status: ('A' for Active; 'I' for Inactive)
REMARK    1  A    between atoms: C_4  and  C_7
REMARK    2  A    between atoms: C_8  and  C_9
REMARK    3  A    between atoms: C_12  and  N_15
REMARK                            x       y       z     vdW  Elec       q    Type
REMARK                         _______ _______ _______ _____ _____    ______ ____
ROOT
ATOM      1  C   UNL     1     101.980 125.948  82.534  0.00  0.00    +0.000 C 
ATOM      2  C   UNL     1     102.745 125.888  81.432  0.00  0.00    +0.000 C 
ENDROOT
BRANCH   1   6
ATOM      3  C   UNL     1      99.027 128.949  83.290  0.00  0.00    +0.000 A 
ATOM      4  C   UNL     1      98.654 127.762  82.667  0.00  0.00    +0.000 A 
ATOM      5  C   UNL     1      99.608 126.775  82.407  0.00  0.00    +0.000 A 
ATOM      6  C   UNL     1     100.950 126.972  82.759  0.00  0.00    +0.000 A 
ATOM      7  C   UNL     1     101.311 128.164  83.401  0.00  0.00    +0.000 A 
ATOM      8  C   UNL     1     100.355 129.150  83.660  0.00  0.00    +0.000 A 
ENDBRANCH   1   6
BRANCH   2   9
ATOM      9  C   UNL     1     103.787 124.876  81.213  0.00  0.00    +0.000 A 
ATOM     10  C   UNL     1     104.502 124.785  80.013  0.00  0.00    +0.000 A 
ATOM     11  C   UNL     1     105.510 123.823  79.854  0.00  0.00    +0.000 A 
ATOM     12  C   UNL     1     105.836 122.946  80.897  0.00  0.00    +0.000 A 
ATOM     13  C   UNL     1     105.125 123.045  82.098  0.00  0.00    +0.000 A 
ATOM     14  C   UNL     1     104.118 124.006  82.259  0.00  0.00    +0.000 A 
BRANCH  12  15
ATOM     15  N   UNL     1     106.807 121.969  80.792  0.00  0.00    +0.000 NA
ATOM     16  O   UNL     1     106.430 120.841  81.135  0.00  0.00    +0.000 OA
ENDBRANCH  12  15
ENDBRANCH   2   9
TORSDOF 3
ENDMDL
