REMARK  Name = *****
REMARK  3 active torsions:
REMARK  status: ('A' for Active; 'I' for Inactive)
REMARK    1  A    between atoms: C_5  and  C_7
REMARK    2  A    between atoms: C_8  and  C_9
REMARK    3  A    between atoms: C_9  and  C_10
REMARK                            x       y       z     vdW  Elec       q    Type
REMARK                         _______ _______ _______ _____ _____    ______ ____
ROOT
ATOM      1  C   UNL     1       1.723  -1.529   1.458  0.00  0.00    +0.000 C 
ATOM      2  C   UNL     1       2.273  -2.085   2.371  0.00  0.00    +0.000 C 
ENDROOT
BRANCH   1   7
ATOM      3  C   UNL     1       0.302   1.408  -0.514  0.00  0.00    +0.000 C 
ATOM      4  C   UNL     1      -1.155   1.120  -0.143  0.00  0.00    +0.000 C 
ATOM      5  C   UNL     1      -1.409  -0.330   0.151  0.00  0.00    +0.000 C 
ATOM      6  C   UNL     1      -0.425  -1.221   0.351  0.00  0.00    +0.000 C 
ATOM      7  C   UNL     1       1.040  -0.860   0.336  0.00  0.00    +0.000 C 
ATOM      8  C   UNL     1       1.267   0.661   0.404  0.00  0.00    +0.000 C 
ENDBRANCH   1   7
BRANCH   2   9
ATOM      9  C   UNL     1       2.934  -2.767   3.492  0.00  0.00    +0.000 C 
BRANCH   9  10
ATOM     10  C   UNL     1       2.402  -4.164   3.702  0.00  0.00    +0.000 A 
ATOM     11  C   UNL     1       3.038  -5.266   3.111  0.00  0.00    +0.000 A 
ATOM     12  C   UNL     1       2.536  -6.556   3.296  0.00  0.00    +0.000 A 
ATOM     13  C   UNL     1       1.391  -6.756   4.065  0.00  0.00    +0.000 A 
ATOM     14  C   UNL     1       0.744  -5.668   4.647  0.00  0.00    +0.000 A 
ATOM     15  C   UNL     1       1.245  -4.378   4.465  0.00  0.00    +0.000 A 
ENDBRANCH   9  10
ENDBRANCH   2   9
TORSDOF 3
