REMARK  Name = *****
REMARK  2 active torsions:
REMARK  status: ('A' for Active; 'I' for Inactive)
REMARK    1  A    between atoms: C_4  and  N_8
REMARK    2  A    between atoms: C_9  and  C_10
REMARK                            x       y       z     vdW  Elec       q    Type
REMARK                         _______ _______ _______ _____ _____    ______ ____
ROOT
ATOM      1  N   UNL     1      -0.033   2.414   0.102  0.00  0.00    +0.000 NA
ATOM      2  C   UNL     1       1.072   3.087   0.060  0.00  0.00    +0.000 C 
ENDROOT
BRANCH   1   6
ATOM      3  C   UNL     1       0.184  -1.819   0.050  0.00  0.00    +0.000 A 
ATOM      4  C   UNL     1      -0.403  -1.150   1.123  0.00  0.00    +0.000 A 
ATOM      5  C   UNL     1      -0.459   0.245   1.128  0.00  0.00    +0.000 A 
ATOM      6  C   UNL     1       0.071   1.006   0.079  0.00  0.00    +0.000 A 
ATOM      7  C   UNL     1       0.647   0.309  -0.993  0.00  0.00    +0.000 A 
ATOM      8  C   UNL     1       0.711  -1.086  -1.012  0.00  0.00    +0.000 A 
ATOM      9  F   UNL     1       1.167   0.983  -2.030  0.00  0.00    +0.000 F 
ATOM     10  F   UNL     1      -1.031   0.854   2.179  0.00  0.00    +0.000 F 
ENDBRANCH   1   6
BRANCH   2  11
ATOM     11  C   UNL     1       1.078   4.563   0.073  0.00  0.00    +0.000 A 
ATOM     12  C   UNL     1       2.303   5.231   0.003  0.00  0.00    +0.000 A 
ATOM     13  C   UNL     1       2.315   6.622   0.015  0.00  0.00    +0.000 A 
ATOM     14  C   UNL     1       1.127   7.342   0.095  0.00  0.00    +0.000 A 
ATOM     15  C   UNL     1      -0.095   6.681   0.164  0.00  0.00    +0.000 A 
ATOM     16  C   UNL     1      -0.121   5.284   0.153  0.00  0.00    +0.000 A 
ATOM     17  F   UNL     1       1.151   8.682   0.106  0.00  0.00    +0.000 F 
ATOM     18  F   UNL     1       3.489   7.265  -0.051  0.00  0.00    +0.000 F 
ENDBRANCH   2  11
TORSDOF 2
