REMARK  Name = *****
REMARK  5 active torsions:
REMARK  status: ('A' for Active; 'I' for Inactive)
REMARK    1  A    between atoms: C_1  and  C_2
REMARK    2  A    between atoms: C_7  and  S_8
REMARK    3  A    between atoms: S_8  and  C_9
REMARK    4  A    between atoms: C_9  and  C_10
REMARK    5  A    between atoms: C_9  and  C_11
REMARK                            x       y       z     vdW  Elec       q    Type
REMARK                         _______ _______ _______ _____ _____    ______ ____
ROOT
ATOM      1  S   UNL     1       1.035  -2.765   0.208  0.00  0.00    +0.000 S 
ENDROOT
BRANCH   1   8
ATOM      2  C   UNL     1       1.964  -0.223   1.898  0.00  0.00    +0.000 C 
ATOM      3  C   UNL     1       0.958  -0.015   0.798  0.00  0.00    +0.000 A 
ATOM      4  C   UNL     1       0.474   1.283   0.560  0.00  0.00    +0.000 A 
ATOM      5  C   UNL     1      -0.476   1.523  -0.434  0.00  0.00    +0.000 A 
ATOM      6  C   UNL     1      -0.960   0.469  -1.201  0.00  0.00    +0.000 A 
ATOM      7  C   UNL     1      -0.485  -0.824  -0.982  0.00  0.00    +0.000 A 
ATOM      8  C   UNL     1       0.483  -1.075   0.001  0.00  0.00    +0.000 A 
ENDBRANCH   1   8
BRANCH   1   9
ATOM      9  C   UNL     1       2.572  -2.721  -0.808  0.00  0.00    +0.000 C 
ATOM     10  C   UNL     1       2.242  -2.899  -2.292  0.00  0.00    +0.000 C 
BRANCH   9  11
ATOM     11  C   UNL     1       3.560  -3.764  -0.310  0.00  0.00    +0.000 A 
ATOM     12  C   UNL     1       3.341  -5.141  -0.486  0.00  0.00    +0.000 A 
ATOM     13  C   UNL     1       4.266  -6.077  -0.018  0.00  0.00    +0.000 A 
ATOM     14  C   UNL     1       5.420  -5.653   0.635  0.00  0.00    +0.000 A 
ATOM     15  C   UNL     1       5.650  -4.293   0.824  0.00  0.00    +0.000 A 
ATOM     16  C   UNL     1       4.726  -3.355   0.358  0.00  0.00    +0.000 A 
ENDBRANCH   9  11
ENDBRANCH   1   9
TORSDOF 3
