MODEL 1
REMARK VINA RESULT:      -4.7      0.000      0.000
REMARK  Name = *****
REMARK  7 active torsions:
REMARK  status: ('A' for Active; 'I' for Inactive)
REMARK    1  A    between atoms: C_1  and  C_2
REMARK    2  A    between atoms: C_4  and  C_10
REMARK    3  A    between atoms: C_6  and  O_8
REMARK    4  A    between atoms: O_8  and  C_9
REMARK    5  A    between atoms: C_10  and  S_11
REMARK    6  A    between atoms: S_11  and  C_12
REMARK    7  A    between atoms: C_15  and  C_18
REMARK                            x       y       z     vdW  Elec       q    Type
REMARK                         _______ _______ _______ _____ _____    ______ ____
ROOT
ATOM      1  C   UNL     1      90.163  72.041  84.085  0.00  0.00    +0.000 C 
ATOM      2  C   UNL     1      89.964  70.731  84.794  0.00  0.00    +0.000 C 
ATOM      3  C   UNL     1      89.780  70.663  86.125  0.00  0.00    +0.000 C 
ATOM      4  C   UNL     1      89.614  69.372  86.898  0.00  0.00    +0.000 C 
ATOM      5  C   UNL     1      90.067  68.166  86.055  0.00  0.00    +0.000 C 
ATOM      6  C   UNL     1      89.519  68.216  84.627  0.00  0.00    +0.000 C 
ATOM      7  C   UNL     1      89.990  69.500  83.921  0.00  0.00    +0.000 C 
ENDROOT
BRANCH   6   8
ATOM      8  O   UNL     1      89.990  67.041  83.953  0.00  0.00    +0.000 OA
ATOM      9  C   UNL     1      89.561  65.830  84.561  0.00  0.00    +0.000 C 
ENDBRANCH   6   8
BRANCH   4  10
ATOM     10  C   UNL     1      88.162  69.180  87.388  0.00  0.00    +0.000 C 
BRANCH  10  11
ATOM     11  S   UNL     1      87.701  70.401  88.676  0.00  0.00    +0.000 S 
BRANCH  11  12
ATOM     12  C   UNL     1      86.361  71.238  87.850  0.00  0.00    +0.000 A 
ATOM     13  C   UNL     1      86.301  71.343  86.458  0.00  0.00    +0.000 A 
ATOM     14  C   UNL     1      85.231  71.997  85.842  0.00  0.00    +0.000 A 
ATOM     15  C   UNL     1      84.204  72.558  86.610  0.00  0.00    +0.000 A 
ATOM     16  C   UNL     1      84.250  72.426  88.003  0.00  0.00    +0.000 A 
ATOM     17  C   UNL     1      85.322  71.771  88.617  0.00  0.00    +0.000 A 
ATOM     18  C   UNL     1      83.036  73.226  85.948  0.00  0.00    +0.000 C 
ENDBRANCH  11  12
ENDBRANCH  10  11
ENDBRANCH   4  10
TORSDOF 4
ENDMDL
