MODEL 1
REMARK VINA RESULT:      -4.7      0.000      0.000
REMARK  Name = *****
REMARK  2 active torsions:
REMARK  status: ('A' for Active; 'I' for Inactive)
REMARK    1  A    between atoms: C_4  and  C_7
REMARK    2  A    between atoms: C_8  and  C_9
REMARK                            x       y       z     vdW  Elec       q    Type
REMARK                         _______ _______ _______ _____ _____    ______ ____
ROOT
ATOM      1  C   UNL     1     102.072 126.167  82.109  0.00  0.00    +0.000 C 
ATOM      2  C   UNL     1     102.940 125.434  81.718  0.00  0.00    +0.000 C 
ENDROOT
BRANCH   2   3
ATOM      3  C   UNL     1     103.970 124.563  81.252  0.00  0.00    +0.000 A 
ATOM      4  N   UNL     1     104.521 124.917  80.074  0.00  0.00    +0.000 NA
ATOM      5  C   UNL     1     105.496 124.110  79.612  0.00  0.00    +0.000 A 
ATOM      6  C   UNL     1     105.950 122.972  80.260  0.00  0.00    +0.000 A 
ATOM      7  C   UNL     1     105.360 122.635  81.474  0.00  0.00    +0.000 A 
ATOM      8  C   UNL     1     104.348 123.445  81.984  0.00  0.00    +0.000 A 
ATOM      9 CL   UNL     1     106.173 124.591  78.112  0.00  0.00    +0.000 Cl
ENDBRANCH   2   3
BRANCH   1  13
ATOM     10  C   UNL     1      99.019 128.754  83.459  0.00  0.00    +0.000 A 
ATOM     11  C   UNL     1      98.688 127.581  82.780  0.00  0.00    +0.000 A 
ATOM     12  C   UNL     1      99.697 126.725  82.333  0.00  0.00    +0.000 A 
ATOM     13  C   UNL     1     101.037 127.042  82.566  0.00  0.00    +0.000 A 
ATOM     14  C   UNL     1     101.366 128.216  83.246  0.00  0.00    +0.000 A 
ATOM     15  C   UNL     1     100.357 129.072  83.692  0.00  0.00    +0.000 A 
ENDBRANCH   1  13
TORSDOF 2
ENDMDL
