REMARK  Name = *****
REMARK  2 active torsions:
REMARK  status: ('A' for Active; 'I' for Inactive)
REMARK    1  A    between atoms: C_6  and  C_7
REMARK    2  A    between atoms: C_8  and  C_9
REMARK                            x       y       z     vdW  Elec       q    Type
REMARK                         _______ _______ _______ _____ _____    ______ ____
ROOT
ATOM      1  C   UNL     1       4.606   0.013  -0.017  0.00  0.00    +0.000 C 
ATOM      2  C   UNL     1       5.595   0.050   0.892  0.00  0.00    +0.000 C 
ENDROOT
BRANCH   1   8
ATOM      3  C   UNL     1       2.469  -1.274  -0.171  0.00  0.00    +0.000 C 
ATOM      4  C   UNL     1       0.969  -1.280   0.125  0.00  0.00    +0.000 C 
ATOM      5  C   UNL     1       0.295  -0.031  -0.434  0.00  0.00    +0.000 C 
ATOM      6  C   UNL     1       0.948   1.249   0.076  0.00  0.00    +0.000 C 
ATOM      7  C   UNL     1       2.448   1.256  -0.220  0.00  0.00    +0.000 C 
ATOM      8  C   UNL     1       3.141   0.008   0.346  0.00  0.00    +0.000 C 
ATOM      9 BR   UNL     1      -1.593  -0.037   0.072  0.00  0.00    +0.000 Br
ENDBRANCH   1   8
BRANCH   2  10
ATOM     10  C   UNL     1       7.026   0.047   0.560  0.00  0.00    +0.000 A 
ATOM     11  C   UNL     1       7.540   0.729  -0.551  0.00  0.00    +0.000 A 
ATOM     12  C   UNL     1       8.912   0.728  -0.815  0.00  0.00    +0.000 A 
ATOM     13  C   UNL     1       9.787   0.054   0.036  0.00  0.00    +0.000 A 
ATOM     14  C   UNL     1       9.290  -0.614   1.153  0.00  0.00    +0.000 A 
ATOM     15  C   UNL     1       7.918  -0.612   1.416  0.00  0.00    +0.000 A 
ENDBRANCH   2  10
TORSDOF 2
