MODEL 1
REMARK VINA RESULT:      -4.1      0.000      0.000
REMARK  Name = *****
REMARK  3 active torsions:
REMARK  status: ('A' for Active; 'I' for Inactive)
REMARK    1  A    between atoms: C_3  and  O_7
REMARK    2  A    between atoms: O_7  and  C_8
REMARK    3  A    between atoms: C_8  and  C_10
REMARK                            x       y       z     vdW  Elec       q    Type
REMARK                         _______ _______ _______ _____ _____    ______ ____
ROOT
ATOM      1  C   UNL     1     101.533 126.028  83.833  0.00  0.00    +0.000 C 
ATOM      2  O   UNL     1     101.675 125.427  84.886  0.00  0.00    +0.000 OA
ENDROOT
BRANCH   1   3
ATOM      3  C   UNL     1     100.782 127.308  83.710  0.00  0.00    +0.000 A 
ATOM      4  C   UNL     1      99.573 127.301  83.000  0.00  0.00    +0.000 A 
ATOM      5  C   UNL     1      98.831 128.475  82.861  0.00  0.00    +0.000 A 
ATOM      6  C   UNL     1      99.293 129.662  83.428  0.00  0.00    +0.000 A 
ATOM      7  C   UNL     1     100.494 129.679  84.136  0.00  0.00    +0.000 A 
ATOM      8  C   UNL     1     101.239 128.505  84.278  0.00  0.00    +0.000 A 
ENDBRANCH   1   3
BRANCH   1   9
ATOM      9  O   UNL     1     102.024 125.651  82.628  0.00  0.00    +0.000 OA
BRANCH   9  12
ATOM     10  C   UNL     1     103.699 127.807  81.459  0.00  0.00    +0.000 C 
ATOM     11  C   UNL     1     104.122 126.898  82.617  0.00  0.00    +0.000 C 
ATOM     12  C   UNL     1     103.459 125.520  82.532  0.00  0.00    +0.000 C 
ATOM     13  C   UNL     1     103.784 124.837  81.192  0.00  0.00    +0.000 C 
ATOM     14  C   UNL     1     103.753 125.770  80.011  0.00  0.00    +0.000 C 
ATOM     15  C   UNL     1     103.699 127.105  80.133  0.00  0.00    +0.000 C 
ENDBRANCH   9  12
ENDBRANCH   1   9
TORSDOF 3
ENDMDL
