REMARK  Name = *****
REMARK  3 active torsions:
REMARK  status: ('A' for Active; 'I' for Inactive)
REMARK    1  A    between atoms: C_2  and  C_3
REMARK    2  A    between atoms: C_7  and  C_9
REMARK    3  A    between atoms: C_10  and  C_11
REMARK                            x       y       z     vdW  Elec       q    Type
REMARK                         _______ _______ _______ _____ _____    ______ ____
ROOT
ATOM      1  C   UNL     1      -0.347   0.068   0.607  0.00  0.00    +0.000 A 
ATOM      2  C   UNL     1       0.103  -1.083  -0.041  0.00  0.00    +0.000 A 
ATOM      3  C   UNL     1       1.332  -1.074  -0.701  0.00  0.00    +0.000 A 
ATOM      4  C   UNL     1       2.113   0.084  -0.709  0.00  0.00    +0.000 A 
ATOM      5  C   UNL     1       1.680   1.242  -0.048  0.00  0.00    +0.000 A 
ATOM      6  C   UNL     1       0.436   1.226   0.598  0.00  0.00    +0.000 A 
ENDROOT
BRANCH   1   8
ATOM      7  C   UNL     1      -2.672   0.060   1.840  0.00  0.00    +0.000 C 
ATOM      8  C   UNL     1      -1.611   0.063   1.278  0.00  0.00    +0.000 C 
ENDBRANCH   1   8
BRANCH   5   9
ATOM      9  C   UNL     1       2.457   2.489  -0.062  0.00  0.00    +0.000 C 
ATOM     10  C   UNL     1       3.796   2.542   0.044  0.00  0.00    +0.000 C 
BRANCH  10  11
ATOM     11  C   UNL     1       4.669   3.772   0.047  0.00  0.00    +0.000 C 
ATOM     12  C   UNL     1       5.295   4.002   1.400  0.00  0.00    +0.000 C 
ATOM     13  C   UNL     1       4.976   5.225   1.853  0.00  0.00    +0.000 C 
ATOM     14  C   UNL     1       4.149   5.893   0.881  0.00  0.00    +0.000 C 
ATOM     15  C   UNL     1       3.956   5.083  -0.170  0.00  0.00    +0.000 C 
ENDBRANCH  10  11
ENDBRANCH   5   9
TORSDOF 3
