MODEL 1
REMARK VINA RESULT:      -4.0      0.000      0.000
REMARK  Name = *****
REMARK  4 active torsions:
REMARK  status: ('A' for Active; 'I' for Inactive)
REMARK    1  A    between atoms: C_4  and  O_7
REMARK    2  A    between atoms: O_7  and  C_8
REMARK    3  A    between atoms: C_8  and  O_10
REMARK    4  A    between atoms: O_10  and  C_11
REMARK                            x       y       z     vdW  Elec       q    Type
REMARK                         _______ _______ _______ _____ _____    ______ ____
ROOT
ATOM      1  C   UNL     1     102.638 125.407  83.701  0.00  0.00    +0.000 C 
ATOM      2  O   UNL     1     102.342 125.012  84.818  0.00  0.00    +0.000 OA
ENDROOT
BRANCH   1   3
ATOM      3  O   UNL     1     103.873 125.358  83.140  0.00  0.00    +0.000 OA
BRANCH   3   7
ATOM      4  C   UNL     1     105.703 123.468  79.811  0.00  0.00    +0.000 C 
ATOM      5  C   UNL     1     104.851 122.603  80.735  0.00  0.00    +0.000 C 
ATOM      6  C   UNL     1     104.588 123.294  82.069  0.00  0.00    +0.000 C 
ATOM      7  C   UNL     1     103.963 124.679  81.875  0.00  0.00    +0.000 C 
ATOM      8  C   UNL     1     104.833 125.541  80.955  0.00  0.00    +0.000 C 
ATOM      9  C   UNL     1     105.095 124.855  79.619  0.00  0.00    +0.000 C 
ENDBRANCH   3   7
ENDBRANCH   1   3
BRANCH   1  10
ATOM     10  O   UNL     1     101.794 125.974  82.804  0.00  0.00    +0.000 OA
BRANCH  10  11
ATOM     11  C   UNL     1     100.773 126.824  83.351  0.00  0.00    +0.000 C 
ATOM     12  C   UNL     1      99.556 126.846  82.422  0.00  0.00    +0.000 C 
ATOM     13  C   UNL     1      98.512 127.857  82.882  0.00  0.00    +0.000 C 
ATOM     14  C   UNL     1      99.111 129.252  83.038  0.00  0.00    +0.000 C 
ATOM     15  C   UNL     1     100.332 129.242  83.955  0.00  0.00    +0.000 C 
ATOM     16  C   UNL     1     101.372 128.228  83.490  0.00  0.00    +0.000 C 
ENDBRANCH  10  11
ENDBRANCH   1  10
TORSDOF 4
ENDMDL
