REMARK  Name = *****
REMARK  3 active torsions:
REMARK  status: ('A' for Active; 'I' for Inactive)
REMARK    1  A    between atoms: C_2  and  C_3
REMARK    2  A    between atoms: C_8  and  C_9
REMARK    3  A    between atoms: C_10  and  C_11
REMARK                            x       y       z     vdW  Elec       q    Type
REMARK                         _______ _______ _______ _____ _____    ______ ____
ROOT
ATOM      1  C   UNL     1       3.761   0.039   0.019  0.00  0.00    +0.000 A 
ATOM      2  C   UNL     1       4.463   1.250   0.054  0.00  0.00    +0.000 A 
ATOM      3  C   UNL     1       5.858   1.261  -0.016  0.00  0.00    +0.000 A 
ATOM      4  C   UNL     1       6.559   0.061  -0.120  0.00  0.00    +0.000 A 
ATOM      5  C   UNL     1       5.866  -1.151  -0.155  0.00  0.00    +0.000 A 
ATOM      6  C   UNL     1       4.467  -1.170  -0.087  0.00  0.00    +0.000 A 
ENDROOT
BRANCH   1   8
ATOM      7  C   UNL     1       1.129   0.113   0.157  0.00  0.00    +0.000 C 
ATOM      8  C   UNL     1       2.328   0.077   0.093  0.00  0.00    +0.000 C 
ENDBRANCH   1   8
BRANCH   6   9
ATOM      9  C   UNL     1       3.797  -2.437  -0.128  0.00  0.00    +0.000 C 
ATOM     10  C   UNL     1       3.230  -3.496  -0.165  0.00  0.00    +0.000 C 
BRANCH  10  11
ATOM     11  C   UNL     1       2.544  -4.748  -0.211  0.00  0.00    +0.000 A 
ATOM     12  C   UNL     1       3.189  -5.962  -0.129  0.00  0.00    +0.000 A 
ATOM     13  S   UNL     1       2.095  -7.277  -0.214  0.00  0.00    +0.000 S 
ATOM     14  C   UNL     1       0.754  -6.223  -0.361  0.00  0.00    +0.000 A 
ATOM     15  C   UNL     1       1.134  -4.898  -0.345  0.00  0.00    +0.000 A 
ENDBRANCH  10  11
ENDBRANCH   6   9
TORSDOF 3
