MODEL 1
REMARK VINA RESULT:      -5.1      0.000      0.000
REMARK  Name = *****
REMARK  2 active torsions:
REMARK  status: ('A' for Active; 'I' for Inactive)
REMARK    1  A    between atoms: C_1  and  C_2
REMARK    2  A    between atoms: C_9  and  C_11
REMARK                            x       y       z     vdW  Elec       q    Type
REMARK                         _______ _______ _______ _____ _____    ______ ____
ROOT
ATOM      1  C   UNL     1      99.326 130.673  84.398  0.00  0.00    +0.000 C 
ATOM      2  C   UNL     1      99.765 129.400  83.730  0.00  0.00    +0.000 A 
ATOM      3  C   UNL     1     101.124 129.031  83.748  0.00  0.00    +0.000 A 
ATOM      4  C   UNL     1     101.500 127.824  83.145  0.00  0.00    +0.000 A 
ATOM      5  C   UNL     1     100.524 127.032  82.566  0.00  0.00    +0.000 A 
ATOM      6  C   UNL     1      99.170 127.341  82.533  0.00  0.00    +0.000 A 
ATOM      7  C   UNL     1      98.809 128.552  83.139  0.00  0.00    +0.000 A 
ATOM      8  O   UNL     1     101.132 125.925  82.055  0.00  0.00    +0.000 OA
ATOM      9  C   UNL     1     102.460 126.107  82.356  0.00  0.00    +0.000 A 
ATOM     10  N   UNL     1     102.727 127.226  83.007  0.00  0.00    +0.000 NA
ENDROOT
BRANCH   9  11
ATOM     11  C   UNL     1     103.380 125.057  81.923  0.00  0.00    +0.000 A 
ATOM     12  C   UNL     1     103.866 124.080  82.810  0.00  0.00    +0.000 A 
ATOM     13  C   UNL     1     104.745 123.088  82.365  0.00  0.00    +0.000 A 
ATOM     14  C   UNL     1     105.142 123.069  81.034  0.00  0.00    +0.000 A 
ATOM     15  C   UNL     1     104.678 124.023  80.137  0.00  0.00    +0.000 A 
ATOM     16  C   UNL     1     103.799 125.014  80.582  0.00  0.00    +0.000 A 
ATOM     17  F   UNL     1     105.984 122.119  80.609  0.00  0.00    +0.000 F 
ENDBRANCH   9  11
TORSDOF 1
ENDMDL
