MODEL 1
REMARK VINA RESULT:      -5.0      0.000      0.000
REMARK  Name = *****
REMARK  5 active torsions:
REMARK  status: ('A' for Active; 'I' for Inactive)
REMARK    1  A    between atoms: C_1  and  C_2
REMARK    2  A    between atoms: C_7  and  C_8
REMARK    3  A    between atoms: C_8  and  C_10
REMARK    4  A    between atoms: C_10  and  C_11
REMARK    5  A    between atoms: C_11  and  C_12
REMARK                            x       y       z     vdW  Elec       q    Type
REMARK                         _______ _______ _______ _____ _____    ______ ____
ROOT
ATOM      1  C   UNL     1      99.107 127.507  82.829  0.00  0.00    +0.000 C 
ATOM      2  O   UNL     1      98.218 127.262  82.019  0.00  0.00    +0.000 OA
ENDROOT
BRANCH   1   9
ATOM      3  C   UNL     1      97.971 127.204  85.587  0.00  0.00    +0.000 C 
ATOM      4  C   UNL     1      98.446 128.527  85.052  0.00  0.00    +0.000 A 
ATOM      5  C   UNL     1      98.373 129.656  85.886  0.00  0.00    +0.000 A 
ATOM      6  C   UNL     1      98.801 130.906  85.439  0.00  0.00    +0.000 A 
ATOM      7  C   UNL     1      99.316 131.049  84.155  0.00  0.00    +0.000 A 
ATOM      8  C   UNL     1      99.407 129.938  83.315  0.00  0.00    +0.000 A 
ATOM      9  C   UNL     1      98.977 128.675  83.754  0.00  0.00    +0.000 A 
ENDBRANCH   1   9
BRANCH   1  10
ATOM     10  C   UNL     1     100.346 126.641  82.957  0.00  0.00    +0.000 C 
BRANCH  10  11
ATOM     11  C   UNL     1     101.617 127.489  82.958  0.00  0.00    +0.000 C 
BRANCH  11  12
ATOM     12  C   UNL     1     102.599 127.006  81.920  0.00  0.00    +0.000 A 
ATOM     13  C   UNL     1     102.657 125.649  81.577  0.00  0.00    +0.000 A 
ATOM     14  C   UNL     1     103.582 125.197  80.634  0.00  0.00    +0.000 A 
ATOM     15  C   UNL     1     104.459 126.096  80.029  0.00  0.00    +0.000 A 
ATOM     16  C   UNL     1     104.412 127.448  80.368  0.00  0.00    +0.000 A 
ATOM     17  C   UNL     1     103.488 127.901  81.310  0.00  0.00    +0.000 A 
ENDBRANCH  11  12
ENDBRANCH  10  11
ENDBRANCH   1  10
TORSDOF 4
ENDMDL
