MODEL 1
REMARK VINA RESULT:      -4.5      0.000      0.000
REMARK  Name = *****
REMARK  6 active torsions:
REMARK  status: ('A' for Active; 'I' for Inactive)
REMARK    1  A    between atoms: C_1  and  C_2
REMARK    2  A    between atoms: C_4  and  C_19
REMARK    3  A    between atoms: C_5  and  C_9
REMARK    4  A    between atoms: C_6  and  C_8
REMARK    5  A    between atoms: N_11  and  C_12
REMARK    6  A    between atoms: N_11  and  C_13
REMARK                            x       y       z     vdW  Elec       q    Type
REMARK                         _______ _______ _______ _____ _____    ______ ____
ROOT
ATOM      1  C   UNL     1      86.901  68.871  86.818  0.00  0.00    +0.000 C 
ATOM      2  O   UNL     1      86.462  67.905  86.190  0.00  0.00    +0.000 OA
ATOM      3  N   UNL     1      86.819  68.977  88.220  0.00  0.00    +0.000 N 
ATOM      4  C   UNL     1      86.409  67.770  88.931  0.00  0.00    +0.000 C 
ENDROOT
BRANCH   1   9
ATOM      5  C   UNL     1      89.827  72.833  83.764  0.00  0.00    +0.000 C 
ATOM      6  C   UNL     1      89.064  71.796  84.534  0.00  0.00    +0.000 A 
ATOM      7  C   UNL     1      89.728  70.703  85.101  0.00  0.00    +0.000 A 
ATOM      8  C   UNL     1      89.028  69.736  85.839  0.00  0.00    +0.000 A 
ATOM      9  C   UNL     1      87.634  69.886  86.018  0.00  0.00    +0.000 A 
ATOM     10  C   UNL     1      86.965  71.023  85.518  0.00  0.00    +0.000 A 
ATOM     11  C   UNL     1      87.691  71.954  84.758  0.00  0.00    +0.000 A 
ATOM     12  C   UNL     1      85.501  71.277  85.751  0.00  0.00    +0.000 C 
ATOM     13  C   UNL     1      89.787  68.584  86.442  0.00  0.00    +0.000 C 
ENDBRANCH   1   9
BRANCH   3  14
ATOM     14  C   UNL     1      87.109  70.141  89.007  0.00  0.00    +0.000 A 
ATOM     15  C   UNL     1      88.416  70.490  89.368  0.00  0.00    +0.000 A 
ATOM     16  C   UNL     1      88.678  71.635  90.129  0.00  0.00    +0.000 A 
ATOM     17  C   UNL     1      87.636  72.461  90.533  0.00  0.00    +0.000 A 
ATOM     18  C   UNL     1      86.332  72.149  90.165  0.00  0.00    +0.000 A 
ATOM     19  C   UNL     1      86.074  71.005  89.403  0.00  0.00    +0.000 A 
ENDBRANCH   3  14
TORSDOF 2
ENDMDL
