MODEL 1
REMARK VINA RESULT:      -4.3      0.000      0.000
REMARK  Name = *****
REMARK  4 active torsions:
REMARK  status: ('A' for Active; 'I' for Inactive)
REMARK    1  A    between atoms: C_1  and  O_2
REMARK    2  A    between atoms: O_2  and  C_3
REMARK    3  A    between atoms: C_3  and  C_11
REMARK    4  A    between atoms: N_4  and  C_5
REMARK                            x       y       z     vdW  Elec       q    Type
REMARK                         _______ _______ _______ _____ _____    ______ ____
ROOT
ATOM      1  C   UNL     1     103.580 127.292  82.249  0.00  0.00    +0.000 C 
ATOM      2  N   UNL     1     103.500 126.873  81.031  0.00  0.00    +0.000 NA
ENDROOT
BRANCH   1   3
ATOM      3  C   UNL     1     102.665 128.282  82.858  0.00  0.00    +0.000 C 
ATOM      4  C   UNL     1     101.406 128.019  83.257  0.00  0.00    +0.000 C 
ATOM      5  C   UNL     1     100.701 126.689  83.117  0.00  0.00    +0.000 C 
ATOM      6  C   UNL     1      99.355 126.853  82.406  0.00  0.00    +0.000 C 
ATOM      7  C   UNL     1      98.484 127.920  83.066  0.00  0.00    +0.000 C 
ATOM      8  C   UNL     1      99.224 129.252  83.175  0.00  0.00    +0.000 C 
ATOM      9  C   UNL     1     100.562 129.096  83.898  0.00  0.00    +0.000 C 
ENDBRANCH   1   3
BRANCH   2  10
ATOM     10  C   UNL     1     104.303 125.832  80.557  0.00  0.00    +0.000 A 
ATOM     11  C   UNL     1     105.466 126.080  79.822  0.00  0.00    +0.000 A 
ATOM     12  C   UNL     1     106.269 125.023  79.387  0.00  0.00    +0.000 A 
ATOM     13  C   UNL     1     105.922 123.710  79.700  0.00  0.00    +0.000 A 
ATOM     14  C   UNL     1     104.778 123.454  80.456  0.00  0.00    +0.000 A 
ATOM     15  C   UNL     1     103.978 124.514  80.888  0.00  0.00    +0.000 A 
ENDBRANCH   2  10
BRANCH   1  17
ATOM     16  C   UNL     1     105.482 127.783  83.593  0.00  0.00    +0.000 C 
ATOM     17  O   UNL     1     104.429 126.882  83.227  0.00  0.00    +0.000 OA
ENDBRANCH   1  17
TORSDOF 3
ENDMDL
