MODEL 1
REMARK VINA RESULT:      -4.5      0.000      0.000
REMARK  Name = *****
REMARK  6 active torsions:
REMARK  status: ('A' for Active; 'I' for Inactive)
REMARK    1  A    between atoms: C_1  and  C_2
REMARK    2  A    between atoms: C_3  and  C_15
REMARK    3  A    between atoms: C_3  and  C_16
REMARK    4  A    between atoms: C_5  and  C_7
REMARK    5  A    between atoms: C_8  and  C_9
REMARK    6  A    between atoms: C_16  and  C_18
REMARK                            x       y       z     vdW  Elec       q    Type
REMARK                         _______ _______ _______ _____ _____    ______ ____
ROOT
ATOM      1  C   UNL     1     104.476 124.797  83.280  0.00  0.00    +0.000 C 
ATOM      2  C   UNL     1     105.637 125.529  82.607  0.00  0.00    +0.000 C 
ATOM      3  C   UNL     1     105.681 125.528  81.054  0.00  0.00    +0.000 C 
ATOM      4  C   UNL     1     105.440 126.977  80.525  0.00  0.00    +0.000 C 
ATOM      5  C   UNL     1     104.827 127.875  81.597  0.00  0.00    +0.000 C 
ATOM      6  S   UNL     1     105.585 127.277  83.121  0.00  0.00    +0.000 S 
ATOM      7  C   UNL     1     107.095 125.112  80.582  0.00  0.00    +0.000 C 
ENDROOT
BRANCH   3   8
ATOM      8  C   UNL     1     104.644 124.561  80.444  0.00  0.00    +0.000 C 
ATOM      9  O   UNL     1     103.533 124.949  80.078  0.00  0.00    +0.000 OA
ATOM     10  C   UNL     1     104.990 123.094  80.326  0.00  0.00    +0.000 C 
ENDBRANCH   3   8
BRANCH   5  11
ATOM     11  C   UNL     1     103.331 127.836  81.693  0.00  0.00    +0.000 C 
ATOM     12  C   UNL     1     102.662 127.887  82.859  0.00  0.00    +0.000 C 
BRANCH  12  13
ATOM     13  C   UNL     1     101.198 127.879  82.986  0.00  0.00    +0.000 A 
ATOM     14  C   UNL     1     100.487 128.923  83.593  0.00  0.00    +0.000 A 
ATOM     15  C   UNL     1      99.091 128.890  83.663  0.00  0.00    +0.000 A 
ATOM     16  C   UNL     1      98.390 127.817  83.119  0.00  0.00    +0.000 A 
ATOM     17  C   UNL     1      99.082 126.780  82.498  0.00  0.00    +0.000 A 
ATOM     18  C   UNL     1     100.478 126.815  82.428  0.00  0.00    +0.000 A 
ENDBRANCH  12  13
ENDBRANCH   5  11
TORSDOF 3
ENDMDL
