MODEL 1
REMARK VINA RESULT:      -4.6      0.000      0.000
REMARK  Name = *****
REMARK  4 active torsions:
REMARK  status: ('A' for Active; 'I' for Inactive)
REMARK    1  A    between atoms: C_1  and  C_2
REMARK    2  A    between atoms: C_5  and  S_8
REMARK    3  A    between atoms: S_8  and  C_10
REMARK    4  A    between atoms: C_10  and  C_11
REMARK                            x       y       z     vdW  Elec       q    Type
REMARK                         _______ _______ _______ _____ _____    ______ ____
ROOT
ATOM      1  S   UNL     1      89.001  70.514  86.732  0.00  0.00    +0.000 S 
ATOM      2  O   UNL     1      90.110  70.854  85.778  0.00  0.00    +0.000 OA
ENDROOT
BRANCH   1   7
ATOM      3  C   UNL     1      88.917  64.402  86.972  0.00  0.00    +0.000 C 
ATOM      4  C   UNL     1      88.914  65.901  86.898  0.00  0.00    +0.000 A 
ATOM      5  C   UNL     1      89.988  66.575  86.303  0.00  0.00    +0.000 A 
ATOM      6  C   UNL     1      90.003  67.971  86.247  0.00  0.00    +0.000 A 
ATOM      7  C   UNL     1      88.953  68.709  86.800  0.00  0.00    +0.000 A 
ATOM      8  C   UNL     1      87.880  68.040  87.393  0.00  0.00    +0.000 A 
ATOM      9  C   UNL     1      87.864  66.643  87.448  0.00  0.00    +0.000 A 
ENDBRANCH   1   7
BRANCH   1  10
ATOM     10  C   UNL     1      87.430  70.772  85.836  0.00  0.00    +0.000 C 
BRANCH  10  11
ATOM     11  C   UNL     1      86.346  71.359  86.702  0.00  0.00    +0.000 A 
ATOM     12  C   UNL     1      86.440  71.303  88.101  0.00  0.00    +0.000 A 
ATOM     13  C   UNL     1      85.427  71.836  88.901  0.00  0.00    +0.000 A 
ATOM     14  C   UNL     1      84.311  72.428  88.311  0.00  0.00    +0.000 A 
ATOM     15  C   UNL     1      84.207  72.491  86.924  0.00  0.00    +0.000 A 
ATOM     16  C   UNL     1      85.219  71.961  86.122  0.00  0.00    +0.000 A 
ENDBRANCH  10  11
ENDBRANCH   1  10
TORSDOF 3
ENDMDL
