MODEL 1
REMARK VINA RESULT:      -4.5      0.000      0.000
REMARK  Name = *****
REMARK  2 active torsions:
REMARK  status: ('A' for Active; 'I' for Inactive)
REMARK    1  A    between atoms: C_8  and  O_10
REMARK    2  A    between atoms: O_10  and  C_11
REMARK                            x       y       z     vdW  Elec       q    Type
REMARK                         _______ _______ _______ _____ _____    ______ ____
ROOT
ATOM      1  C   UNL     1      98.775 127.696  83.071  0.00  0.00    +0.000 A 
ATOM      2  C   UNL     1      99.349 128.793  83.706  0.00  0.00    +0.000 A 
ATOM      3  C   UNL     1     100.736 128.964  83.730  0.00  0.00    +0.000 A 
ATOM      4  C   UNL     1     101.535 127.998  83.097  0.00  0.00    +0.000 A 
ATOM      5  C   UNL     1     100.982 126.889  82.452  0.00  0.00    +0.000 A 
ATOM      6  C   UNL     1      99.580 126.740  82.444  0.00  0.00    +0.000 A 
ATOM      7  N   UNL     1     101.893 126.025  81.870  0.00  0.00    +0.000 NA
ATOM      8  C   UNL     1     103.115 126.471  82.062  0.00  0.00    +0.000 A 
ATOM      9  S   UNL     1     103.249 127.924  82.959  0.00  0.00    +0.000 S 
ENDROOT
BRANCH   8  10
ATOM     10  O   UNL     1     104.218 125.849  81.637  0.00  0.00    +0.000 OA
BRANCH  10  11
ATOM     11  C   UNL     1     104.356 124.485  81.716  0.00  0.00    +0.000 A 
ATOM     12  C   UNL     1     104.602 123.678  80.602  0.00  0.00    +0.000 A 
ATOM     13  C   UNL     1     104.785 122.302  80.766  0.00  0.00    +0.000 A 
ATOM     14  C   UNL     1     104.740 121.744  82.043  0.00  0.00    +0.000 A 
ATOM     15  C   UNL     1     104.518 122.549  83.159  0.00  0.00    +0.000 A 
ATOM     16  C   UNL     1     104.334 123.924  82.995  0.00  0.00    +0.000 A 
ATOM     17 CL   UNL     1     104.970 120.051  82.244  0.00  0.00    +0.000 Cl
ENDBRANCH  10  11
ENDBRANCH   8  10
TORSDOF 2
ENDMDL
