MODEL 1
REMARK VINA RESULT:      -4.5      0.000      0.000
REMARK  Name = *****
REMARK  4 active torsions:
REMARK  status: ('A' for Active; 'I' for Inactive)
REMARK    1  A    between atoms: C_1  and  C_2
REMARK    2  A    between atoms: C_5  and  C_8
REMARK    3  A    between atoms: C_8  and  O_10
REMARK    4  A    between atoms: O_10  and  C_11
REMARK                            x       y       z     vdW  Elec       q    Type
REMARK                         _______ _______ _______ _____ _____    ______ ____
ROOT
ATOM      1  C   UNL     1     102.629 125.334  82.601  0.00  0.00    +0.000 C 
ATOM      2  O   UNL     1     102.772 124.988  83.762  0.00  0.00    +0.000 OA
ENDROOT
BRANCH   1   7
ATOM      3  C   UNL     1     106.547 124.530  78.399  0.00  0.00    +0.000 C 
ATOM      4  C   UNL     1     105.558 124.730  79.508  0.00  0.00    +0.000 A 
ATOM      5  C   UNL     1     105.154 123.648  80.301  0.00  0.00    +0.000 A 
ATOM      6  C   UNL     1     104.206 123.825  81.313  0.00  0.00    +0.000 A 
ATOM      7  C   UNL     1     103.641 125.087  81.538  0.00  0.00    +0.000 A 
ATOM      8  C   UNL     1     104.034 126.167  80.736  0.00  0.00    +0.000 A 
ATOM      9  C   UNL     1     104.981 125.987  79.724  0.00  0.00    +0.000 A 
ENDBRANCH   1   7
BRANCH   1  10
ATOM     10  O   UNL     1     101.554 125.986  82.091  0.00  0.00    +0.000 OA
BRANCH  10  11
ATOM     11  C   UNL     1     100.818 126.811  83.013  0.00  0.00    +0.000 C 
ATOM     12  C   UNL     1      99.385 127.003  82.508  0.00  0.00    +0.000 C 
ATOM     13  C   UNL     1      98.614 128.001  83.366  0.00  0.00    +0.000 C 
ATOM     14  C   UNL     1      99.347 129.335  83.471  0.00  0.00    +0.000 C 
ATOM     15  C   UNL     1     100.780 129.154  83.964  0.00  0.00    +0.000 C 
ATOM     16  C   UNL     1     101.545 128.155  83.103  0.00  0.00    +0.000 C 
ENDBRANCH  10  11
ENDBRANCH   1  10
TORSDOF 3
ENDMDL
