REMARK  Name = *****
REMARK  3 active torsions:
REMARK  status: ('A' for Active; 'I' for Inactive)
REMARK    1  A    between atoms: N_5  and  N_8
REMARK    2  A    between atoms: N_8  and  C_9
REMARK    3  A    between atoms: C_9  and  C_10
REMARK                            x       y       z     vdW  Elec       q    Type
REMARK                         _______ _______ _______ _____ _____    ______ ____
ROOT
ATOM      1  C   UNL     1       3.121  -1.567  -1.588  0.00  0.00    +0.000 C 
ENDROOT
BRANCH   1   2
ATOM      2  C   UNL     1       3.791  -2.339  -2.658  0.00  0.00    +0.000 A 
ATOM      3  C   UNL     1       5.184  -2.322  -2.819  0.00  0.00    +0.000 A 
ATOM      4  C   UNL     1       5.779  -3.067  -3.844  0.00  0.00    +0.000 A 
ATOM      5  C   UNL     1       4.987  -3.825  -4.704  0.00  0.00    +0.000 A 
ATOM      6  C   UNL     1       3.603  -3.849  -4.553  0.00  0.00    +0.000 A 
ATOM      7  C   UNL     1       3.005  -3.107  -3.532  0.00  0.00    +0.000 A 
ATOM      8 CL   UNL     1       5.724  -4.738  -5.961  0.00  0.00    +0.000 Cl
ATOM      9 CL   UNL     1       6.237  -1.406  -1.801  0.00  0.00    +0.000 Cl
ENDBRANCH   1   2
BRANCH   1  10
ATOM     10  N   UNL     1       1.828  -1.561  -1.468  0.00  0.00    +0.000 NA
BRANCH  10  15
ATOM     11  C   UNL     1      -1.035   1.493  -0.003  0.00  0.00    +0.000 C 
ATOM     12  C   UNL     1      -1.728   0.199   0.401  0.00  0.00    +0.000 C 
ATOM     13  C   UNL     1      -1.135  -1.066  -0.210  0.00  0.00    +0.000 C 
ATOM     14  C   UNL     1       0.266  -1.375   0.318  0.00  0.00    +0.000 C 
ATOM     15  N   UNL     1       1.384  -0.790  -0.434  0.00  0.00    +0.000 NA
ATOM     16  C   UNL     1       1.257   0.648  -0.734  0.00  0.00    +0.000 C 
ATOM     17  C   UNL     1       0.472   1.522   0.246  0.00  0.00    +0.000 C 
ENDBRANCH  10  15
ENDBRANCH   1  10
TORSDOF 3
