MODEL 1
REMARK VINA RESULT:      -4.8      0.000      0.000
REMARK  Name = *****
REMARK  4 active torsions:
REMARK  status: ('A' for Active; 'I' for Inactive)
REMARK    1  A    between atoms: C_1  and  C_2
REMARK    2  A    between atoms: C_2  and  C_4
REMARK    3  A    between atoms: C_5  and  C_10
REMARK    4  A    between atoms: C_11  and  C_12
REMARK                            x       y       z     vdW  Elec       q    Type
REMARK                         _______ _______ _______ _____ _____    ______ ____
ROOT
ATOM      1  C   UNL     1      99.662 128.565  83.652  0.00  0.00    +0.000 C 
ATOM      2  C   UNL     1     101.012 128.477  83.602  0.00  0.00    +0.000 C 
ATOM      3  C   UNL     1     101.868 129.647  84.061  0.00  0.00    +0.000 C 
ATOM      4  C   UNL     1     101.107 130.743  84.814  0.00  0.00    +0.000 C 
ATOM      5  C   UNL     1      99.777 131.044  84.143  0.00  0.00    +0.000 C 
ATOM      6  C   UNL     1      98.910 129.789  84.103  0.00  0.00    +0.000 C 
ENDROOT
BRANCH   1   8
ATOM      7  C   UNL     1      98.271 126.504  84.267  0.00  0.00    +0.000 C 
ATOM      8  C   UNL     1      98.777 127.445  83.206  0.00  0.00    +0.000 C 
ATOM      9  O   UNL     1      98.445 127.333  82.029  0.00  0.00    +0.000 OA
ENDBRANCH   1   8
BRANCH   2  10
ATOM     10  C   UNL     1     101.711 127.283  83.120  0.00  0.00    +0.000 C 
ATOM     11  C   UNL     1     102.635 127.235  82.145  0.00  0.00    +0.000 C 
BRANCH  11  12
ATOM     12  C   UNL     1     103.289 125.992  81.704  0.00  0.00    +0.000 A 
ATOM     13  C   UNL     1     103.757 125.818  80.395  0.00  0.00    +0.000 A 
ATOM     14  C   UNL     1     104.402 124.637  80.022  0.00  0.00    +0.000 A 
ATOM     15  C   UNL     1     104.595 123.622  80.957  0.00  0.00    +0.000 A 
ATOM     16  C   UNL     1     104.150 123.789  82.266  0.00  0.00    +0.000 A 
ATOM     17  C   UNL     1     103.505 124.971  82.639  0.00  0.00    +0.000 A 
ENDBRANCH  11  12
ENDBRANCH   2  10
TORSDOF 3
ENDMDL
