MODEL 1
REMARK VINA RESULT:      -4.7      0.000      0.000
REMARK  Name = *****
REMARK  3 active torsions:
REMARK  status: ('A' for Active; 'I' for Inactive)
REMARK    1  A    between atoms: C_4  and  C_7
REMARK    2  A    between atoms: C_7  and  C_8
REMARK    3  A    between atoms: C_8  and  C_10
REMARK                            x       y       z     vdW  Elec       q    Type
REMARK                         _______ _______ _______ _____ _____    ______ ____
ROOT
ATOM      1  C   UNL     1     102.891 125.641  83.556  0.00  0.00    +0.000 C 
ATOM      2  O   UNL     1     102.507 125.056  84.569  0.00  0.00    +0.000 OA
ENDROOT
BRANCH   1   3
ATOM      3  C   UNL     1     103.584 124.861  82.484  0.00  0.00    +0.000 A 
ATOM      4  C   UNL     1     104.159 123.604  82.708  0.00  0.00    +0.000 A 
ATOM      5  C   UNL     1     104.791 122.931  81.659  0.00  0.00    +0.000 A 
ATOM      6  C   UNL     1     104.857 123.494  80.385  0.00  0.00    +0.000 A 
ATOM      7  C   UNL     1     104.287 124.745  80.156  0.00  0.00    +0.000 A 
ATOM      8  C   UNL     1     103.655 125.425  81.199  0.00  0.00    +0.000 A 
ATOM      9  I   UNL     1     105.647 121.066  82.004  0.00  0.00    +0.000 I 
ENDBRANCH   1   3
BRANCH   1  10
ATOM     10  C   UNL     1     102.671 127.135  83.392  0.00  0.00    +0.000 C 
BRANCH  10  14
ATOM     11  C   UNL     1      98.540 128.254  82.842  0.00  0.00    +0.000 A 
ATOM     12  C   UNL     1      98.990 127.016  82.390  0.00  0.00    +0.000 A 
ATOM     13  C   UNL     1     100.326 126.651  82.565  0.00  0.00    +0.000 A 
ATOM     14  C   UNL     1     101.229 127.527  83.182  0.00  0.00    +0.000 A 
ATOM     15  C   UNL     1     100.758 128.762  83.652  0.00  0.00    +0.000 A 
ATOM     16  C   UNL     1      99.422 129.125  83.476  0.00  0.00    +0.000 A 
ENDBRANCH  10  14
ENDBRANCH   1  10
TORSDOF 3
ENDMDL
