MODEL 1
REMARK VINA RESULT:      -4.5      0.000      0.000
REMARK  Name = *****
REMARK  3 active torsions:
REMARK  status: ('A' for Active; 'I' for Inactive)
REMARK    1  A    between atoms: C_4  and  S_7
REMARK    2  A    between atoms: S_7  and  C_8
REMARK    3  A    between atoms: C_8  and  C_9
REMARK                            x       y       z     vdW  Elec       q    Type
REMARK                         _______ _______ _______ _____ _____    ______ ____
ROOT
ATOM      1  C   UNL     1      88.990  69.821  86.816  0.00  0.00    +0.000 C 
ENDROOT
BRANCH   1   2
ATOM      2  C   UNL     1      89.051  68.313  86.782  0.00  0.00    +0.000 A 
ATOM      3  C   UNL     1      90.124  67.658  86.152  0.00  0.00    +0.000 A 
ATOM      4  C   UNL     1      90.170  66.263  86.108  0.00  0.00    +0.000 A 
ATOM      5  C   UNL     1      89.146  65.517  86.684  0.00  0.00    +0.000 A 
ATOM      6  C   UNL     1      88.072  66.149  87.303  0.00  0.00    +0.000 A 
ATOM      7  C   UNL     1      88.021  67.543  87.350  0.00  0.00    +0.000 A 
ATOM      8  F   UNL     1      89.172  64.175  86.653  0.00  0.00    +0.000 F 
ATOM      9 CL   UNL     1      91.499  65.485  85.337  0.00  0.00    +0.000 Cl
ENDBRANCH   1   2
BRANCH   1  10
ATOM     10  S   UNL     1      88.154  70.407  88.324  0.00  0.00    +0.000 S 
BRANCH  10  14
ATOM     11  C   UNL     1      84.418  72.405  86.529  0.00  0.00    +0.000 A 
ATOM     12  C   UNL     1      84.498  72.266  87.912  0.00  0.00    +0.000 A 
ATOM     13  C   UNL     1      85.617  71.664  88.497  0.00  0.00    +0.000 A 
ATOM     14  C   UNL     1      86.669  71.192  87.706  0.00  0.00    +0.000 A 
ATOM     15  C   UNL     1      86.573  71.340  86.314  0.00  0.00    +0.000 A 
ATOM     16  C   UNL     1      85.456  71.941  85.728  0.00  0.00    +0.000 A 
ENDBRANCH  10  14
ENDBRANCH   1  10
TORSDOF 3
ENDMDL
