MODEL 1
REMARK VINA RESULT:      -4.5      0.000      0.000
REMARK  Name = *****
REMARK  3 active torsions:
REMARK  status: ('A' for Active; 'I' for Inactive)
REMARK    1  A    between atoms: C_4  and  C_7
REMARK    2  A    between atoms: C_7  and  C_8
REMARK    3  A    between atoms: N_9  and  C_10
REMARK                            x       y       z     vdW  Elec       q    Type
REMARK                         _______ _______ _______ _____ _____    ______ ____
ROOT
ATOM      1  C   UNL     1      89.164  68.722  86.853  0.00  0.00    +0.000 C 
ATOM      2  N   UNL     1      90.230  68.088  86.481  0.00  0.00    +0.000 NA
ENDROOT
BRANCH   2   3
ATOM      3  C   UNL     1      90.079  66.708  86.283  0.00  0.00    +0.000 A 
ATOM      4  C   UNL     1      90.990  65.991  85.502  0.00  0.00    +0.000 A 
ATOM      5  C   UNL     1      90.839  64.615  85.321  0.00  0.00    +0.000 A 
ATOM      6  C   UNL     1      89.779  63.945  85.933  0.00  0.00    +0.000 A 
ATOM      7  C   UNL     1      88.877  64.650  86.729  0.00  0.00    +0.000 A 
ATOM      8  C   UNL     1      89.031  66.028  86.906  0.00  0.00    +0.000 A 
ENDBRANCH   2   3
BRANCH   1   9
ATOM      9  C   UNL     1      89.192  70.210  87.080  0.00  0.00    +0.000 C 
BRANCH   9  13
ATOM     10  C   UNL     1      85.229  71.906  87.055  0.00  0.00    +0.000 A 
ATOM     11  C   UNL     1      85.898  71.685  85.852  0.00  0.00    +0.000 A 
ATOM     12  C   UNL     1      87.179  71.132  85.854  0.00  0.00    +0.000 A 
ATOM     13  C   UNL     1      87.801  70.791  87.062  0.00  0.00    +0.000 A 
ATOM     14  C   UNL     1      87.121  71.021  88.267  0.00  0.00    +0.000 A 
ATOM     15  C   UNL     1      85.840  71.575  88.262  0.00  0.00    +0.000 A 
ENDBRANCH   9  13
ENDBRANCH   1   9
TORSDOF 3
ENDMDL
