MODEL 1
REMARK VINA RESULT:      -4.1      0.000      0.000
REMARK  Name = *****
REMARK  4 active torsions:
REMARK  status: ('A' for Active; 'I' for Inactive)
REMARK    1  A    between atoms: C_1  and  O_2
REMARK    2  A    between atoms: O_2  and  C_3
REMARK    3  A    between atoms: C_6  and  C_9
REMARK    4  A    between atoms: C_10  and  C_11
REMARK                            x       y       z     vdW  Elec       q    Type
REMARK                         _______ _______ _______ _____ _____    ______ ____
ROOT
ATOM      1  C   UNL     1     105.917 123.422  80.380  0.00  0.00    +0.000 A 
ATOM      2  C   UNL     1     105.395 124.459  79.606  0.00  0.00    +0.000 A 
ATOM      3  C   UNL     1     104.305 125.205  80.071  0.00  0.00    +0.000 A 
ATOM      4  C   UNL     1     103.733 124.917  81.312  0.00  0.00    +0.000 A 
ATOM      5  C   UNL     1     104.251 123.881  82.088  0.00  0.00    +0.000 A 
ATOM      6  C   UNL     1     105.340 123.139  81.621  0.00  0.00    +0.000 A 
ENDROOT
BRANCH   1   8
ATOM      7  C   UNL     1     107.256 121.533  80.918  0.00  0.00    +0.000 C 
ATOM      8  O   UNL     1     106.975 122.621  80.047  0.00  0.00    +0.000 OA
ENDBRANCH   1   8
BRANCH   4   9
ATOM      9  C   UNL     1     102.620 125.681  81.784  0.00  0.00    +0.000 C 
ATOM     10  C   UNL     1     101.685 126.321  82.181  0.00  0.00    +0.000 C 
BRANCH  10  11
ATOM     11  C   UNL     1     100.570 127.082  82.650  0.00  0.00    +0.000 A 
ATOM     12  C   UNL     1     100.706 128.208  83.430  0.00  0.00    +0.000 A 
ATOM     13  S   UNL     1      99.192 128.899  83.832  0.00  0.00    +0.000 S 
ATOM     14  C   UNL     1      98.348 127.691  82.960  0.00  0.00    +0.000 A 
ATOM     15  C   UNL     1      99.205 126.782  82.378  0.00  0.00    +0.000 A 
ENDBRANCH  10  11
ENDBRANCH   4   9
TORSDOF 3
ENDMDL
