MODEL 1
REMARK VINA RESULT:      -4.4      0.000      0.000
REMARK  Name = *****
REMARK  4 active torsions:
REMARK  status: ('A' for Active; 'I' for Inactive)
REMARK    1  A    between atoms: C_4  and  C_7
REMARK    2  A    between atoms: C_7  and  N_8
REMARK    3  A    between atoms: N_8  and  C_9
REMARK    4  A    between atoms: C_9  and  C_11
REMARK                            x       y       z     vdW  Elec       q    Type
REMARK                         _______ _______ _______ _____ _____    ______ ____
ROOT
ATOM      1  C   UNL     1      87.983  63.500  85.679  0.00  0.00    +0.000 C 
ATOM      2  S   UNL     1      87.606  63.058  84.105  0.00  0.00    +0.000 S 
ENDROOT
BRANCH   1   3
ATOM      3  C   UNL     1      88.359  64.902  86.006  0.00  0.00    +0.000 A 
ATOM      4  C   UNL     1      87.396  65.885  86.277  0.00  0.00    +0.000 A 
ATOM      5  C   UNL     1      87.796  67.195  86.559  0.00  0.00    +0.000 A 
ATOM      6  C   UNL     1      89.152  67.518  86.568  0.00  0.00    +0.000 A 
ATOM      7  C   UNL     1      90.116  66.548  86.298  0.00  0.00    +0.000 A 
ATOM      8  C   UNL     1      89.721  65.239  86.014  0.00  0.00    +0.000 A 
ATOM      9 CL   UNL     1      89.640  69.131  86.912  0.00  0.00    +0.000 Cl
ATOM     10 CL   UNL     1      85.702  65.546  86.286  0.00  0.00    +0.000 Cl
ENDBRANCH   1   3
BRANCH   1  11
ATOM     11  N   UNL     1      87.941  62.670  86.785  0.00  0.00    +0.000 N 
ATOM     12  H   UNL     1      88.710  62.068  86.912  0.00  0.00    +0.000 HD
BRANCH  11  13
ATOM     13  C   UNL     1      86.882  62.590  87.783  0.00  0.00    +0.000 C 
BRANCH  13  17
ATOM     14  C   UNL     1      88.216  64.224  91.545  0.00  0.00    +0.000 A 
ATOM     15  C   UNL     1      86.860  63.979  91.333  0.00  0.00    +0.000 A 
ATOM     16  C   UNL     1      86.428  63.444  90.119  0.00  0.00    +0.000 A 
ATOM     17  C   UNL     1      87.349  63.144  89.105  0.00  0.00    +0.000 A 
ATOM     18  C   UNL     1      88.709  63.404  89.327  0.00  0.00    +0.000 A 
ATOM     19  C   UNL     1      89.139  63.937  90.542  0.00  0.00    +0.000 A 
ENDBRANCH  13  17
ENDBRANCH  11  13
ENDBRANCH   1  11
TORSDOF 4
ENDMDL
