REMARK  Name = *****
REMARK  1 active torsions:
REMARK  status: ('A' for Active; 'I' for Inactive)
REMARK    1  A    between atoms: N_10  and  C_11
REMARK                            x       y       z     vdW  Elec       q    Type
REMARK                         _______ _______ _______ _____ _____    ______ ____
ROOT
ATOM      1  C   UNL     1      -1.936   0.388  -0.362  0.00  0.00    +0.000 C 
ATOM      2  C   UNL     1      -0.451   0.400  -0.188  0.00  0.00    +0.000 A 
ATOM      3  C   UNL     1       0.380   1.516  -0.186  0.00  0.00    +0.000 A 
ATOM      4  C   UNL     1       1.750   1.333   0.017  0.00  0.00    +0.000 A 
ATOM      5  C   UNL     1       2.274   0.049   0.218  0.00  0.00    +0.000 A 
ATOM      6  C   UNL     1       1.433  -1.065   0.210  0.00  0.00    +0.000 A 
ATOM      7  C   UNL     1       0.075  -0.871  -0.001  0.00  0.00    +0.000 A 
ATOM      8  S   UNL     1      -1.160  -2.150  -0.086  0.00  0.00    +0.000 S 
ATOM      9  O   UNL     1      -1.111  -2.865   1.230  0.00  0.00    +0.000 OA
ATOM     10  N   UNL     1      -2.387  -0.986  -0.110  0.00  0.00    +0.000 N 
ENDROOT
BRANCH  10  11
ATOM     11  C   UNL     1      -3.759  -1.296  -0.089  0.00  0.00    +0.000 A 
ATOM     12  C   UNL     1      -4.233  -2.577   0.251  0.00  0.00    +0.000 A 
ATOM     13  C   UNL     1      -5.600  -2.887   0.267  0.00  0.00    +0.000 A 
ATOM     14  C   UNL     1      -6.539  -1.918  -0.058  0.00  0.00    +0.000 A 
ATOM     15  C   UNL     1      -6.111  -0.641  -0.392  0.00  0.00    +0.000 A 
ATOM     16  C   UNL     1      -4.743  -0.337  -0.404  0.00  0.00    +0.000 A 
ENDBRANCH  10  11
TORSDOF 1
