REMARK  Name = *****
REMARK  5 active torsions:
REMARK  status: ('A' for Active; 'I' for Inactive)
REMARK    1  A    between atoms: C_1  and  C_2
REMARK    2  A    between atoms: C_3  and  C_16
REMARK    3  A    between atoms: C_6  and  O_7
REMARK    4  A    between atoms: O_7  and  C_8
REMARK    5  A    between atoms: C_8  and  C_9
REMARK                            x       y       z     vdW  Elec       q    Type
REMARK                         _______ _______ _______ _____ _____    ______ ____
ROOT
ATOM      1  C   UNL     1       1.021   0.151   0.064  0.00  0.00    +0.000 C 
ATOM      2  C   UNL     1       2.476  -0.060  -0.169  0.00  0.00    +0.000 C 
ATOM      3  C   UNL     1       3.177  -1.208  -0.200  0.00  0.00    +0.000 C 
ATOM      4  C   UNL     1       4.638  -0.954  -0.469  0.00  0.00    +0.000 C 
ATOM      5  C   UNL     1       4.728   0.539  -0.634  0.00  0.00    +0.000 C 
ATOM      6  C   UNL     1       5.829   1.225  -0.955  0.00  0.00    +0.000 C 
ATOM      7  C   UNL     1       3.364   1.132  -0.411  0.00  0.00    +0.000 C 
ATOM      8  C   UNL     1       2.708  -2.608  -0.011  0.00  0.00    +0.000 C 
ENDROOT
BRANCH   6   9
ATOM      9  O   UNL     1       7.037   0.611  -1.145  0.00  0.00    +0.000 OA
BRANCH   9  10
ATOM     10  C   UNL     1       7.902   1.358  -2.006  0.00  0.00    +0.000 C 
BRANCH  10  11
ATOM     11  C   UNL     1       9.133   0.541  -2.319  0.00  0.00    +0.000 A 
ATOM     12  C   UNL     1       9.018  -0.797  -2.726  0.00  0.00    +0.000 A 
ATOM     13  C   UNL     1      10.153  -1.543  -3.048  0.00  0.00    +0.000 A 
ATOM     14  C   UNL     1      11.415  -0.957  -2.975  0.00  0.00    +0.000 A 
ATOM     15  C   UNL     1      11.543   0.374  -2.583  0.00  0.00    +0.000 A 
ATOM     16  C   UNL     1      10.408   1.121  -2.260  0.00  0.00    +0.000 A 
ENDBRANCH  10  11
ENDBRANCH   9  10
ENDBRANCH   6   9
TORSDOF 3
