MODEL 1
REMARK VINA RESULT:      -5.7      0.000      0.000
REMARK  Name = *****
REMARK  4 active torsions:
REMARK  status: ('A' for Active; 'I' for Inactive)
REMARK    1  A    between atoms: C_1  and  C_2
REMARK    2  A    between atoms: C_2  and  C_4
REMARK    3  A    between atoms: C_6  and  C_11
REMARK    4  A    between atoms: C_12  and  C_13
REMARK                            x       y       z     vdW  Elec       q    Type
REMARK                         _______ _______ _______ _____ _____    ______ ____
ROOT
ATOM      1  C   UNL     1     101.669 126.040  82.282  0.00  0.00    +0.000 C 
ATOM      2  C   UNL     1     102.999 126.113  82.106  0.00  0.00    +0.000 C 
ENDROOT
BRANCH   2   3
ATOM      3  C   UNL     1     103.852 124.996  81.662  0.00  0.00    +0.000 A 
ATOM      4  C   UNL     1     104.446 125.061  80.392  0.00  0.00    +0.000 A 
ATOM      5  C   UNL     1     105.279 124.046  79.928  0.00  0.00    +0.000 A 
ATOM      6  C   UNL     1     105.548 122.948  80.731  0.00  0.00    +0.000 A 
ATOM      7  C   UNL     1     104.989 122.869  81.996  0.00  0.00    +0.000 A 
ATOM      8  C   UNL     1     104.155 123.884  82.460  0.00  0.00    +0.000 A 
ATOM      9  F   UNL     1     103.658 123.781  83.703  0.00  0.00    +0.000 F 
ATOM     10  F   UNL     1     105.257 121.816  82.781  0.00  0.00    +0.000 F 
ATOM     11  F   UNL     1     106.351 121.972  80.287  0.00  0.00    +0.000 F 
ATOM     12  F   UNL     1     105.826 124.133  78.707  0.00  0.00    +0.000 F 
ATOM     13  F   UNL     1     104.211 126.116  79.595  0.00  0.00    +0.000 F 
ENDBRANCH   2   3
BRANCH   1  16
ATOM     14  C   UNL     1     100.719 129.323  83.873  0.00  0.00    +0.000 A 
ATOM     15  C   UNL     1     101.465 128.231  83.403  0.00  0.00    +0.000 A 
ATOM     16  C   UNL     1     100.838 127.170  82.726  0.00  0.00    +0.000 A 
ATOM     17  C   UNL     1      99.447 127.216  82.556  0.00  0.00    +0.000 A 
ATOM     18  C   UNL     1      98.697 128.293  83.017  0.00  0.00    +0.000 A 
ATOM     19  C   UNL     1      99.331 129.347  83.673  0.00  0.00    +0.000 A 
ATOM     20  F   UNL     1      98.800 126.209  81.950  0.00  0.00    +0.000 F 
BRANCH  14  22
ATOM     21  C   UNL     1     100.537 131.255  85.584  0.00  0.00    +0.000 C 
ATOM     22  C   UNL     1     101.352 130.472  84.588  0.00  0.00    +0.000 C 
ATOM     23  O   UNL     1     102.523 130.764  84.355  0.00  0.00    +0.000 OA
ENDBRANCH  14  22
ENDBRANCH   1  16
TORSDOF 3
ENDMDL
