REMARK  Name = *****
REMARK  4 active torsions:
REMARK  status: ('A' for Active; 'I' for Inactive)
REMARK    1  A    between atoms: C_4  and  C_7
REMARK    2  A    between atoms: C_7  and  C_8
REMARK    3  A    between atoms: C_8  and  P_9
REMARK    4  A    between atoms: P_9  and  C_10
REMARK                            x       y       z     vdW  Elec       q    Type
REMARK                         _______ _______ _______ _____ _____    ______ ____
ROOT
ATOM      1  C   UNL     1      -3.770  -0.745  -0.146  0.00  0.00    +0.000 C 
ENDROOT
BRANCH   1   2
ATOM      2  P   UNL     1      -5.579  -0.342  -0.236  0.00  0.00    +0.000 P 
ATOM      3  H   UNL     1      -5.859   0.534  -1.265  0.00  0.00    +0.000 HD
BRANCH   2   4
ATOM      4  C   UNL     1      -6.253  -2.000  -0.558  0.00  0.00    +0.000 A 
ATOM      5  C   UNL     1      -6.300  -2.956   0.464  0.00  0.00    +0.000 A 
ATOM      6  C   UNL     1      -6.818  -4.231   0.222  0.00  0.00    +0.000 A 
ATOM      7  C   UNL     1      -7.297  -4.561  -1.044  0.00  0.00    +0.000 A 
ATOM      8  C   UNL     1      -7.263  -3.615  -2.066  0.00  0.00    +0.000 A 
ATOM      9  C   UNL     1      -6.745  -2.340  -1.825  0.00  0.00    +0.000 A 
ENDBRANCH   2   4
ENDBRANCH   1   2
BRANCH   1  10
ATOM     10  C   UNL     1      -2.919   0.525  -0.097  0.00  0.00    +0.000 C 
BRANCH  10  14
ATOM     11  C   UNL     1       1.276  -0.447   0.157  0.00  0.00    +0.000 A 
ATOM     12  C   UNL     1       0.667  -0.304  -1.089  0.00  0.00    +0.000 A 
ATOM     13  C   UNL     1      -0.689   0.016  -1.173  0.00  0.00    +0.000 A 
ATOM     14  C   UNL     1      -1.447   0.201  -0.009  0.00  0.00    +0.000 A 
ATOM     15  C   UNL     1      -0.828   0.048   1.239  0.00  0.00    +0.000 A 
ATOM     16  C   UNL     1       0.529  -0.272   1.320  0.00  0.00    +0.000 A 
ENDBRANCH  10  14
ENDBRANCH   1  10
TORSDOF 4
