MODEL 1
REMARK VINA RESULT:      -4.4      0.000      0.000
REMARK  Name = *****
REMARK  6 active torsions:
REMARK  status: ('A' for Active; 'I' for Inactive)
REMARK    1  A    between atoms: C_1  and  C_2
REMARK    2  A    between atoms: C_2  and  O_3
REMARK    3  A    between atoms: O_3  and  C_4
REMARK    4  A    between atoms: C_7  and  S_10
REMARK    5  A    between atoms: S_10  and  C_11
REMARK    6  A    between atoms: C_11  and  C_12
REMARK                            x       y       z     vdW  Elec       q    Type
REMARK                         _______ _______ _______ _____ _____    ______ ____
ROOT
ATOM      1  C   UNL     1      90.169  66.284  84.861  0.00  0.00    +0.000 A 
ATOM      2  N   UNL     1      90.108  67.089  83.780  0.00  0.00    +0.000 NA
ATOM      3  N   UNL     1      89.948  68.441  83.953  0.00  0.00    +0.000 NA
ATOM      4  C   UNL     1      89.848  68.961  85.195  0.00  0.00    +0.000 A 
ATOM      5  C   UNL     1      89.912  68.149  86.317  0.00  0.00    +0.000 A 
ATOM      6  C   UNL     1      90.074  66.777  86.146  0.00  0.00    +0.000 A 
ENDROOT
BRANCH   1   7
ATOM      7  O   UNL     1      90.330  64.921  84.724  0.00  0.00    +0.000 OA
BRANCH   7   9
ATOM      8  C   UNL     1      91.657  62.981  85.122  0.00  0.00    +0.000 C 
ATOM      9  C   UNL     1      91.674  64.490  84.947  0.00  0.00    +0.000 C 
ENDBRANCH   7   9
ENDBRANCH   1   7
BRANCH   4  10
ATOM     10  S   UNL     1      89.656  70.719  85.396  0.00  0.00    +0.000 S 
BRANCH  10  11
ATOM     11  C   UNL     1      87.964  70.936  84.749  0.00  0.00    +0.000 C 
BRANCH  11  12
ATOM     12  C   UNL     1      86.999  71.277  85.852  0.00  0.00    +0.000 A 
ATOM     13  C   UNL     1      87.280  70.943  87.186  0.00  0.00    +0.000 A 
ATOM     14  C   UNL     1      86.369  71.253  88.200  0.00  0.00    +0.000 A 
ATOM     15  C   UNL     1      85.170  71.896  87.894  0.00  0.00    +0.000 A 
ATOM     16  C   UNL     1      84.879  72.226  86.572  0.00  0.00    +0.000 A 
ATOM     17  C   UNL     1      85.789  71.915  85.566  0.00  0.00    +0.000 A 
ATOM     18  F   UNL     1      85.487  72.243  84.301  0.00  0.00    +0.000 F 
ENDBRANCH  11  12
ENDBRANCH  10  11
ENDBRANCH   4  10
TORSDOF 5
ENDMDL
