MODEL 1
REMARK VINA RESULT:      -4.8      0.000      0.000
REMARK  Name = *****
REMARK  4 active torsions:
REMARK  status: ('A' for Active; 'I' for Inactive)
REMARK    1  A    between atoms: C_1  and  C_2
REMARK    2  A    between atoms: C_4  and  O_8
REMARK    3  A    between atoms: O_8  and  C_9
REMARK    4  A    between atoms: C_9  and  C_11
REMARK                            x       y       z     vdW  Elec       q    Type
REMARK                         _______ _______ _______ _____ _____    ______ ____
ROOT
ATOM      1  C   UNL     1     103.239 126.175  83.018  0.00  0.00    +0.000 A 
ATOM      2  C   UNL     1     103.609 124.844  82.858  0.00  0.00    +0.000 A 
ATOM      3  C   UNL     1     104.025 124.385  81.612  0.00  0.00    +0.000 A 
ATOM      4  C   UNL     1     104.078 125.254  80.530  0.00  0.00    +0.000 A 
ATOM      5  C   UNL     1     103.715 126.586  80.692  0.00  0.00    +0.000 A 
ATOM      6  C   UNL     1     103.296 127.049  81.935  0.00  0.00    +0.000 A 
ATOM      7  F   UNL     1     102.969 128.340  82.081  0.00  0.00    +0.000 F 
ATOM      8  F   UNL     1     103.770 127.427  79.651  0.00  0.00    +0.000 F 
ATOM      9  F   UNL     1     104.478 124.810  79.331  0.00  0.00    +0.000 F 
ATOM     10  F   UNL     1     104.368 123.099  81.454  0.00  0.00    +0.000 F 
ATOM     11  F   UNL     1     103.542 123.985  83.885  0.00  0.00    +0.000 F 
ENDROOT
BRANCH   1  12
ATOM     12  C   UNL     1     102.829 126.653  84.338  0.00  0.00    +0.000 C 
ATOM     13  O   UNL     1     103.591 127.209  85.108  0.00  0.00    +0.000 OA
BRANCH  12  14
ATOM     14  O   UNL     1     101.504 126.314  84.508  0.00  0.00    +0.000 OA
BRANCH  14  18
ATOM     15  C   UNL     1      99.516 130.837  84.091  0.00  0.00    +0.000 C 
ATOM     16  C   UNL     1      99.580 129.385  83.724  0.00  0.00    +0.000 A 
ATOM     17  C   UNL     1     100.546 128.544  84.289  0.00  0.00    +0.000 A 
ATOM     18  C   UNL     1     100.585 127.197  83.928  0.00  0.00    +0.000 A 
ATOM     19  C   UNL     1      99.648 126.658  83.049  0.00  0.00    +0.000 A 
ATOM     20  C   UNL     1      98.677 127.489  82.495  0.00  0.00    +0.000 A 
ATOM     21  C   UNL     1      98.643 128.845  82.830  0.00  0.00    +0.000 A 
ENDBRANCH  14  18
ENDBRANCH  12  14
ENDBRANCH   1  12
TORSDOF 3
ENDMDL
