REMARK  Name = *****
REMARK  6 active torsions:
REMARK  status: ('A' for Active; 'I' for Inactive)
REMARK    1  A    between atoms: C_1  and  C_2
REMARK    2  A    between atoms: C_4  and  O_11
REMARK    3  A    between atoms: N_8  and  C_9
REMARK    4  A    between atoms: N_8  and  C_10
REMARK    5  A    between atoms: O_11  and  C_12
REMARK    6  A    between atoms: C_12  and  C_13
REMARK                            x       y       z     vdW  Elec       q    Type
REMARK                         _______ _______ _______ _____ _____    ______ ____
ROOT
ATOM      1  C   UNL     1      -2.400  -0.150  -0.399  0.00  0.00    +0.000 C 
ATOM      2  C   UNL     1      -0.923  -0.081  -0.159  0.00  0.00    +0.000 A 
ATOM      3  C   UNL     1      -0.162  -1.224  -0.172  0.00  0.00    +0.000 A 
ATOM      4  C   UNL     1       1.173  -1.041   0.072  0.00  0.00    +0.000 A 
ATOM      5  N   UNL     1       1.740   0.155   0.299  0.00  0.00    +0.000 NA
ATOM      6  C   UNL     1       0.937   1.229   0.290  0.00  0.00    +0.000 A 
ATOM      7  N   UNL     1      -0.387   1.135   0.069  0.00  0.00    +0.000 NA
ATOM      8  N   UNL     1       1.492   2.486   0.541  0.00  0.00    +0.000 N 
ATOM      9  C   UNL     1       0.665   3.604   0.118  0.00  0.00    +0.000 C 
ATOM     10  C   UNL     1       2.916   2.580   0.260  0.00  0.00    +0.000 C 
ENDROOT
BRANCH   4  11
ATOM     11  O   UNL     1       1.953  -2.181   0.062  0.00  0.00    +0.000 OA
BRANCH  11  12
ATOM     12  C   UNL     1       3.298  -1.940   0.477  0.00  0.00    +0.000 C 
BRANCH  12  13
ATOM     13  C   UNL     1       4.032  -3.254   0.436  0.00  0.00    +0.000 A 
ATOM     14  C   UNL     1       4.161  -4.002   1.611  0.00  0.00    +0.000 A 
ATOM     15  C   UNL     1       4.809  -5.236   1.631  0.00  0.00    +0.000 A 
ATOM     16  C   UNL     1       5.341  -5.754   0.455  0.00  0.00    +0.000 A 
ATOM     17  C   UNL     1       5.216  -5.034  -0.732  0.00  0.00    +0.000 A 
ATOM     18  C   UNL     1       4.562  -3.795  -0.744  0.00  0.00    +0.000 A 
ATOM     19 CL   UNL     1       4.438  -2.975  -2.260  0.00  0.00    +0.000 Cl
ATOM     20  F   UNL     1       3.655  -3.533   2.761  0.00  0.00    +0.000 F 
ENDBRANCH  12  13
ENDBRANCH  11  12
ENDBRANCH   4  11
TORSDOF 3
