MODEL 1
REMARK VINA RESULT:      -4.7      0.000      0.000
REMARK  Name = *****
REMARK  4 active torsions:
REMARK  status: ('A' for Active; 'I' for Inactive)
REMARK    1  A    between atoms: C_1  and  C_2
REMARK    2  A    between atoms: C_5  and  S_8
REMARK    3  A    between atoms: S_8  and  C_9
REMARK    4  A    between atoms: C_9  and  C_11
REMARK                            x       y       z     vdW  Elec       q    Type
REMARK                         _______ _______ _______ _____ _____    ______ ____
ROOT
ATOM      1  C   UNL     1      89.045  70.009  87.410  0.00  0.00    +0.000 C 
ATOM      2  O   UNL     1      89.744  70.775  86.756  0.00  0.00    +0.000 OA
ENDROOT
BRANCH   1   3
ATOM      3  C   UNL     1      89.030  68.554  87.066  0.00  0.00    +0.000 A 
ATOM      4  C   UNL     1      90.089  67.892  86.428  0.00  0.00    +0.000 A 
ATOM      5  C   UNL     1      89.982  66.531  86.133  0.00  0.00    +0.000 A 
ATOM      6  C   UNL     1      88.832  65.814  86.463  0.00  0.00    +0.000 A 
ATOM      7  C   UNL     1      87.774  66.463  87.093  0.00  0.00    +0.000 A 
ATOM      8  C   UNL     1      87.872  67.824  87.390  0.00  0.00    +0.000 A 
ATOM      9 CL   UNL     1      91.284  65.726  85.345  0.00  0.00    +0.000 Cl
ENDBRANCH   1   3
BRANCH   1  10
ATOM     10  S   UNL     1      87.997  70.561  88.714  0.00  0.00    +0.000 S 
BRANCH  10  15
ATOM     11  C   UNL     1      83.280  73.025  85.728  0.00  0.00    +0.000 C 
ATOM     12  C   UNL     1      84.418  72.388  86.468  0.00  0.00    +0.000 A 
ATOM     13  C   UNL     1      84.425  72.362  87.866  0.00  0.00    +0.000 A 
ATOM     14  C   UNL     1      85.501  71.800  88.560  0.00  0.00    +0.000 A 
ATOM     15  C   UNL     1      86.583  71.245  87.870  0.00  0.00    +0.000 A 
ATOM     16  C   UNL     1      86.589  71.299  86.472  0.00  0.00    +0.000 A 
ATOM     17  C   UNL     1      85.518  71.869  85.776  0.00  0.00    +0.000 A 
ENDBRANCH  10  15
ENDBRANCH   1  10
TORSDOF 3
ENDMDL
