MODEL 1
REMARK VINA RESULT:      -4.9      0.000      0.000
REMARK  Name = *****
REMARK  2 active torsions:
REMARK  status: ('A' for Active; 'I' for Inactive)
REMARK    1  A    between atoms: C_2  and  S_10
REMARK    2  A    between atoms: S_10  and  C_11
REMARK                            x       y       z     vdW  Elec       q    Type
REMARK                         _______ _______ _______ _____ _____    ______ ____
ROOT
ATOM      1  C   UNL     1      86.352  71.487  85.721  0.00  0.00    +0.000 C 
ATOM      2  C   UNL     1      86.949  70.603  86.837  0.00  0.00    +0.000 C 
ATOM      3  C   UNL     1      86.565  71.281  88.170  0.00  0.00    +0.000 C 
ATOM      4  C   UNL     1      85.261  71.920  87.801  0.00  0.00    +0.000 A 
ATOM      5  C   UNL     1      84.279  72.405  88.647  0.00  0.00    +0.000 A 
ATOM      6  C   UNL     1      83.153  73.006  88.078  0.00  0.00    +0.000 A 
ATOM      7  C   UNL     1      83.032  73.123  86.684  0.00  0.00    +0.000 A 
ATOM      8  C   UNL     1      84.034  72.643  85.839  0.00  0.00    +0.000 A 
ATOM      9  C   UNL     1      85.141  72.038  86.411  0.00  0.00    +0.000 A 
ENDROOT
BRANCH   2  10
ATOM     10  S   UNL     1      88.761  70.382  86.703  0.00  0.00    +0.000 S 
BRANCH  10  11
ATOM     11  C   UNL     1      88.873  68.605  86.765  0.00  0.00    +0.000 A 
ATOM     12  C   UNL     1      90.007  67.975  86.238  0.00  0.00    +0.000 A 
ATOM     13  C   UNL     1      90.124  66.583  86.281  0.00  0.00    +0.000 A 
ATOM     14  C   UNL     1      89.112  65.830  86.861  0.00  0.00    +0.000 A 
ATOM     15  C   UNL     1      87.986  66.439  87.403  0.00  0.00    +0.000 A 
ATOM     16  C   UNL     1      87.868  67.830  87.359  0.00  0.00    +0.000 A 
ATOM     17  F   UNL     1      89.223  64.496  86.903  0.00  0.00    +0.000 F 
ENDBRANCH  10  11
ENDBRANCH   2  10
TORSDOF 2
ENDMDL
