MODEL 1
REMARK VINA RESULT:      -4.9      0.000      0.000
REMARK  Name = *****
REMARK  6 active torsions:
REMARK  status: ('A' for Active; 'I' for Inactive)
REMARK    1  A    between atoms: C_1  and  C_2
REMARK    2  A    between atoms: C_5  and  C_8
REMARK    3  A    between atoms: C_9  and  C_10
REMARK    4  A    between atoms: C_15  and  C_16
REMARK    5  A    between atoms: C_16  and  O_18
REMARK    6  A    between atoms: O_18  and  C_19
REMARK                            x       y       z     vdW  Elec       q    Type
REMARK                         _______ _______ _______ _____ _____    ______ ____
ROOT
ATOM      1  C   UNL     1     101.020 128.653  83.635  0.00  0.00    +0.000 A 
ATOM      2  C   UNL     1     101.721 129.759  84.138  0.00  0.00    +0.000 A 
ATOM      3  C   UNL     1     101.033 130.867  84.638  0.00  0.00    +0.000 A 
ATOM      4  C   UNL     1      99.640 130.886  84.633  0.00  0.00    +0.000 A 
ATOM      5  C   UNL     1      98.933 129.792  84.137  0.00  0.00    +0.000 A 
ATOM      6  C   UNL     1      99.617 128.665  83.651  0.00  0.00    +0.000 A 
ENDROOT
BRANCH   1   8
ATOM      7  C   UNL     1     102.423 126.662  82.628  0.00  0.00    +0.000 C 
ATOM      8  C   UNL     1     101.782 127.569  83.086  0.00  0.00    +0.000 C 
BRANCH   7  13
ATOM      9  C   UNL     1     105.509 122.333  80.474  0.00  0.00    +0.000 C 
ATOM     10  C   UNL     1     104.727 123.480  81.044  0.00  0.00    +0.000 A 
ATOM     11  C   UNL     1     104.395 123.506  82.404  0.00  0.00    +0.000 A 
ATOM     12  C   UNL     1     103.639 124.558  82.928  0.00  0.00    +0.000 A 
ATOM     13  C   UNL     1     103.200 125.587  82.095  0.00  0.00    +0.000 A 
ATOM     14  C   UNL     1     103.515 125.561  80.736  0.00  0.00    +0.000 A 
ATOM     15  C   UNL     1     104.271 124.509  80.211  0.00  0.00    +0.000 A 
ENDBRANCH   7  13
ENDBRANCH   1   8
BRANCH   6  16
ATOM     16  C   UNL     1      98.785 127.551  83.146  0.00  0.00    +0.000 C 
ATOM     17  O   UNL     1      98.382 127.484  81.996  0.00  0.00    +0.000 OA
BRANCH  16  18
ATOM     18  O   UNL     1      98.459 126.716  84.162  0.00  0.00    +0.000 OA
ATOM     19  C   UNL     1      97.074 126.375  84.211  0.00  0.00    +0.000 C 
ENDBRANCH  16  18
ENDBRANCH   6  16
TORSDOF 4
ENDMDL
