REMARK  Name = *****
REMARK  2 active torsions:
REMARK  status: ('A' for Active; 'I' for Inactive)
REMARK    1  A    between atoms: C_3  and  C_6
REMARK    2  A    between atoms: C_7  and  C_8
REMARK                            x       y       z     vdW  Elec       q    Type
REMARK                         _______ _______ _______ _____ _____    ______ ____
ROOT
ATOM      1  C   UNL     1       0.011   2.036  -1.246  0.00  0.00    +0.000 C 
ATOM      2  C   UNL     1       0.020   2.750  -2.212  0.00  0.00    +0.000 C 
ENDROOT
BRANCH   2   3
ATOM      3  C   UNL     1       0.033   3.601  -3.361  0.00  0.00    +0.000 A 
ATOM      4  C   UNL     1       1.249   4.006  -3.918  0.00  0.00    +0.000 A 
ATOM      5  C   UNL     1       1.261   4.840  -5.040  0.00  0.00    +0.000 A 
ATOM      6  C   UNL     1       0.057   5.266  -5.599  0.00  0.00    +0.000 A 
ATOM      7  C   UNL     1      -1.159   4.864  -5.048  0.00  0.00    +0.000 A 
ATOM      8  C   UNL     1      -1.171   4.030  -3.927  0.00  0.00    +0.000 A 
ATOM      9 CL   UNL     1       0.072   6.294  -6.979  0.00  0.00    +0.000 Cl
ENDBRANCH   2   3
BRANCH   1  12
ATOM     10  C   UNL     1       0.717  -1.048  -0.094  0.00  0.00    +0.000 C 
ATOM     11  C   UNL     1       1.163   0.219  -0.076  0.00  0.00    +0.000 C 
ATOM     12  C   UNL     1      -0.000   1.173  -0.061  0.00  0.00    +0.000 C 
ATOM     13  C   UNL     1      -1.166   0.222  -0.095  0.00  0.00    +0.000 C 
ATOM     14  C   UNL     1      -0.725  -1.045  -0.106  0.00  0.00    +0.000 C 
ENDBRANCH   1  12
TORSDOF 2
