MODEL 1
REMARK VINA RESULT:      -4.8      0.000      0.000
REMARK  Name = *****
REMARK  5 active torsions:
REMARK  status: ('A' for Active; 'I' for Inactive)
REMARK    1  A    between atoms: C_1  and  C_2
REMARK    2  A    between atoms: C_5  and  C_8
REMARK    3  A    between atoms: C_9  and  C_10
REMARK    4  A    between atoms: C_13  and  C_16
REMARK    5  A    between atoms: C_16  and  C_18
REMARK                            x       y       z     vdW  Elec       q    Type
REMARK                         _______ _______ _______ _____ _____    ______ ____
ROOT
ATOM      1  C   UNL     1     102.228 125.634  82.771  0.00  0.00    +0.000 C 
ATOM      2  C   UNL     1     103.241 125.550  81.892  0.00  0.00    +0.000 C 
ENDROOT
BRANCH   1   7
ATOM      3  C   UNL     1      99.228 130.476  83.840  0.00  0.00    +0.000 C 
ATOM      4  C   UNL     1      99.986 129.215  83.548  0.00  0.00    +0.000 A 
ATOM      5  C   UNL     1      99.346 128.097  83.004  0.00  0.00    +0.000 A 
ATOM      6  C   UNL     1     100.063 126.925  82.741  0.00  0.00    +0.000 A 
ATOM      7  C   UNL     1     101.435 126.851  83.009  0.00  0.00    +0.000 A 
ATOM      8  C   UNL     1     102.067 127.964  83.575  0.00  0.00    +0.000 A 
ATOM      9  C   UNL     1     101.352 129.136  83.840  0.00  0.00    +0.000 A 
ENDBRANCH   1   7
BRANCH   2  10
ATOM     10  C   UNL     1     104.057 124.344  81.687  0.00  0.00    +0.000 A 
ATOM     11  C   UNL     1     104.590 123.994  80.439  0.00  0.00    +0.000 A 
ATOM     12  C   UNL     1     105.369 122.841  80.288  0.00  0.00    +0.000 A 
ATOM     13  C   UNL     1     105.638 122.025  81.392  0.00  0.00    +0.000 A 
ATOM     14  C   UNL     1     105.139 122.388  82.649  0.00  0.00    +0.000 A 
ATOM     15  C   UNL     1     104.358 123.539  82.793  0.00  0.00    +0.000 A 
BRANCH  13  16
ATOM     16  C   UNL     1     106.451 120.779  81.282  0.00  0.00    +0.000 C 
ATOM     17  O   UNL     1     107.508 120.790  80.656  0.00  0.00    +0.000 OA
ATOM     18  C   UNL     1     105.949 119.523  81.946  0.00  0.00    +0.000 C 
ENDBRANCH  13  16
ENDBRANCH   2  10
TORSDOF 3
ENDMDL
