MODEL 1
REMARK VINA RESULT:      -4.0      0.000      0.000
REMARK  Name = *****
REMARK  3 active torsions:
REMARK  status: ('A' for Active; 'I' for Inactive)
REMARK    1  A    between atoms: C_3  and  C_6
REMARK    2  A    between atoms: C_7  and  C_8
REMARK    3  A    between atoms: C_11  and  C_13
REMARK                            x       y       z     vdW  Elec       q    Type
REMARK                         _______ _______ _______ _____ _____    ______ ____
ROOT
ATOM      1  C   UNL     1      98.292 118.685  80.534  0.00  0.00    +0.000 C 
ATOM      2  C   UNL     1      97.382 117.727  80.772  0.00  0.00    +0.000 C 
ENDROOT
BRANCH   1   5
ATOM      3  C   UNL     1      97.892 119.819  83.729  0.00  0.00    +0.000 C 
ATOM      4  C   UNL     1      98.802 119.279  82.901  0.00  0.00    +0.000 C 
ATOM      5  C   UNL     1      98.596 119.795  81.500  0.00  0.00    +0.000 C 
ATOM      6  C   UNL     1      97.414 120.710  81.694  0.00  0.00    +0.000 C 
ATOM      7  C   UNL     1      97.034 120.704  82.980  0.00  0.00    +0.000 C 
ENDBRANCH   1   5
BRANCH   2   8
ATOM      8  C   UNL     1      97.104 116.678  79.844  0.00  0.00    +0.000 A 
ATOM      9  C   UNL     1      97.705 116.338  78.642  0.00  0.00    +0.000 A 
ATOM     10  C   UNL     1      97.113 115.200  78.017  0.00  0.00    +0.000 A 
ATOM     11  C   UNL     1      96.068 114.690  78.756  0.00  0.00    +0.000 A 
ATOM     12  S   UNL     1      95.814 115.582  80.185  0.00  0.00    +0.000 S 
BRANCH  11  13
ATOM     13  C   UNL     1      95.282 113.555  78.388  0.00  0.00    +0.000 C 
ATOM     14  N   UNL     1      94.656 112.623  78.096  0.00  0.00    +0.000 NA
ENDBRANCH  11  13
ENDBRANCH   2   8
TORSDOF 3
ENDMDL
