MODEL 1
REMARK VINA RESULT:      -4.5      0.000      0.000
REMARK  Name = *****
REMARK  3 active torsions:
REMARK  status: ('A' for Active; 'I' for Inactive)
REMARK    1  A    between atoms: C_5  and  C_7
REMARK    2  A    between atoms: C_7  and  O_8
REMARK    3  A    between atoms: O_8  and  C_9
REMARK                            x       y       z     vdW  Elec       q    Type
REMARK                         _______ _______ _______ _____ _____    ______ ____
ROOT
ATOM      1  C   UNL     1     102.775 125.825  82.774  0.00  0.00    +0.000 C 
ENDROOT
BRANCH   1   6
ATOM      2  C   UNL     1     104.977 123.157  81.180  0.00  0.00    +0.000 A 
ATOM      3  C   UNL     1     105.344 123.755  79.977  0.00  0.00    +0.000 A 
ATOM      4  C   UNL     1     104.882 125.034  79.670  0.00  0.00    +0.000 A 
ATOM      5  C   UNL     1     104.048 125.717  80.562  0.00  0.00    +0.000 A 
ATOM      6  C   UNL     1     103.658 125.121  81.770  0.00  0.00    +0.000 A 
ATOM      7  C   UNL     1     104.144 123.835  82.071  0.00  0.00    +0.000 A 
ATOM      8 CL   UNL     1     103.533 127.304  80.116  0.00  0.00    +0.000 Cl
ENDBRANCH   1   6
BRANCH   1   9
ATOM      9  O   UNL     1     101.447 125.841  82.252  0.00  0.00    +0.000 OA
BRANCH   9  10
ATOM     10  C   UNL     1     100.716 126.934  82.668  0.00  0.00    +0.000 A 
ATOM     11  N   UNL     1     101.332 127.960  83.287  0.00  0.00    +0.000 NA
ATOM     12  C   UNL     1     100.540 128.988  83.651  0.00  0.00    +0.000 A 
ATOM     13  C   UNL     1      99.175 129.054  83.427  0.00  0.00    +0.000 A 
ATOM     14  C   UNL     1      98.573 127.981  82.780  0.00  0.00    +0.000 A 
ATOM     15  C   UNL     1      99.357 126.899  82.391  0.00  0.00    +0.000 A 
ATOM     16 CL   UNL     1     101.361 130.271  84.441  0.00  0.00    +0.000 Cl
ENDBRANCH   9  10
ENDBRANCH   1   9
TORSDOF 3
ENDMDL
