MODEL 1
REMARK VINA RESULT:      -5.0      0.000      0.000
REMARK  Name = *****
REMARK  3 active torsions:
REMARK  status: ('A' for Active; 'I' for Inactive)
REMARK    1  A    between atoms: C_4  and  C_7
REMARK    2  A    between atoms: C_8  and  C_9
REMARK    3  A    between atoms: C_9  and  C_10
REMARK                            x       y       z     vdW  Elec       q    Type
REMARK                         _______ _______ _______ _____ _____    ______ ____
ROOT
ATOM      1  C   UNL     1      89.912  68.115  86.452  0.00  0.00    +0.000 C 
ATOM      2  C   UNL     1      89.660  69.072  85.541  0.00  0.00    +0.000 C 
ATOM      3  F   UNL     1      89.514  68.716  84.239  0.00  0.00    +0.000 F 
ENDROOT
BRANCH   1   7
ATOM      4  C   UNL     1      90.272  63.905  85.771  0.00  0.00    +0.000 A 
ATOM      5  C   UNL     1      91.239  64.767  85.258  0.00  0.00    +0.000 A 
ATOM      6  C   UNL     1      91.131  66.145  85.465  0.00  0.00    +0.000 A 
ATOM      7  C   UNL     1      90.048  66.678  86.175  0.00  0.00    +0.000 A 
ATOM      8  C   UNL     1      89.091  65.797  86.702  0.00  0.00    +0.000 A 
ATOM      9  C   UNL     1      89.199  64.419  86.495  0.00  0.00    +0.000 A 
ENDBRANCH   1   7
BRANCH   2  10
ATOM     10  C   UNL     1      89.526  70.543  85.879  0.00  0.00    +0.000 C 
ATOM     11  F   UNL     1      89.979  70.779  87.153  0.00  0.00    +0.000 F 
ATOM     12  F   UNL     1      90.384  71.257  85.084  0.00  0.00    +0.000 F 
BRANCH  10  13
ATOM     13  C   UNL     1      88.092  71.019  85.715  0.00  0.00    +0.000 A 
ATOM     14  C   UNL     1      87.644  71.532  84.486  0.00  0.00    +0.000 A 
ATOM     15  C   UNL     1      86.331  71.985  84.342  0.00  0.00    +0.000 A 
ATOM     16  C   UNL     1      85.453  71.931  85.424  0.00  0.00    +0.000 A 
ATOM     17  C   UNL     1      85.884  71.426  86.649  0.00  0.00    +0.000 A 
ATOM     18  C   UNL     1      87.196  70.974  86.796  0.00  0.00    +0.000 A 
ENDBRANCH  10  13
ENDBRANCH   2  10
TORSDOF 3
ENDMDL
