MODEL 1
REMARK VINA RESULT:      -4.6      0.000      0.000
REMARK  Name = *****
REMARK  5 active torsions:
REMARK  status: ('A' for Active; 'I' for Inactive)
REMARK    1  A    between atoms: C_1  and  C_2
REMARK    2  A    between atoms: C_5  and  S_8
REMARK    3  A    between atoms: S_8  and  C_9
REMARK    4  A    between atoms: C_9  and  C_10
REMARK    5  A    between atoms: C_9  and  C_11
REMARK                            x       y       z     vdW  Elec       q    Type
REMARK                         _______ _______ _______ _____ _____    ______ ____
ROOT
ATOM      1  C   UNL     1      87.686  70.854  85.647  0.00  0.00    +0.000 C 
ATOM      2  C   UNL     1      88.179  71.675  84.452  0.00  0.00    +0.000 C 
ENDROOT
BRANCH   1   3
ATOM      3  C   UNL     1      86.471  71.408  86.378  0.00  0.00    +0.000 A 
ATOM      4  C   UNL     1      86.437  71.348  87.786  0.00  0.00    +0.000 A 
ATOM      5  C   UNL     1      85.346  71.847  88.500  0.00  0.00    +0.000 A 
ATOM      6  C   UNL     1      84.281  72.414  87.813  0.00  0.00    +0.000 A 
ATOM      7  C   UNL     1      84.290  72.491  86.427  0.00  0.00    +0.000 A 
ATOM      8  C   UNL     1      85.380  71.990  85.711  0.00  0.00    +0.000 A 
ATOM      9  F   UNL     1      83.235  72.895  88.496  0.00  0.00    +0.000 F 
ENDBRANCH   1   3
BRANCH   1  10
ATOM     10  S   UNL     1      89.068  70.432  86.797  0.00  0.00    +0.000 S 
BRANCH  10  15
ATOM     11  C   UNL     1      88.831  64.346  87.009  0.00  0.00    +0.000 C 
ATOM     12  C   UNL     1      88.875  65.843  86.925  0.00  0.00    +0.000 A 
ATOM     13  C   UNL     1      89.981  66.488  86.358  0.00  0.00    +0.000 A 
ATOM     14  C   UNL     1      90.040  67.884  86.313  0.00  0.00    +0.000 A 
ATOM     15  C   UNL     1      88.993  68.652  86.826  0.00  0.00    +0.000 A 
ATOM     16  C   UNL     1      87.905  68.012  87.425  0.00  0.00    +0.000 A 
ATOM     17  C   UNL     1      87.846  66.616  87.473  0.00  0.00    +0.000 A 
ENDBRANCH  10  15
ENDBRANCH   1  10
TORSDOF 3
ENDMDL
