REMARK  Name = *****
REMARK  1 active torsions:
REMARK  status: ('A' for Active; 'I' for Inactive)
REMARK    1  A    between atoms: C_9  and  C_11
REMARK                            x       y       z     vdW  Elec       q    Type
REMARK                         _______ _______ _______ _____ _____    ______ ____
ROOT
ATOM      1  C   UNL     1       2.484  -0.623  -0.367  0.00  0.00    +0.000 C 
ATOM      2  C   UNL     1       2.465   0.713   0.364  0.00  0.00    +0.000 C 
ATOM      3  C   UNL     1       1.220   1.512  -0.015  0.00  0.00    +0.000 C 
ATOM      4  C   UNL     1      -0.050   0.697   0.036  0.00  0.00    +0.000 A 
ATOM      5  C   UNL     1      -0.021  -0.706   0.017  0.00  0.00    +0.000 A 
ATOM      6  C   UNL     1       1.280  -1.471   0.040  0.00  0.00    +0.000 C 
ATOM      7  C   UNL     1      -1.229  -1.412   0.035  0.00  0.00    +0.000 A 
ATOM      8  C   UNL     1      -2.452  -0.736   0.045  0.00  0.00    +0.000 A 
ATOM      9  C   UNL     1      -2.505   0.664   0.050  0.00  0.00    +0.000 A 
ATOM     10  C   UNL     1      -1.289   1.364   0.037  0.00  0.00    +0.000 A 
ENDROOT
BRANCH   9  11
ATOM     11  C   UNL     1      -3.796   1.370   0.042  0.00  0.00    +0.000 C 
ATOM     12  C   UNL     1      -4.027   2.628   0.450  0.00  0.00    +0.000 C 
ATOM     13  C   UNL     1      -5.467   3.003   0.332  0.00  0.00    +0.000 C 
ATOM     14  C   UNL     1      -6.030   1.894  -0.550  0.00  0.00    +0.000 C 
ATOM     15  C   UNL     1      -5.073   0.713  -0.396  0.00  0.00    +0.000 C 
ENDBRANCH   9  11
TORSDOF 1
