REMARK  Name = *****
REMARK  2 active torsions:
REMARK  status: ('A' for Active; 'I' for Inactive)
REMARK    1  A    between atoms: C_4  and  C_7
REMARK    2  A    between atoms: C_8  and  C_9
REMARK                            x       y       z     vdW  Elec       q    Type
REMARK                         _______ _______ _______ _____ _____    ______ ____
ROOT
ATOM      1  C   UNL     1       2.796  -0.621  -0.361  0.00  0.00    +0.000 C 
ATOM      2  C   UNL     1       3.851  -0.954   0.401  0.00  0.00    +0.000 C 
ENDROOT
BRANCH   1   6
ATOM      3  C   UNL     1      -1.429   0.371  -0.165  0.00  0.00    +0.000 C 
ATOM      4  C   UNL     1      -1.007  -1.061   0.153  0.00  0.00    +0.000 C 
ATOM      5  C   UNL     1       0.406  -1.356  -0.348  0.00  0.00    +0.000 C 
ATOM      6  C   UNL     1       1.422  -0.343   0.201  0.00  0.00    +0.000 C 
ATOM      7  C   UNL     1       0.991   1.095  -0.128  0.00  0.00    +0.000 C 
ATOM      8  C   UNL     1      -0.423   1.385   0.372  0.00  0.00    +0.000 C 
ENDBRANCH   1   6
BRANCH   2   9
ATOM      9  C   UNL     1       5.145  -1.216  -0.139  0.00  0.00    +0.000 A 
ATOM     10  C   UNL     1       5.621  -1.164  -1.441  0.00  0.00    +0.000 A 
ATOM     11  C   UNL     1       7.001  -1.506  -1.553  0.00  0.00    +0.000 A 
ATOM     12  C   UNL     1       7.553  -1.811  -0.333  0.00  0.00    +0.000 A 
ATOM     13  S   UNL     1       6.417  -1.685   0.933  0.00  0.00    +0.000 S 
ENDBRANCH   2   9
TORSDOF 2
