MODEL 1
REMARK VINA RESULT:      -5.2      0.000      0.000
REMARK  Name = *****
REMARK  0 active torsions:
REMARK  status: ('A' for Active; 'I' for Inactive)
REMARK                            x       y       z     vdW  Elec       q    Type
REMARK                         _______ _______ _______ _____ _____    ______ ____
ROOT
ATOM      1  C   UNL     1      87.495  65.472  88.603  0.00  0.00    +0.000 C 
ATOM      2  C   UNL     1      87.971  66.053  87.484  0.00  0.00    +0.000 C 
ATOM      3  C   UNL     1      87.270  67.256  86.892  0.00  0.00    +0.000 C 
ATOM      4  C   UNL     1      87.639  68.553  87.586  0.00  0.00    +0.000 A 
ATOM      5  C   UNL     1      86.771  69.051  88.577  0.00  0.00    +0.000 A 
ATOM      6  C   UNL     1      87.068  70.219  89.279  0.00  0.00    +0.000 A 
ATOM      7  C   UNL     1      88.243  70.907  89.007  0.00  0.00    +0.000 A 
ATOM      8  C   UNL     1      89.116  70.428  88.030  0.00  0.00    +0.000 A 
ATOM      9  C   UNL     1      88.831  69.254  87.308  0.00  0.00    +0.000 A 
ATOM     10  C   UNL     1      89.806  68.810  86.245  0.00  0.00    +0.000 C 
ATOM     11  O   UNL     1      90.451  67.593  86.606  0.00  0.00    +0.000 OA
ATOM     12  C   UNL     1      89.994  66.453  85.877  0.00  0.00    +0.000 C 
ATOM     13  C   UNL     1      89.218  65.486  86.806  0.00  0.00    +0.000 C 
ATOM     14  C   UNL     1      88.852  64.206  86.023  0.00  0.00    +0.000 C 
ATOM     15  C   UNL     1      90.084  63.533  85.420  0.00  0.00    +0.000 C 
ATOM     16  C   UNL     1      90.887  64.493  84.550  0.00  0.00    +0.000 C 
ATOM     17  C   UNL     1      91.242  65.765  85.308  0.00  0.00    +0.000 C 
ENDROOT
TORSDOF 0
ENDMDL
