MODEL 1
REMARK VINA RESULT:      -5.0      0.000      0.000
REMARK  Name = *****
REMARK  2 active torsions:
REMARK  status: ('A' for Active; 'I' for Inactive)
REMARK    1  A    between atoms: C_6  and  N_7
REMARK    2  A    between atoms: C_8  and  C_9
REMARK                            x       y       z     vdW  Elec       q    Type
REMARK                         _______ _______ _______ _____ _____    ______ ____
ROOT
ATOM      1  N   UNL     1     101.806 125.726  81.995  0.00  0.00    +0.000 NA
ATOM      2  C   UNL     1     102.971 125.538  82.530  0.00  0.00    +0.000 C 
ENDROOT
BRANCH   1   8
ATOM      3  C   UNL     1     101.719 127.861  83.138  0.00  0.00    +0.000 A 
ATOM      4  C   UNL     1     100.991 128.931  83.662  0.00  0.00    +0.000 A 
ATOM      5  C   UNL     1      99.605 128.933  83.549  0.00  0.00    +0.000 A 
ATOM      6  C   UNL     1      98.950 127.879  82.924  0.00  0.00    +0.000 A 
ATOM      7  C   UNL     1      99.671 126.810  82.400  0.00  0.00    +0.000 A 
ATOM      8  C   UNL     1     101.064 126.803  82.494  0.00  0.00    +0.000 A 
ATOM      9  F   UNL     1      97.613 127.882  82.821  0.00  0.00    +0.000 F 
ATOM     10  F   UNL     1      98.906 129.960  84.050  0.00  0.00    +0.000 F 
ENDBRANCH   1   8
BRANCH   2  11
ATOM     11  C   UNL     1     103.853 124.442  82.094  0.00  0.00    +0.000 A 
ATOM     12  C   UNL     1     104.210 124.357  80.747  0.00  0.00    +0.000 A 
ATOM     13  C   UNL     1     105.039 123.336  80.296  0.00  0.00    +0.000 A 
ATOM     14  C   UNL     1     105.509 122.398  81.207  0.00  0.00    +0.000 A 
ATOM     15  C   UNL     1     105.163 122.466  82.555  0.00  0.00    +0.000 A 
ATOM     16  C   UNL     1     104.330 123.492  83.004  0.00  0.00    +0.000 A 
ATOM     17  F   UNL     1     106.308 121.411  80.782  0.00  0.00    +0.000 F 
ATOM     18  F   UNL     1     103.759 125.259  79.864  0.00  0.00    +0.000 F 
ENDBRANCH   2  11
TORSDOF 2
ENDMDL
