REMARK  Name = *****
REMARK  5 active torsions:
REMARK  status: ('A' for Active; 'I' for Inactive)
REMARK    1  A    between atoms: C_5  and  O_7
REMARK    2  A    between atoms: O_7  and  C_8
REMARK    3  A    between atoms: C_8  and  O_10
REMARK    4  A    between atoms: O_10  and  C_11
REMARK    5  A    between atoms: C_11  and  C_12
REMARK                            x       y       z     vdW  Elec       q    Type
REMARK                         _______ _______ _______ _____ _____    ______ ____
ROOT
ATOM      1  O   UNL     1       0.844  -2.180  -0.748  0.00  0.00    +0.000 OA
ENDROOT
BRANCH   1   6
ATOM      2  C   UNL     1      -1.735  -0.021   0.727  0.00  0.00    +0.000 A 
ATOM      3  C   UNL     1      -1.220   1.248   0.441  0.00  0.00    +0.000 A 
ATOM      4  C   UNL     1      -0.009   1.376  -0.243  0.00  0.00    +0.000 A 
ATOM      5  C   UNL     1       0.683   0.235  -0.631  0.00  0.00    +0.000 A 
ATOM      6  C   UNL     1       0.179  -1.028  -0.325  0.00  0.00    +0.000 A 
ATOM      7  C   UNL     1      -1.038  -1.167   0.338  0.00  0.00    +0.000 A 
ATOM      8  F   UNL     1       1.832   0.358  -1.309  0.00  0.00    +0.000 F 
ENDBRANCH   1   6
BRANCH   1   9
ATOM      9  C   UNL     1       2.018  -2.406  -0.055  0.00  0.00    +0.000 C 
ATOM     10  O   UNL     1       2.432  -1.796   0.920  0.00  0.00    +0.000 OA
BRANCH   9  11
ATOM     11  O   UNL     1       2.643  -3.468  -0.631  0.00  0.00    +0.000 OA
BRANCH  11  12
ATOM     12  C   UNL     1       3.916  -3.844  -0.064  0.00  0.00    +0.000 C 
BRANCH  12  13
ATOM     13  C   UNL     1       5.112  -3.365  -0.908  0.00  0.00    +0.000 C 
ATOM     14 CL   UNL     1       5.009  -4.029  -2.571  0.00  0.00    +0.000 Cl
ATOM     15 CL   UNL     1       5.191  -1.583  -1.005  0.00  0.00    +0.000 Cl
ATOM     16 CL   UNL     1       6.635  -3.960  -0.165  0.00  0.00    +0.000 Cl
ENDBRANCH  12  13
ENDBRANCH  11  12
ENDBRANCH   9  11
ENDBRANCH   1   9
TORSDOF 5
