MODEL 1
REMARK VINA RESULT:      -4.8      0.000      0.000
REMARK  Name = *****
REMARK  1 active torsions:
REMARK  status: ('A' for Active; 'I' for Inactive)
REMARK    1  A    between atoms: P_9  and  C_11
REMARK                            x       y       z     vdW  Elec       q    Type
REMARK                         _______ _______ _______ _____ _____    ______ ____
ROOT
ATOM      1  C   UNL     1      99.692 127.237  82.719  0.00  0.00    +0.000 C 
ATOM      2  C   UNL     1     100.169 128.523  83.371  0.00  0.00    +0.000 A 
ATOM      3  C   UNL     1      99.209 129.480  83.742  0.00  0.00    +0.000 A 
ATOM      4  C   UNL     1      99.590 130.658  84.385  0.00  0.00    +0.000 A 
ATOM      5  C   UNL     1     100.932 130.891  84.663  0.00  0.00    +0.000 A 
ATOM      6  C   UNL     1     101.896 129.949  84.301  0.00  0.00    +0.000 A 
ATOM      7  C   UNL     1     101.534 128.746  83.665  0.00  0.00    +0.000 A 
ATOM      8  C   UNL     1     102.647 127.817  83.229  0.00  0.00    +0.000 C 
ATOM      9  P   UNL     1     101.944 126.125  83.327  0.00  0.00    +0.000 P 
ATOM     10  O   UNL     1     100.730 126.359  82.276  0.00  0.00    +0.000 OA
ENDROOT
BRANCH   9  11
ATOM     11  C   UNL     1     103.136 125.215  82.286  0.00  0.00    +0.000 A 
ATOM     12  C   UNL     1     103.899 124.180  82.853  0.00  0.00    +0.000 A 
ATOM     13  C   UNL     1     104.815 123.458  82.083  0.00  0.00    +0.000 A 
ATOM     14  C   UNL     1     104.978 123.756  80.732  0.00  0.00    +0.000 A 
ATOM     15  C   UNL     1     104.222 124.771  80.152  0.00  0.00    +0.000 A 
ATOM     16  C   UNL     1     103.306 125.493  80.922  0.00  0.00    +0.000 A 
ENDBRANCH   9  11
TORSDOF 1
ENDMDL
