REMARK  Name = *****
REMARK  5 active torsions:
REMARK  status: ('A' for Active; 'I' for Inactive)
REMARK    1  A    between atoms: C_1  and  C_2
REMARK    2  A    between atoms: C_7  and  C_8
REMARK    3  A    between atoms: C_9  and  C_10
REMARK    4  A    between atoms: C_13  and  O_16
REMARK    5  A    between atoms: O_16  and  C_17
REMARK                            x       y       z     vdW  Elec       q    Type
REMARK                         _______ _______ _______ _____ _____    ______ ____
ROOT
ATOM      1  C   UNL     1       2.383  -2.591  -0.225  0.00  0.00    +0.000 C 
ATOM      2  C   UNL     1       1.814  -3.648  -0.280  0.00  0.00    +0.000 C 
ENDROOT
BRANCH   1   9
ATOM      3  C   UNL     1       0.849  -0.094   0.047  0.00  0.00    +0.000 C 
ATOM      4  C   UNL     1       2.351  -0.122  -0.027  0.00  0.00    +0.000 A 
ATOM      5  C   UNL     1       3.070   1.082   0.036  0.00  0.00    +0.000 A 
ATOM      6  C   UNL     1       4.464   1.085  -0.030  0.00  0.00    +0.000 A 
ATOM      7  C   UNL     1       5.159  -0.114  -0.158  0.00  0.00    +0.000 A 
ATOM      8  C   UNL     1       4.459  -1.319  -0.222  0.00  0.00    +0.000 A 
ATOM      9  C   UNL     1       3.060  -1.330  -0.157  0.00  0.00    +0.000 A 
ENDBRANCH   1   9
BRANCH   2  10
ATOM     10  C   UNL     1       1.133  -4.904  -0.344  0.00  0.00    +0.000 A 
ATOM     11  C   UNL     1       1.828  -6.091  -0.118  0.00  0.00    +0.000 A 
ATOM     12  C   UNL     1       1.155  -7.314  -0.180  0.00  0.00    +0.000 A 
ATOM     13  C   UNL     1      -0.212  -7.363  -0.466  0.00  0.00    +0.000 A 
ATOM     14  C   UNL     1      -0.904  -6.173  -0.694  0.00  0.00    +0.000 A 
ATOM     15  C   UNL     1      -0.233  -4.946  -0.633  0.00  0.00    +0.000 A 
BRANCH  13  16
ATOM     16  O   UNL     1      -0.745  -8.622  -0.495  0.00  0.00    +0.000 OA
ATOM     17  C   UNL     1      -2.138  -8.725  -0.760  0.00  0.00    +0.000 C 
ENDBRANCH  13  16
ENDBRANCH   2  10
TORSDOF 3
