MODEL 1
REMARK VINA RESULT:      -4.8      0.000      0.000
REMARK  Name = *****
REMARK  1 active torsions:
REMARK  status: ('A' for Active; 'I' for Inactive)
REMARK    1  A    between atoms: N_12  and  C_13
REMARK                            x       y       z     vdW  Elec       q    Type
REMARK                         _______ _______ _______ _____ _____    ______ ____
ROOT
ATOM      1  C   UNL     1     103.627 127.796  81.127  0.00  0.00    +0.000 C 
ATOM      2  C   UNL     1     103.458 126.744  81.941  0.00  0.00    +0.000 C 
ATOM      3  C   UNL     1     104.392 125.568  82.142  0.00  0.00    +0.000 C 
ATOM      4  C   UNL     1     105.893 125.884  82.271  0.00  0.00    +0.000 C 
ATOM      5  C   UNL     1     106.638 126.046  80.945  0.00  0.00    +0.000 C 
ATOM      6  C   UNL     1     106.330 124.924  79.959  0.00  0.00    +0.000 C 
ATOM      7  C   UNL     1     104.832 124.716  79.772  0.00  0.00    +0.000 C 
ATOM      8  C   UNL     1     104.145 124.453  81.107  0.00  0.00    +0.000 C 
ATOM      9  O   UNL     1     103.975 125.047  83.424  0.00  0.00    +0.000 OA
ATOM     10  C   UNL     1     102.766 125.591  83.769  0.00  0.00    +0.000 C 
ATOM     11  O   UNL     1     102.135 125.177  84.729  0.00  0.00    +0.000 OA
ATOM     12  N   UNL     1     102.438 126.603  82.868  0.00  0.00    +0.000 N 
ENDROOT
BRANCH  12  13
ATOM     13  C   UNL     1     101.183 127.284  82.919  0.00  0.00    +0.000 A 
ATOM     14  C   UNL     1     101.056 128.540  83.528  0.00  0.00    +0.000 A 
ATOM     15  C   UNL     1      99.818 129.188  83.594  0.00  0.00    +0.000 A 
ATOM     16  C   UNL     1      98.682 128.584  83.065  0.00  0.00    +0.000 A 
ATOM     17  C   UNL     1      98.783 127.330  82.472  0.00  0.00    +0.000 A 
ATOM     18  C   UNL     1     100.022 126.687  82.401  0.00  0.00    +0.000 A 
ENDBRANCH  12  13
TORSDOF 1
ENDMDL
