REMARK  Name = *****
REMARK  3 active torsions:
REMARK  status: ('A' for Active; 'I' for Inactive)
REMARK    1  A    between atoms: C_1  and  C_2
REMARK    2  A    between atoms: C_2  and  C_7
REMARK    3  A    between atoms: C_8  and  C_9
REMARK                            x       y       z     vdW  Elec       q    Type
REMARK                         _______ _______ _______ _____ _____    ______ ____
ROOT
ATOM      1  C   UNL     1       0.604   1.277   1.898  0.00  0.00    +0.000 C 
ATOM      2  C   UNL     1       0.139   2.407   2.463  0.00  0.00    +0.000 C 
ENDROOT
BRANCH   1   4
ATOM      3  C   UNL     1      -0.302   1.794  -0.465  0.00  0.00    +0.000 C 
ATOM      4  C   UNL     1       0.466   0.841   0.457  0.00  0.00    +0.000 C 
ATOM      5  S   UNL     1      -0.401  -0.782   0.445  0.00  0.00    +0.000 S 
ATOM      6  C   UNL     1       0.998  -1.789  -0.112  0.00  0.00    +0.000 C 
ATOM      7  C   UNL     1       1.839  -0.952  -1.052  0.00  0.00    +0.000 C 
ATOM      8  S   UNL     1       2.158   0.620  -0.220  0.00  0.00    +0.000 S 
ENDBRANCH   1   4
BRANCH   2   9
ATOM      9  C   UNL     1       0.331   2.752   3.921  0.00  0.00    +0.000 C 
ATOM     10  C   UNL     1      -1.030   2.889   4.621  0.00  0.00    +0.000 C 
ATOM     11  C   UNL     1      -0.870   3.301   6.083  0.00  0.00    +0.000 C 
ATOM     12  C   UNL     1      -0.047   4.579   6.220  0.00  0.00    +0.000 C 
ATOM     13  C   UNL     1       1.304   4.456   5.523  0.00  0.00    +0.000 C 
ATOM     14  C   UNL     1       1.148   4.045   4.060  0.00  0.00    +0.000 C 
ENDBRANCH   2   9
TORSDOF 2
