MODEL 1
REMARK VINA RESULT:      -4.6      0.000      0.000
REMARK  Name = *****
REMARK  3 active torsions:
REMARK  status: ('A' for Active; 'I' for Inactive)
REMARK    1  A    between atoms: N_6  and  O_7
REMARK    2  A    between atoms: O_7  and  C_8
REMARK    3  A    between atoms: C_8  and  C_9
REMARK                            x       y       z     vdW  Elec       q    Type
REMARK                         _______ _______ _______ _____ _____    ______ ____
ROOT
ATOM      1  C   UNL     1      88.405  64.248  85.834  0.00  0.00    +0.000 A 
ATOM      2  C   UNL     1      89.358  63.398  85.265  0.00  0.00    +0.000 A 
ATOM      3  C   UNL     1      90.671  63.818  85.075  0.00  0.00    +0.000 A 
ATOM      4  C   UNL     1      91.054  65.096  85.458  0.00  0.00    +0.000 A 
ATOM      5  C   UNL     1      90.125  65.952  86.032  0.00  0.00    +0.000 A 
ATOM      6  C   UNL     1      88.811  65.528  86.220  0.00  0.00    +0.000 A 
ATOM      7  F   UNL     1      87.926  66.365  86.778  0.00  0.00    +0.000 F 
ATOM      8  F   UNL     1      90.490  67.185  86.406  0.00  0.00    +0.000 F 
ATOM      9  F   UNL     1      92.318  65.502  85.275  0.00  0.00    +0.000 F 
ATOM     10  F   UNL     1      91.566  62.988  84.521  0.00  0.00    +0.000 F 
ATOM     11  F   UNL     1      89.004  62.160  84.892  0.00  0.00    +0.000 F 
ENDROOT
BRANCH   1  12
ATOM     12  C   UNL     1      87.003  63.781  86.076  0.00  0.00    +0.000 C 
BRANCH  12  13
ATOM     13  O   UNL     1      86.995  63.017  87.281  0.00  0.00    +0.000 OA
BRANCH  13  19
ATOM     14  C   UNL     1      87.103  64.338  91.779  0.00  0.00    +0.000 C 
ATOM     15  C   UNL     1      88.629  64.370  91.797  0.00  0.00    +0.000 C 
ATOM     16  C   UNL     1      89.225  63.758  90.565  0.00  0.00    +0.000 C 
ATOM     17  C   UNL     1      88.553  63.546  89.425  0.00  0.00    +0.000 C 
ATOM     18  C   UNL     1      87.131  63.985  89.297  0.00  0.00    +0.000 C 
ATOM     19  N   UNL     1      86.355  63.767  88.280  0.00  0.00    +0.000 NA
ATOM     20  C   UNL     1      86.556  64.807  90.440  0.00  0.00    +0.000 C 
ENDBRANCH  13  19
ENDBRANCH  12  13
ENDBRANCH   1  12
TORSDOF 3
ENDMDL
