MODEL 1
REMARK VINA RESULT:      -4.9      0.000      0.000
REMARK  Name = *****
REMARK  4 active torsions:
REMARK  status: ('A' for Active; 'I' for Inactive)
REMARK    1  A    between atoms: C_1  and  C_2
REMARK    2  A    between atoms: C_7  and  C_8
REMARK    3  A    between atoms: C_8  and  C_9
REMARK    4  A    between atoms: C_10  and  C_11
REMARK                            x       y       z     vdW  Elec       q    Type
REMARK                         _______ _______ _______ _____ _____    ______ ____
ROOT
ATOM      1  C   UNL     1      89.273  70.316  87.110  0.00  0.00    +0.000 C 
ENDROOT
BRANCH   1   8
ATOM      2  C   UNL     1      88.013  70.855  89.808  0.00  0.00    +0.000 C 
ATOM      3  C   UNL     1      87.277  71.106  88.520  0.00  0.00    +0.000 A 
ATOM      4  C   UNL     1      85.967  71.611  88.576  0.00  0.00    +0.000 A 
ATOM      5  C   UNL     1      85.244  71.860  87.410  0.00  0.00    +0.000 A 
ATOM      6  C   UNL     1      85.819  71.609  86.169  0.00  0.00    +0.000 A 
ATOM      7  C   UNL     1      87.120  71.113  86.097  0.00  0.00    +0.000 A 
ATOM      8  C   UNL     1      87.870  70.866  87.262  0.00  0.00    +0.000 A 
ENDBRANCH   1   8
BRANCH   1   9
ATOM      9  C   UNL     1      89.289  68.813  87.048  0.00  0.00    +0.000 C 
ATOM     10  C   UNL     1      90.036  68.110  86.182  0.00  0.00    +0.000 C 
BRANCH  10  11
ATOM     11  C   UNL     1      90.053  66.642  86.115  0.00  0.00    +0.000 A 
ATOM     12  C   UNL     1      89.052  65.858  86.706  0.00  0.00    +0.000 A 
ATOM     13  C   UNL     1      89.080  64.466  86.592  0.00  0.00    +0.000 A 
ATOM     14  C   UNL     1      90.103  63.844  85.879  0.00  0.00    +0.000 A 
ATOM     15  C   UNL     1      91.094  64.613  85.274  0.00  0.00    +0.000 A 
ATOM     16  C   UNL     1      91.065  66.006  85.387  0.00  0.00    +0.000 A 
ENDBRANCH  10  11
ENDBRANCH   1   9
TORSDOF 3
ENDMDL
