MODEL 1
REMARK VINA RESULT:      -4.4      0.000      0.000
REMARK  Name = *****
REMARK  5 active torsions:
REMARK  status: ('A' for Active; 'I' for Inactive)
REMARK    1  A    between atoms: C_4  and  C_7
REMARK    2  A    between atoms: C_7  and  C_8
REMARK    3  A    between atoms: C_7  and  S_16
REMARK    4  A    between atoms: C_8  and  C_10
REMARK    5  A    between atoms: S_16  and  C_17
REMARK                            x       y       z     vdW  Elec       q    Type
REMARK                         _______ _______ _______ _____ _____    ______ ____
ROOT
ATOM      1  C   UNL     1      88.480  69.842  86.060  0.00  0.00    +0.000 C 
ENDROOT
BRANCH   1   5
ATOM      2  C   UNL     1      89.175  65.648  86.893  0.00  0.00    +0.000 A 
ATOM      3  C   UNL     1      90.143  66.406  86.239  0.00  0.00    +0.000 A 
ATOM      4  C   UNL     1      89.914  67.757  85.975  0.00  0.00    +0.000 A 
ATOM      5  C   UNL     1      88.705  68.367  86.354  0.00  0.00    +0.000 A 
ATOM      6  C   UNL     1      87.745  67.593  87.027  0.00  0.00    +0.000 A 
ATOM      7  C   UNL     1      87.979  66.242  87.290  0.00  0.00    +0.000 A 
ENDBRANCH   1   5
BRANCH   1   8
ATOM      8  C   UNL     1      88.024  70.636  87.293  0.00  0.00    +0.000 C 
ATOM      9  O   UNL     1      88.729  70.786  88.292  0.00  0.00    +0.000 OA
BRANCH   8  10
ATOM     10  C   UNL     1      86.670  71.268  87.283  0.00  0.00    +0.000 A 
ATOM     11  C   UNL     1      85.994  71.596  86.102  0.00  0.00    +0.000 A 
ATOM     12  C   UNL     1      84.731  72.194  86.159  0.00  0.00    +0.000 A 
ATOM     13  C   UNL     1      84.137  72.463  87.391  0.00  0.00    +0.000 A 
ATOM     14  C   UNL     1      84.800  72.131  88.571  0.00  0.00    +0.000 A 
ATOM     15  C   UNL     1      86.060  71.533  88.518  0.00  0.00    +0.000 A 
ENDBRANCH   8  10
ENDBRANCH   1   8
BRANCH   1  16
ATOM     16  S   UNL     1      90.011  70.575  85.352  0.00  0.00    +0.000 S 
BRANCH  16  17
ATOM     17  C   UNL     1      89.274  71.824  84.490  0.00  0.00    +0.000 C 
ATOM     18  N   UNL     1      88.742  72.698  83.944  0.00  0.00    +0.000 NA
ENDBRANCH  16  17
ENDBRANCH   1  16
TORSDOF 5
ENDMDL
