MODEL 1
REMARK VINA RESULT:      -4.7      0.000      0.000
REMARK  Name = *****
REMARK  3 active torsions:
REMARK  status: ('A' for Active; 'I' for Inactive)
REMARK    1  A    between atoms: C_4  and  C_7
REMARK    2  A    between atoms: C_8  and  C_9
REMARK    3  A    between atoms: C_12  and  C_15
REMARK                            x       y       z     vdW  Elec       q    Type
REMARK                         _______ _______ _______ _____ _____    ______ ____
ROOT
ATOM      1  C   UNL     1     101.969 126.140  82.373  0.00  0.00    +0.000 C 
ATOM      2  C   UNL     1     102.842 125.358  82.110  0.00  0.00    +0.000 C 
ENDROOT
BRANCH   1   6
ATOM      3  C   UNL     1      98.898 128.888  83.298  0.00  0.00    +0.000 A 
ATOM      4  C   UNL     1     100.221 129.185  83.627  0.00  0.00    +0.000 A 
ATOM      5  C   UNL     1     101.236 128.277  83.322  0.00  0.00    +0.000 A 
ATOM      6  C   UNL     1     100.928 127.070  82.688  0.00  0.00    +0.000 A 
ATOM      7  C   UNL     1      99.603 126.776  82.360  0.00  0.00    +0.000 A 
ATOM      8  C   UNL     1      98.589 127.685  82.665  0.00  0.00    +0.000 A 
ENDBRANCH   1   6
BRANCH   2   9
ATOM      9  C   UNL     1     103.881 124.426  81.801  0.00  0.00    +0.000 A 
ATOM     10  C   UNL     1     104.420 123.620  82.807  0.00  0.00    +0.000 A 
ATOM     11  C   UNL     1     105.438 122.710  82.505  0.00  0.00    +0.000 A 
ATOM     12  C   UNL     1     105.920 122.604  81.196  0.00  0.00    +0.000 A 
ATOM     13  C   UNL     1     105.378 123.412  80.190  0.00  0.00    +0.000 A 
ATOM     14  C   UNL     1     104.360 124.322  80.493  0.00  0.00    +0.000 A 
BRANCH  12  15
ATOM     15  C   UNL     1     106.965 121.673  80.886  0.00  0.00    +0.000 C 
ATOM     16  N   UNL     1     107.810 120.918  80.636  0.00  0.00    +0.000 NA
ENDBRANCH  12  15
ENDBRANCH   2   9
TORSDOF 3
ENDMDL
