MODEL 1
REMARK VINA RESULT:      -4.6      0.000      0.000
REMARK  Name = *****
REMARK  4 active torsions:
REMARK  status: ('A' for Active; 'I' for Inactive)
REMARK    1  A    between atoms: C_4  and  C_7
REMARK    2  A    between atoms: C_8  and  C_9
REMARK    3  A    between atoms: C_12  and  C_15
REMARK    4  A    between atoms: C_15  and  C_16
REMARK                            x       y       z     vdW  Elec       q    Type
REMARK                         _______ _______ _______ _____ _____    ______ ____
ROOT
ATOM      1  C   UNL     1     103.897 124.446  81.759  0.00  0.00    +0.000 A 
ATOM      2  C   UNL     1     104.399 124.353  80.459  0.00  0.00    +0.000 A 
ATOM      3  C   UNL     1     105.411 123.437  80.161  0.00  0.00    +0.000 A 
ATOM      4  C   UNL     1     105.928 122.600  81.160  0.00  0.00    +0.000 A 
ATOM      5  C   UNL     1     105.429 122.711  82.467  0.00  0.00    +0.000 A 
ATOM      6  C   UNL     1     104.416 123.628  82.763  0.00  0.00    +0.000 A 
ENDROOT
BRANCH   1   8
ATOM      7  C   UNL     1     101.975 126.152  82.325  0.00  0.00    +0.000 C 
ATOM      8  C   UNL     1     102.847 125.372  82.053  0.00  0.00    +0.000 C 
BRANCH   7  12
ATOM      9  C   UNL     1      98.944 128.911  83.346  0.00  0.00    +0.000 A 
ATOM     10  C   UNL     1      98.613 127.722  82.694  0.00  0.00    +0.000 A 
ATOM     11  C   UNL     1      99.613 126.807  82.358  0.00  0.00    +0.000 A 
ATOM     12  C   UNL     1     100.946 127.081  82.676  0.00  0.00    +0.000 A 
ATOM     13  C   UNL     1     101.275 128.271  83.331  0.00  0.00    +0.000 A 
ATOM     14  C   UNL     1     100.273 129.185  83.665  0.00  0.00    +0.000 A 
ENDBRANCH   7  12
ENDBRANCH   1   8
BRANCH   4  15
ATOM     15  C   UNL     1     107.026 121.612  80.838  0.00  0.00    +0.000 C 
BRANCH  15  16
ATOM     16  C   UNL     1     106.812 120.299  81.464  0.00  0.00    +0.000 C 
ATOM     17  N   UNL     1     106.623 119.256  81.939  0.00  0.00    +0.000 NA
ENDBRANCH  15  16
ENDBRANCH   4  15
TORSDOF 4
ENDMDL
