REMARK  Name = *****
REMARK  3 active torsions:
REMARK  status: ('A' for Active; 'I' for Inactive)
REMARK    1  A    between atoms: C_4  and  C_7
REMARK    2  A    between atoms: C_7  and  O_8
REMARK    3  A    between atoms: O_8  and  C_9
REMARK                            x       y       z     vdW  Elec       q    Type
REMARK                         _______ _______ _______ _____ _____    ______ ____
ROOT
ATOM      1  O   UNL     1      -3.586  -0.745  -0.081  0.00  0.00    +0.000 OA
ENDROOT
BRANCH   1   2
ATOM      2  C   UNL     1      -4.943  -0.701  -0.242  0.00  0.00    +0.000 A 
ATOM      3  C   UNL     1      -5.705   0.440  -0.496  0.00  0.00    +0.000 A 
ATOM      4  C   UNL     1      -7.094   0.339  -0.639  0.00  0.00    +0.000 A 
ATOM      5  C   UNL     1      -7.718  -0.902  -0.526  0.00  0.00    +0.000 A 
ATOM      6  C   UNL     1      -6.967  -2.045  -0.271  0.00  0.00    +0.000 A 
ATOM      7  C   UNL     1      -5.581  -1.940  -0.129  0.00  0.00    +0.000 A 
ATOM      8 CL   UNL     1      -9.425  -1.020  -0.703  0.00  0.00    +0.000 Cl
ENDBRANCH   1   2
BRANCH   1   9
ATOM      9  C   UNL     1      -2.870   0.481  -0.233  0.00  0.00    +0.000 C 
BRANCH   9  13
ATOM     10  C   UNL     1       1.384  -0.187   0.118  0.00  0.00    +0.000 A 
ATOM     11  C   UNL     1       0.596  -1.085  -0.599  0.00  0.00    +0.000 A 
ATOM     12  C   UNL     1      -0.781  -0.877  -0.705  0.00  0.00    +0.000 A 
ATOM     13  C   UNL     1      -1.387   0.227  -0.087  0.00  0.00    +0.000 A 
ATOM     14  C   UNL     1      -0.580   1.130   0.621  0.00  0.00    +0.000 A 
ATOM     15  C   UNL     1       0.797   0.921   0.726  0.00  0.00    +0.000 A 
ENDBRANCH   9  13
ENDBRANCH   1   9
TORSDOF 3
