MODEL 1
REMARK VINA RESULT:      -3.9      0.000      0.000
REMARK  Name = *****
REMARK  4 active torsions:
REMARK  status: ('A' for Active; 'I' for Inactive)
REMARK    1  A    between atoms: C_1  and  O_2
REMARK    2  A    between atoms: O_2  and  C_3
REMARK    3  A    between atoms: C_8  and  C_9
REMARK    4  A    between atoms: C_10  and  C_11
REMARK                            x       y       z     vdW  Elec       q    Type
REMARK                         _______ _______ _______ _____ _____    ______ ____
ROOT
ATOM      1  C   UNL     1     104.001 123.905  82.599  0.00  0.00    +0.000 A 
ATOM      2  C   UNL     1     104.743 123.440  81.507  0.00  0.00    +0.000 A 
ATOM      3  C   UNL     1     104.732 124.130  80.294  0.00  0.00    +0.000 A 
ATOM      4  C   UNL     1     103.973 125.289  80.156  0.00  0.00    +0.000 A 
ATOM      5  C   UNL     1     103.228 125.763  81.235  0.00  0.00    +0.000 A 
ATOM      6  C   UNL     1     103.242 125.089  82.467  0.00  0.00    +0.000 A 
ENDROOT
BRANCH   1   8
ATOM      7  C   UNL     1     104.514 121.983  83.923  0.00  0.00    +0.000 C 
ATOM      8  O   UNL     1     103.951 123.284  83.823  0.00  0.00    +0.000 OA
ENDBRANCH   1   8
BRANCH   6   9
ATOM      9  C   UNL     1     102.425 125.587  83.589  0.00  0.00    +0.000 C 
ATOM     10  C   UNL     1     101.250 126.223  83.435  0.00  0.00    +0.000 C 
BRANCH  10  11
ATOM     11  C   UNL     1     100.429 126.740  84.580  0.00  0.00    +0.000 C 
ATOM     12  S   UNL     1     101.136 128.248  85.288  0.00  0.00    +0.000 S 
ATOM     13  C   UNL     1     100.841 129.430  83.945  0.00  0.00    +0.000 C 
ATOM     14  C   UNL     1      99.369 129.568  83.588  0.00  0.00    +0.000 C 
ATOM     15  C   UNL     1      98.767 128.315  82.970  0.00  0.00    +0.000 C 
ATOM     16  S   UNL     1      98.684 126.915  84.121  0.00  0.00    +0.000 S 
ENDBRANCH  10  11
ENDBRANCH   6   9
TORSDOF 3
ENDMDL
