MODEL 1
REMARK VINA RESULT:      -4.8      0.000      0.000
REMARK  Name = *****
REMARK  5 active torsions:
REMARK  status: ('A' for Active; 'I' for Inactive)
REMARK    1  A    between atoms: C_1  and  C_2
REMARK    2  A    between atoms: C_3  and  N_9
REMARK    3  A    between atoms: C_4  and  C_8
REMARK    4  A    between atoms: C_10  and  C_11
REMARK    5  A    between atoms: C_11  and  C_12
REMARK                            x       y       z     vdW  Elec       q    Type
REMARK                         _______ _______ _______ _____ _____    ______ ____
ROOT
ATOM      1  N   UNL     1      88.645  70.466  86.722  0.00  0.00    +0.000 NA
ATOM      2  C   UNL     1      88.691  69.175  86.629  0.00  0.00    +0.000 C 
ENDROOT
BRANCH   1   5
ATOM      3  C   UNL     1      87.998  70.654  89.540  0.00  0.00    +0.000 C 
ATOM      4  C   UNL     1      87.053  71.112  88.463  0.00  0.00    +0.000 A 
ATOM      5  C   UNL     1      87.399  71.002  87.099  0.00  0.00    +0.000 A 
ATOM      6  C   UNL     1      86.505  71.464  86.112  0.00  0.00    +0.000 A 
ATOM      7  C   UNL     1      85.259  71.981  86.493  0.00  0.00    +0.000 A 
ATOM      8  C   UNL     1      84.907  72.058  87.839  0.00  0.00    +0.000 A 
ATOM      9  C   UNL     1      85.799  71.629  88.818  0.00  0.00    +0.000 A 
ATOM     10  C   UNL     1      86.867  71.393  84.654  0.00  0.00    +0.000 C 
ENDBRANCH   1   5
BRANCH   2  11
ATOM     11  C   UNL     1      89.968  68.472  86.258  0.00  0.00    +0.000 C 
BRANCH  11  12
ATOM     12  C   UNL     1      89.794  66.975  86.289  0.00  0.00    +0.000 A 
ATOM     13  C   UNL     1      90.659  66.135  85.576  0.00  0.00    +0.000 A 
ATOM     14  C   UNL     1      90.473  64.751  85.594  0.00  0.00    +0.000 A 
ATOM     15  C   UNL     1      89.421  64.197  86.322  0.00  0.00    +0.000 A 
ATOM     16  C   UNL     1      88.552  65.024  87.029  0.00  0.00    +0.000 A 
ATOM     17  C   UNL     1      88.735  66.407  87.013  0.00  0.00    +0.000 A 
ENDBRANCH  11  12
ENDBRANCH   2  11
TORSDOF 3
ENDMDL
