MODEL 1
REMARK VINA RESULT:      -4.5      0.000      0.000
REMARK  Name = *****
REMARK  4 active torsions:
REMARK  status: ('A' for Active; 'I' for Inactive)
REMARK    1  A    between atoms: C_1  and  C_2
REMARK    2  A    between atoms: C_5  and  S_8
REMARK    3  A    between atoms: S_8  and  S_9
REMARK    4  A    between atoms: S_9  and  C_12
REMARK                            x       y       z     vdW  Elec       q    Type
REMARK                         _______ _______ _______ _____ _____    ______ ____
ROOT
ATOM      1  S   UNL     1      89.727  67.420  85.443  0.00  0.00    +0.000 S 
ATOM      2  O   UNL     1      90.665  67.015  86.472  0.00  0.00    +0.000 OA
ATOM      3  O   UNL     1      90.177  67.831  84.128  0.00  0.00    +0.000 OA
ENDROOT
BRANCH   1   4
ATOM      4  C   UNL     1      88.755  68.756  86.111  0.00  0.00    +0.000 A 
ATOM      5  C   UNL     1      87.543  69.101  85.499  0.00  0.00    +0.000 A 
ATOM      6  C   UNL     1      86.775  70.134  86.037  0.00  0.00    +0.000 A 
ATOM      7  C   UNL     1      87.218  70.800  87.177  0.00  0.00    +0.000 A 
ATOM      8  C   UNL     1      88.415  70.449  87.796  0.00  0.00    +0.000 A 
ATOM      9  C   UNL     1      89.190  69.417  87.266  0.00  0.00    +0.000 A 
ATOM     10  F   UNL     1      86.477  71.790  87.690  0.00  0.00    +0.000 F 
ENDBRANCH   1   4
BRANCH   1  11
ATOM     11  S   UNL     1      88.308  65.899  85.211  0.00  0.00    +0.000 S 
BRANCH  11  16
ATOM     12  C   UNL     1      87.415  64.096  90.961  0.00  0.00    +0.000 C 
ATOM     13  C   UNL     1      87.652  64.562  89.555  0.00  0.00    +0.000 A 
ATOM     14  C   UNL     1      86.949  65.657  89.042  0.00  0.00    +0.000 A 
ATOM     15  C   UNL     1      87.150  66.072  87.722  0.00  0.00    +0.000 A 
ATOM     16  C   UNL     1      88.055  65.396  86.899  0.00  0.00    +0.000 A 
ATOM     17  C   UNL     1      88.741  64.287  87.403  0.00  0.00    +0.000 A 
ATOM     18  C   UNL     1      88.538  63.872  88.722  0.00  0.00    +0.000 A 
ENDBRANCH  11  16
ENDBRANCH   1  11
TORSDOF 3
ENDMDL
