MODEL 1
REMARK VINA RESULT:      -4.5      0.000      0.000
REMARK  Name = *****
REMARK  4 active torsions:
REMARK  status: ('A' for Active; 'I' for Inactive)
REMARK    1  A    between atoms: C_1  and  N_2
REMARK    2  A    between atoms: N_2  and  C_3
REMARK    3  A    between atoms: N_2  and  C_9
REMARK    4  A    between atoms: C_9  and  C_11
REMARK                            x       y       z     vdW  Elec       q    Type
REMARK                         _______ _______ _______ _____ _____    ______ ____
ROOT
ATOM      1  C   UNL     1      88.529  70.846  89.124  0.00  0.00    +0.000 C 
ATOM      2  N   UNL     1      87.991  70.620  87.774  0.00  0.00    +0.000 N 
ENDROOT
BRANCH   2   3
ATOM      3  C   UNL     1      86.703  71.208  87.513  0.00  0.00    +0.000 A 
ATOM      4  C   UNL     1      86.293  71.481  86.199  0.00  0.00    +0.000 A 
ATOM      5  C   UNL     1      85.059  72.086  85.942  0.00  0.00    +0.000 A 
ATOM      6  C   UNL     1      84.223  72.442  86.996  0.00  0.00    +0.000 A 
ATOM      7  C   UNL     1      84.624  72.197  88.307  0.00  0.00    +0.000 A 
ATOM      8  C   UNL     1      85.857  71.590  88.561  0.00  0.00    +0.000 A 
ENDBRANCH   2   3
BRANCH   2   9
ATOM      9  C   UNL     1      88.783  69.998  86.774  0.00  0.00    +0.000 C 
ATOM     10  S   UNL     1      89.722  70.771  85.595  0.00  0.00    +0.000 S 
BRANCH   9  11
ATOM     11  C   UNL     1      88.852  68.511  86.821  0.00  0.00    +0.000 A 
ATOM     12  C   UNL     1      87.798  67.799  87.405  0.00  0.00    +0.000 A 
ATOM     13  C   UNL     1      87.863  66.406  87.462  0.00  0.00    +0.000 A 
ATOM     14  C   UNL     1      88.971  65.736  86.938  0.00  0.00    +0.000 A 
ATOM     15  C   UNL     1      90.017  66.451  86.354  0.00  0.00    +0.000 A 
ATOM     16  C   UNL     1      89.962  67.843  86.292  0.00  0.00    +0.000 A 
ENDBRANCH   9  11
ENDBRANCH   2   9
TORSDOF 3
ENDMDL
