MODEL 1
REMARK VINA RESULT:      -4.4      0.000      0.000
REMARK  Name = *****
REMARK  3 active torsions:
REMARK  status: ('A' for Active; 'I' for Inactive)
REMARK    1  A    between atoms: C_4  and  C_7
REMARK    2  A    between atoms: C_7  and  O_8
REMARK    3  A    between atoms: O_8  and  C_9
REMARK                            x       y       z     vdW  Elec       q    Type
REMARK                         _______ _______ _______ _____ _____    ______ ____
ROOT
ATOM      1  O   UNL     1     102.566 126.947  83.224  0.00  0.00    +0.000 OA
ENDROOT
BRANCH   1   2
ATOM      2  C   UNL     1     101.325 127.517  83.169  0.00  0.00    +0.000 A 
ATOM      3  C   UNL     1     100.978 128.784  83.635  0.00  0.00    +0.000 A 
ATOM      4  C   UNL     1      99.661 129.232  83.509  0.00  0.00    +0.000 A 
ATOM      5  C   UNL     1      98.685 128.429  82.921  0.00  0.00    +0.000 A 
ATOM      6  C   UNL     1      99.028 127.163  82.455  0.00  0.00    +0.000 A 
ATOM      7  C   UNL     1     100.343 126.711  82.580  0.00  0.00    +0.000 A 
ATOM      8 CL   UNL     1      99.236 130.799  84.087  0.00  0.00    +0.000 Cl
ENDBRANCH   1   2
BRANCH   1   9
ATOM      9  C   UNL     1     102.631 125.546  83.497  0.00  0.00    +0.000 C 
BRANCH   9  13
ATOM     10  C   UNL     1     104.969 123.564  80.455  0.00  0.00    +0.000 A 
ATOM     11  C   UNL     1     104.936 123.052  81.750  0.00  0.00    +0.000 A 
ATOM     12  C   UNL     1     104.189 123.697  82.737  0.00  0.00    +0.000 A 
ATOM     13  C   UNL     1     103.473 124.867  82.442  0.00  0.00    +0.000 A 
ATOM     14  C   UNL     1     103.505 125.366  81.131  0.00  0.00    +0.000 A 
ATOM     15  C   UNL     1     104.253 124.719  80.144  0.00  0.00    +0.000 A 
ENDBRANCH   9  13
ENDBRANCH   1   9
TORSDOF 3
ENDMDL
