REMARK  Name = *****
REMARK  4 active torsions:
REMARK  status: ('A' for Active; 'I' for Inactive)
REMARK    1  A    between atoms: C_1  and  C_2
REMARK    2  A    between atoms: C_5  and  O_8
REMARK    3  A    between atoms: O_8  and  C_9
REMARK    4  A    between atoms: C_9  and  C_11
REMARK                            x       y       z     vdW  Elec       q    Type
REMARK                         _______ _______ _______ _____ _____    ______ ____
ROOT
ATOM      1  O   UNL     1       3.688  -0.585  -3.725  0.00  0.00    +0.000 OA
ENDROOT
BRANCH   1   6
ATOM      2  C   UNL     1       0.967   0.057   0.143  0.00  0.00    +0.000 C 
ATOM      3  C   UNL     1       2.495   0.055   0.215  0.00  0.00    +0.000 C 
ATOM      4  C   UNL     1       3.097   1.276  -0.506  0.00  0.00    +0.000 C 
ATOM      5  C   UNL     1       3.174   1.070  -2.018  0.00  0.00    +0.000 C 
ATOM      6  C   UNL     1       4.016  -0.162  -2.378  0.00  0.00    +0.000 C 
ATOM      7  C   UNL     1       3.717  -1.335  -1.483  0.00  0.00    +0.000 C 
ATOM      8  C   UNL     1       3.030  -1.244  -0.333  0.00  0.00    +0.000 C 
ENDBRANCH   1   6
BRANCH   1   9
ATOM      9  C   UNL     1       4.240  -0.081  -4.860  0.00  0.00    +0.000 C 
ATOM     10  S   UNL     1       5.479   1.032  -4.885  0.00  0.00    +0.000 S 
BRANCH   9  11
ATOM     11  C   UNL     1       3.584  -0.718  -6.035  0.00  0.00    +0.000 A 
ATOM     12  C   UNL     1       2.242  -1.122  -5.956  0.00  0.00    +0.000 A 
ATOM     13  C   UNL     1       1.614  -1.715  -7.055  0.00  0.00    +0.000 A 
ATOM     14  C   UNL     1       2.319  -1.908  -8.241  0.00  0.00    +0.000 A 
ATOM     15  C   UNL     1       3.652  -1.510  -8.332  0.00  0.00    +0.000 A 
ATOM     16  C   UNL     1       4.284  -0.917  -7.235  0.00  0.00    +0.000 A 
ENDBRANCH   9  11
ENDBRANCH   1   9
TORSDOF 3
