REMARK  Name = *****
REMARK  4 active torsions:
REMARK  status: ('A' for Active; 'I' for Inactive)
REMARK    1  A    between atoms: C_6  and  C_8
REMARK    2  A    between atoms: C_8  and  O_10
REMARK    3  A    between atoms: O_10  and  C_11
REMARK    4  A    between atoms: C_11  and  C_12
REMARK                            x       y       z     vdW  Elec       q    Type
REMARK                         _______ _______ _______ _____ _____    ______ ____
ROOT
ATOM      1  C   UNL     1       1.324  -1.470  -2.079  0.00  0.00    +0.000 C 
ATOM      2  O   UNL     1       1.672  -0.872  -3.088  0.00  0.00    +0.000 OA
ENDROOT
BRANCH   1   8
ATOM      3  C   UNL     1      -1.231  -0.768  -0.599  0.00  0.00    +0.000 C 
ATOM      4  C   UNL     1      -1.159   0.764  -0.549  0.00  0.00    +0.000 C 
ATOM      5  C   UNL     1       0.133   1.020   0.242  0.00  0.00    +0.000 C 
ATOM      6  C   UNL     1       0.126  -0.135   1.241  0.00  0.00    +0.000 C 
ATOM      7  C   UNL     1       0.045  -1.202   0.147  0.00  0.00    +0.000 C 
ATOM      8  C   UNL     1       1.309  -0.876  -0.684  0.00  0.00    +0.000 C 
ATOM      9  C   UNL     1       1.337   0.667  -0.651  0.00  0.00    +0.000 C 
ENDBRANCH   1   8
BRANCH   1  10
ATOM     10  O   UNL     1       0.959  -2.780  -2.029  0.00  0.00    +0.000 OA
BRANCH  10  11
ATOM     11  C   UNL     1       1.001  -3.487  -3.273  0.00  0.00    +0.000 C 
BRANCH  11  12
ATOM     12  C   UNL     1       2.297  -4.247  -3.375  0.00  0.00    +0.000 A 
ATOM     13  C   UNL     1       2.494  -5.419  -2.631  0.00  0.00    +0.000 A 
ATOM     14  C   UNL     1       3.701  -6.115  -2.713  0.00  0.00    +0.000 A 
ATOM     15  C   UNL     1       4.723  -5.644  -3.535  0.00  0.00    +0.000 A 
ATOM     16  C   UNL     1       4.543  -4.473  -4.269  0.00  0.00    +0.000 A 
ATOM     17  C   UNL     1       3.337  -3.774  -4.187  0.00  0.00    +0.000 A 
ENDBRANCH  11  12
ENDBRANCH  10  11
ENDBRANCH   1  10
TORSDOF 4
