MODEL 1
REMARK VINA RESULT:      -4.9      0.000      0.000
REMARK  Name = *****
REMARK  3 active torsions:
REMARK  status: ('A' for Active; 'I' for Inactive)
REMARK    1  A    between atoms: C_1  and  C_2
REMARK    2  A    between atoms: C_3  and  C_17
REMARK    3  A    between atoms: C_9  and  C_11
REMARK                            x       y       z     vdW  Elec       q    Type
REMARK                         _______ _______ _______ _____ _____    ______ ____
ROOT
ATOM      1  C   UNL     1     106.120 122.207  80.927  0.00  0.00    +0.000 C 
ATOM      2  C   UNL     1     105.315 123.479  80.827  0.00  0.00    +0.000 C 
ATOM      3  C   UNL     1     105.421 124.391  79.815  0.00  0.00    +0.000 C 
ATOM      4  C   UNL     1     104.553 125.663  79.751  0.00  0.00    +0.000 C 
ATOM      5  C   UNL     1     103.639 125.750  80.897  0.00  0.00    +0.000 A 
ATOM      6  C   UNL     1     103.519 124.858  81.923  0.00  0.00    +0.000 A 
ATOM      7  C   UNL     1     104.333 123.624  82.015  0.00  0.00    +0.000 C 
ATOM      8  N   UNL     1     102.563 125.286  82.801  0.00  0.00    +0.000 NA
ATOM      9  C   UNL     1     102.140 126.426  82.269  0.00  0.00    +0.000 A 
ATOM     10  O   UNL     1     102.769 126.771  81.086  0.00  0.00    +0.000 OA
ATOM     11  C   UNL     1     106.380 124.299  78.656  0.00  0.00    +0.000 C 
ENDROOT
BRANCH   9  12
ATOM     12  C   UNL     1     101.118 127.348  82.760  0.00  0.00    +0.000 A 
ATOM     13  C   UNL     1      99.764 127.079  82.505  0.00  0.00    +0.000 A 
ATOM     14  C   UNL     1      98.763 127.941  82.961  0.00  0.00    +0.000 A 
ATOM     15  C   UNL     1      99.103 129.084  83.680  0.00  0.00    +0.000 A 
ATOM     16  C   UNL     1     100.443 129.366  83.944  0.00  0.00    +0.000 A 
ATOM     17  C   UNL     1     101.443 128.504  83.486  0.00  0.00    +0.000 A 
ENDBRANCH   9  12
TORSDOF 1
ENDMDL
