REMARK  Name = *****
REMARK  1 active torsions:
REMARK  status: ('A' for Active; 'I' for Inactive)
REMARK    1  A    between atoms: C_3  and  C_11
REMARK                            x       y       z     vdW  Elec       q    Type
REMARK                         _______ _______ _______ _____ _____    ______ ____
ROOT
ATOM      1  C   UNL     1       1.471  -0.563   0.605  0.00  0.00    +0.000 C 
ATOM      2  C   UNL     1       2.802  -1.221   0.833  0.00  0.00    +0.000 C 
ATOM      3  C   UNL     1       2.724   0.093   0.049  0.00  0.00    +0.000 C 
ATOM      4  C   UNL     1       3.429   1.195   0.862  0.00  0.00    +0.000 C 
ATOM      5  C   UNL     1       3.969   0.463   2.071  0.00  0.00    +0.000 A 
ATOM      6  C   UNL     1       4.720   1.002   3.105  0.00  0.00    +0.000 A 
ATOM      7  C   UNL     1       5.120   0.157   4.141  0.00  0.00    +0.000 A 
ATOM      8  C   UNL     1       4.765  -1.200   4.132  0.00  0.00    +0.000 A 
ATOM      9  C   UNL     1       4.006  -1.731   3.086  0.00  0.00    +0.000 A 
ATOM     10  C   UNL     1       3.608  -0.897   2.050  0.00  0.00    +0.000 A 
ENDROOT
BRANCH   3  11
ATOM     11  C   UNL     1       2.935   0.114  -1.449  0.00  0.00    +0.000 A 
ATOM     12  C   UNL     1       2.002   0.719  -2.307  0.00  0.00    +0.000 A 
ATOM     13  C   UNL     1       2.198   0.752  -3.690  0.00  0.00    +0.000 A 
ATOM     14  C   UNL     1       3.340   0.182  -4.245  0.00  0.00    +0.000 A 
ATOM     15  C   UNL     1       4.285  -0.417  -3.417  0.00  0.00    +0.000 A 
ATOM     16  C   UNL     1       4.082  -0.448  -2.035  0.00  0.00    +0.000 A 
ENDBRANCH   3  11
TORSDOF 1
