MODEL 1
REMARK VINA RESULT:      -4.0      0.000      0.000
REMARK  Name = *****
REMARK  4 active torsions:
REMARK  status: ('A' for Active; 'I' for Inactive)
REMARK    1  A    between atoms: C_4  and  C_6
REMARK    2  A    between atoms: C_6  and  C_8
REMARK    3  A    between atoms: C_8  and  C_9
REMARK    4  A    between atoms: C_9  and  C_10
REMARK                            x       y       z     vdW  Elec       q    Type
REMARK                         _______ _______ _______ _____ _____    ______ ____
ROOT
ATOM      1  C   UNL     1      89.590  69.854  87.006  0.00  0.00    +0.000 C 
ENDROOT
BRANCH   1   2
ATOM      2  C   UNL     1      88.269  70.493  87.355  0.00  0.00    +0.000 A 
ATOM      3  C   UNL     1      87.923  70.731  88.690  0.00  0.00    +0.000 A 
ATOM      4  C   UNL     1      86.714  71.325  89.033  0.00  0.00    +0.000 A 
ATOM      5  C   UNL     1      85.829  71.691  88.025  0.00  0.00    +0.000 A 
ATOM      6  C   UNL     1      86.150  71.466  86.686  0.00  0.00    +0.000 A 
ATOM      7  C   UNL     1      87.368  70.869  86.350  0.00  0.00    +0.000 A 
ATOM      8 CL   UNL     1      84.330  72.430  88.431  0.00  0.00    +0.000 Cl
ATOM      9  F   UNL     1      88.774  70.386  89.667  0.00  0.00    +0.000 F 
ENDBRANCH   1   2
BRANCH   1  10
ATOM     10  C   UNL     1      89.475  68.928  85.797  0.00  0.00    +0.000 C 
BRANCH  10  11
ATOM     11  C   UNL     1      89.644  67.470  86.189  0.00  0.00    +0.000 C 
ATOM     12  O   UNL     1      90.740  67.010  86.506  0.00  0.00    +0.000 OA
BRANCH  11  16
ATOM     13  C   UNL     1      86.729  67.304  87.873  0.00  0.00    +0.000 C 
ATOM     14  C   UNL     1      86.052  67.349  86.516  0.00  0.00    +0.000 C 
ATOM     15  C   UNL     1      87.214  67.370  85.530  0.00  0.00    +0.000 C 
ATOM     16  C   UNL     1      88.367  66.630  86.222  0.00  0.00    +0.000 C 
ATOM     17  C   UNL     1      87.878  66.333  87.646  0.00  0.00    +0.000 C 
ENDBRANCH  11  16
ENDBRANCH  10  11
ENDBRANCH   1  10
TORSDOF 4
ENDMDL
