REMARK  Name = *****
REMARK  2 active torsions:
REMARK  status: ('A' for Active; 'I' for Inactive)
REMARK    1  A    between atoms: C_4  and  C_7
REMARK    2  A    between atoms: C_8  and  C_9
REMARK                            x       y       z     vdW  Elec       q    Type
REMARK                         _______ _______ _______ _____ _____    ______ ____
ROOT
ATOM      1  C   UNL     1      -2.875   0.363  -0.243  0.00  0.00    +0.000 C 
ATOM      2  C   UNL     1      -3.419   1.589  -0.156  0.00  0.00    +0.000 C 
ATOM      3 CL   UNL     1      -3.755  -1.097  -0.537  0.00  0.00    +0.000 Cl
ENDROOT
BRANCH   1   7
ATOM      4  C   UNL     1       1.364  -0.104   0.094  0.00  0.00    +0.000 A 
ATOM      5  C   UNL     1       0.523  -0.648   1.063  0.00  0.00    +0.000 A 
ATOM      6  C   UNL     1      -0.861  -0.498   0.951  0.00  0.00    +0.000 A 
ATOM      7  C   UNL     1      -1.415   0.199  -0.132  0.00  0.00    +0.000 A 
ATOM      8  C   UNL     1      -0.559   0.741  -1.102  0.00  0.00    +0.000 A 
ATOM      9  C   UNL     1       0.825   0.589  -0.988  0.00  0.00    +0.000 A 
ENDBRANCH   1   7
BRANCH   2  10
ATOM     10  C   UNL     1      -4.808   1.889  -0.258  0.00  0.00    +0.000 A 
ATOM     11  C   UNL     1      -5.919   1.254   0.274  0.00  0.00    +0.000 A 
ATOM     12  C   UNL     1      -7.148   1.895  -0.060  0.00  0.00    +0.000 A 
ATOM     13  C   UNL     1      -6.947   3.019  -0.825  0.00  0.00    +0.000 A 
ATOM     14  S   UNL     1      -5.291   3.301  -1.125  0.00  0.00    +0.000 S 
ENDBRANCH   2  10
TORSDOF 2
