REMARK  Name = *****
REMARK  2 active torsions:
REMARK  status: ('A' for Active; 'I' for Inactive)
REMARK    1  A    between atoms: C_5  and  C_9
REMARK    2  A    between atoms: C_10  and  C_11
REMARK                            x       y       z     vdW  Elec       q    Type
REMARK                         _______ _______ _______ _____ _____    ______ ____
ROOT
ATOM      1  C   UNL     1       1.382   0.732   0.725  0.00  0.00    +0.000 C 
ATOM      2  C   UNL     1       1.454  -0.796   0.530  0.00  0.00    +0.000 C 
ATOM      3  C   UNL     1       0.409  -1.203  -0.510  0.00  0.00    +0.000 C 
ATOM      4  C   UNL     1      -0.965  -1.229   0.113  0.00  0.00    +0.000 C 
ATOM      5  C   UNL     1      -1.655  -0.128   0.485  0.00  0.00    +0.000 C 
ATOM      6  C   UNL     1      -1.077   1.268   0.267  0.00  0.00    +0.000 C 
ATOM      7  C   UNL     1       0.372   1.326  -0.269  0.00  0.00    +0.000 C 
ATOM      8  S   UNL     1       0.519   0.184  -1.665  0.00  0.00    +0.000 S 
ENDROOT
BRANCH   5   9
ATOM      9  C   UNL     1      -2.974  -0.274   1.089  0.00  0.00    +0.000 C 
ATOM     10  C   UNL     1      -3.783   0.728   1.471  0.00  0.00    +0.000 C 
BRANCH  10  11
ATOM     11  C   UNL     1      -5.111   0.521   2.070  0.00  0.00    +0.000 A 
ATOM     12  C   UNL     1      -5.351  -0.471   3.029  0.00  0.00    +0.000 A 
ATOM     13  C   UNL     1      -6.619  -0.616   3.599  0.00  0.00    +0.000 A 
ATOM     14  C   UNL     1      -7.655   0.236   3.224  0.00  0.00    +0.000 A 
ATOM     15  C   UNL     1      -7.424   1.238   2.283  0.00  0.00    +0.000 A 
ATOM     16  C   UNL     1      -6.156   1.383   1.713  0.00  0.00    +0.000 A 
ENDBRANCH  10  11
ENDBRANCH   5   9
TORSDOF 2
