MODEL 1
REMARK VINA RESULT:      -4.9      0.000      0.000
REMARK  Name = *****
REMARK  3 active torsions:
REMARK  status: ('A' for Active; 'I' for Inactive)
REMARK    1  A    between atoms: C_2  and  C_3
REMARK    2  A    between atoms: C_2  and  C_9
REMARK    3  A    between atoms: C_9  and  C_10
REMARK                            x       y       z     vdW  Elec       q    Type
REMARK                         _______ _______ _______ _____ _____    ______ ____
ROOT
ATOM      1  C   UNL     1      87.933  71.017  84.714  0.00  0.00    +0.000 C 
ATOM      2  C   UNL     1      87.723  70.911  86.038  0.00  0.00    +0.000 C 
ENDROOT
BRANCH   2   3
ATOM      3  C   UNL     1      86.466  71.436  86.600  0.00  0.00    +0.000 A 
ATOM      4  C   UNL     1      86.266  71.455  87.985  0.00  0.00    +0.000 A 
ATOM      5  C   UNL     1      85.081  71.963  88.522  0.00  0.00    +0.000 A 
ATOM      6  C   UNL     1      84.086  72.450  87.676  0.00  0.00    +0.000 A 
ATOM      7  C   UNL     1      84.273  72.428  86.294  0.00  0.00    +0.000 A 
ATOM      8  C   UNL     1      85.458  71.923  85.757  0.00  0.00    +0.000 A 
ENDBRANCH   2   3
BRANCH   2   9
ATOM      9  C   UNL     1      88.742  70.341  87.011  0.00  0.00    +0.000 C 
ATOM     10  F   UNL     1      89.964  70.927  86.796  0.00  0.00    +0.000 F 
BRANCH   9  11
ATOM     11  C   UNL     1      88.839  68.827  86.929  0.00  0.00    +0.000 A 
ATOM     12  C   UNL     1      87.826  68.023  87.475  0.00  0.00    +0.000 A 
ATOM     13  C   UNL     1      87.917  66.632  87.419  0.00  0.00    +0.000 A 
ATOM     14  C   UNL     1      89.022  66.029  86.822  0.00  0.00    +0.000 A 
ATOM     15  C   UNL     1      90.037  66.814  86.280  0.00  0.00    +0.000 A 
ATOM     16  C   UNL     1      89.948  68.206  86.333  0.00  0.00    +0.000 A 
ENDBRANCH   9  11
ENDBRANCH   2   9
TORSDOF 3
ENDMDL
