REMARK  Name = *****
REMARK  5 active torsions:
REMARK  status: ('A' for Active; 'I' for Inactive)
REMARK    1  A    between atoms: C_1  and  C_2
REMARK    2  A    between atoms: C_3  and  C_17
REMARK    3  A    between atoms: C_5  and  C_8
REMARK    4  A    between atoms: C_8  and  C_10
REMARK    5  A    between atoms: C_10  and  C_11
REMARK                            x       y       z     vdW  Elec       q    Type
REMARK                         _______ _______ _______ _____ _____    ______ ____
ROOT
ATOM      1  C   UNL     1      -3.012  -1.506   0.154  0.00  0.00    +0.000 C 
ATOM      2  O   UNL     1      -2.949  -2.734   0.225  0.00  0.00    +0.000 OA
ENDROOT
BRANCH   1   7
ATOM      3  C   UNL     1       1.970   1.481  -0.097  0.00  0.00    +0.000 C 
ATOM      4  C   UNL     1       0.688   0.696  -0.036  0.00  0.00    +0.000 A 
ATOM      5  C   UNL     1       0.648  -0.672  -0.366  0.00  0.00    +0.000 A 
ATOM      6  C   UNL     1      -0.574  -1.361  -0.294  0.00  0.00    +0.000 A 
ATOM      7  C   UNL     1      -1.750  -0.710   0.104  0.00  0.00    +0.000 A 
ATOM      8  C   UNL     1      -1.700   0.642   0.449  0.00  0.00    +0.000 A 
ATOM      9  C   UNL     1      -0.490   1.337   0.377  0.00  0.00    +0.000 A 
ATOM     10  C   UNL     1       1.882  -1.411  -0.810  0.00  0.00    +0.000 C 
ENDBRANCH   1   7
BRANCH   1  11
ATOM     11  C   UNL     1      -4.356  -0.806   0.133  0.00  0.00    +0.000 C 
BRANCH  11  12
ATOM     12  C   UNL     1      -4.642  -0.109  -1.198  0.00  0.00    +0.000 C 
ATOM     13  S   UNL     1      -4.653  -1.197  -2.661  0.00  0.00    +0.000 S 
ATOM     14  C   UNL     1      -6.106  -2.220  -2.298  0.00  0.00    +0.000 C 
ATOM     15  C   UNL     1      -7.387  -1.403  -2.188  0.00  0.00    +0.000 C 
ATOM     16  C   UNL     1      -7.417  -0.444  -1.006  0.00  0.00    +0.000 C 
ATOM     17  S   UNL     1      -6.177   0.879  -1.118  0.00  0.00    +0.000 S 
ENDBRANCH  11  12
ENDBRANCH   1  11
TORSDOF 3
