MODEL 1
REMARK VINA RESULT:      -5.2      0.000      0.000
REMARK  Name = *****
REMARK  4 active torsions:
REMARK  status: ('A' for Active; 'I' for Inactive)
REMARK    1  A    between atoms: C_1  and  C_2
REMARK    2  A    between atoms: C_7  and  C_8
REMARK    3  A    between atoms: N_9  and  C_12
REMARK    4  A    between atoms: C_12  and  C_13
REMARK                            x       y       z     vdW  Elec       q    Type
REMARK                         _______ _______ _______ _____ _____    ______ ____
ROOT
ATOM      1  C   UNL     1     105.335 121.775  81.022  0.00  0.00    +0.000 C 
ATOM      2  C   UNL     1     104.728 123.105  81.381  0.00  0.00    +0.000 A 
ATOM      3  C   UNL     1     104.606 124.086  80.376  0.00  0.00    +0.000 A 
ATOM      4  C   UNL     1     104.048 125.331  80.694  0.00  0.00    +0.000 A 
ATOM      5  C   UNL     1     103.621 125.576  81.990  0.00  0.00    +0.000 A 
ATOM      6  C   UNL     1     103.725 124.632  83.017  0.00  0.00    +0.000 A 
ATOM      7  C   UNL     1     104.292 123.381  82.696  0.00  0.00    +0.000 A 
ATOM      8  C   UNL     1     104.417 122.348  83.786  0.00  0.00    +0.000 C 
ATOM      9  N   UNL     1     103.143 126.860  81.917  0.00  0.00    +0.000 N 
ATOM     10  N   UNL     1     103.290 127.378  80.679  0.00  0.00    +0.000 NA
ATOM     11  N   UNL     1     103.833 126.437  79.916  0.00  0.00    +0.000 NA
ENDROOT
BRANCH   9  12
ATOM     12  C   UNL     1     102.613 127.683  82.987  0.00  0.00    +0.000 C 
BRANCH  12  13
ATOM     13  C   UNL     1     101.104 127.709  82.981  0.00  0.00    +0.000 A 
ATOM     14  C   UNL     1     100.402 128.769  83.574  0.00  0.00    +0.000 A 
ATOM     15  C   UNL     1      99.005 128.784  83.566  0.00  0.00    +0.000 A 
ATOM     16  C   UNL     1      98.298 127.745  82.967  0.00  0.00    +0.000 A 
ATOM     17  C   UNL     1      98.984 126.686  82.376  0.00  0.00    +0.000 A 
ATOM     18  C   UNL     1     100.379 126.667  82.383  0.00  0.00    +0.000 A 
ENDBRANCH  12  13
ENDBRANCH   9  12
TORSDOF 2
ENDMDL
