MODEL 1
REMARK VINA RESULT:      -4.9      0.000      0.000
REMARK  Name = *****
REMARK  5 active torsions:
REMARK  status: ('A' for Active; 'I' for Inactive)
REMARK    1  A    between atoms: C_1  and  C_2
REMARK    2  A    between atoms: C_3  and  C_17
REMARK    3  A    between atoms: C_5  and  O_8
REMARK    4  A    between atoms: O_8  and  C_9
REMARK    5  A    between atoms: C_9  and  C_11
REMARK                            x       y       z     vdW  Elec       q    Type
REMARK                         _______ _______ _______ _____ _____    ______ ____
ROOT
ATOM      1  O   UNL     1      88.567  69.952  86.971  0.00  0.00    +0.000 OA
ENDROOT
BRANCH   1   6
ATOM      2  C   UNL     1      88.999  64.271  86.851  0.00  0.00    +0.000 C 
ATOM      3  C   UNL     1      88.904  65.773  86.885  0.00  0.00    +0.000 A 
ATOM      4  C   UNL     1      89.884  66.585  86.275  0.00  0.00    +0.000 A 
ATOM      5  C   UNL     1      89.754  67.981  86.336  0.00  0.00    +0.000 A 
ATOM      6  C   UNL     1      88.673  68.554  87.001  0.00  0.00    +0.000 A 
ATOM      7  C   UNL     1      87.686  67.764  87.581  0.00  0.00    +0.000 A 
ATOM      8  C   UNL     1      87.809  66.376  87.529  0.00  0.00    +0.000 A 
ATOM      9  C   UNL     1      91.067  65.987  85.565  0.00  0.00    +0.000 C 
ENDBRANCH   1   6
BRANCH   1  10
ATOM     10  C   UNL     1      88.075  70.557  88.114  0.00  0.00    +0.000 C 
ATOM     11  O   UNL     1      88.597  70.589  89.218  0.00  0.00    +0.000 OA
BRANCH  10  12
ATOM     12  C   UNL     1      86.766  71.203  87.815  0.00  0.00    +0.000 A 
ATOM     13  C   UNL     1      85.949  71.566  88.894  0.00  0.00    +0.000 A 
ATOM     14  C   UNL     1      84.712  72.174  88.672  0.00  0.00    +0.000 A 
ATOM     15  C   UNL     1      84.283  72.423  87.370  0.00  0.00    +0.000 A 
ATOM     16  C   UNL     1      85.087  72.066  86.289  0.00  0.00    +0.000 A 
ATOM     17  C   UNL     1      86.327  71.457  86.507  0.00  0.00    +0.000 A 
ENDBRANCH  10  12
ENDBRANCH   1  10
TORSDOF 3
ENDMDL
