REMARK  Name = *****
REMARK  6 active torsions:
REMARK  status: ('A' for Active; 'I' for Inactive)
REMARK    1  A    between atoms: C_1  and  O_2
REMARK    2  A    between atoms: O_2  and  C_3
REMARK    3  A    between atoms: C_5  and  O_20
REMARK    4  A    between atoms: C_7  and  C_9
REMARK    5  A    between atoms: C_10  and  C_11
REMARK    6  A    between atoms: O_20  and  C_21
REMARK                            x       y       z     vdW  Elec       q    Type
REMARK                         _______ _______ _______ _____ _____    ______ ____
ROOT
ATOM      1  C   UNL     1       6.252  -1.984  -2.147  0.00  0.00    +0.000 C 
ATOM      2  C   UNL     1       7.319  -1.811  -2.945  0.00  0.00    +0.000 C 
ENDROOT
BRANCH   2   3
ATOM      3  C   UNL     1       8.578  -2.558  -2.814  0.00  0.00    +0.000 A 
ATOM      4  C   UNL     1       8.618  -3.900  -2.409  0.00  0.00    +0.000 A 
ATOM      5  C   UNL     1       9.838  -4.573  -2.329  0.00  0.00    +0.000 A 
ATOM      6  C   UNL     1      11.023  -3.933  -2.660  0.00  0.00    +0.000 A 
ATOM      7  C   UNL     1      10.989  -2.612  -3.077  0.00  0.00    +0.000 A 
ATOM      8  C   UNL     1       9.779  -1.923  -3.162  0.00  0.00    +0.000 A 
ATOM      9  F   UNL     1      12.124  -1.980  -3.408  0.00  0.00    +0.000 F 
ATOM     10  F   UNL     1      12.190  -4.588  -2.582  0.00  0.00    +0.000 F 
ATOM     11  F   UNL     1       9.852  -5.853  -1.934  0.00  0.00    +0.000 F 
ENDBRANCH   2   3
BRANCH   1  16
ATOM     12  C   UNL     1       3.059  -0.232  -1.177  0.00  0.00    +0.000 A 
ATOM     13  C   UNL     1       2.565   0.181  -2.416  0.00  0.00    +0.000 A 
ATOM     14  C   UNL     1       3.275  -0.112  -3.584  0.00  0.00    +0.000 A 
ATOM     15  C   UNL     1       4.481  -0.816  -3.504  0.00  0.00    +0.000 A 
ATOM     16  C   UNL     1       5.001  -1.219  -2.269  0.00  0.00    +0.000 A 
ATOM     17  C   UNL     1       4.269  -0.931  -1.112  0.00  0.00    +0.000 A 
BRANCH  12  19
ATOM     18  C   UNL     1       1.220   0.668   0.040  0.00  0.00    +0.000 C 
ATOM     19  O   UNL     1       2.464  -0.021   0.038  0.00  0.00    +0.000 OA
ENDBRANCH  12  19
BRANCH  14  20
ATOM     20  O   UNL     1       2.901   0.224  -4.858  0.00  0.00    +0.000 OA
ATOM     21  C   UNL     1       1.699   0.968  -5.007  0.00  0.00    +0.000 C 
ENDBRANCH  14  20
ENDBRANCH   1  16
TORSDOF 4
