MODEL 1
REMARK VINA RESULT:      -5.0      0.000      0.000
REMARK  Name = *****
REMARK  2 active torsions:
REMARK  status: ('A' for Active; 'I' for Inactive)
REMARK    1  A    between atoms: C_4  and  C_7
REMARK    2  A    between atoms: C_8  and  C_9
REMARK                            x       y       z     vdW  Elec       q    Type
REMARK                         _______ _______ _______ _____ _____    ______ ____
ROOT
ATOM      1  C   UNL     1     101.887 125.982  82.263  0.00  0.00    +0.000 C 
ATOM      2  C   UNL     1     102.883 126.197  81.388  0.00  0.00    +0.000 C 
ENDROOT
BRANCH   2   3
ATOM      3  C   UNL     1     103.850 125.170  80.974  0.00  0.00    +0.000 A 
ATOM      4  C   UNL     1     104.026 123.974  81.682  0.00  0.00    +0.000 A 
ATOM      5  C   UNL     1     104.935 123.019  81.229  0.00  0.00    +0.000 A 
ATOM      6  C   UNL     1     105.671 123.220  80.071  0.00  0.00    +0.000 A 
ATOM      7  C   UNL     1     105.484 124.396  79.362  0.00  0.00    +0.000 A 
ATOM      8  C   UNL     1     104.582 125.365  79.795  0.00  0.00    +0.000 A 
ATOM      9  F   UNL     1     106.180 124.603  78.237  0.00  0.00    +0.000 F 
ATOM     10  F   UNL     1     105.093 121.884  81.922  0.00  0.00    +0.000 F 
ENDBRANCH   2   3
BRANCH   1  14
ATOM     11  C   UNL     1      99.063 128.988  83.401  0.00  0.00    +0.000 A 
ATOM     12  C   UNL     1     100.413 129.169  83.693  0.00  0.00    +0.000 A 
ATOM     13  C   UNL     1     101.345 128.192  83.333  0.00  0.00    +0.000 A 
ATOM     14  C   UNL     1     100.935 127.018  82.686  0.00  0.00    +0.000 A 
ATOM     15  C   UNL     1      99.576 126.856  82.383  0.00  0.00    +0.000 A 
ATOM     16  C   UNL     1      98.644 127.833  82.743  0.00  0.00    +0.000 A 
ENDBRANCH   1  14
TORSDOF 2
ENDMDL
