MODEL 1
REMARK VINA RESULT:      -4.6      0.000      0.000
REMARK  Name = *****
REMARK  2 active torsions:
REMARK  status: ('A' for Active; 'I' for Inactive)
REMARK    1  A    between atoms: C_9  and  S_10
REMARK    2  A    between atoms: S_10  and  C_11
REMARK                            x       y       z     vdW  Elec       q    Type
REMARK                         _______ _______ _______ _____ _____    ______ ____
ROOT
ATOM      1  C   UNL     1      86.358  71.709  89.571  0.00  0.00    +0.000 C 
ATOM      2  C   UNL     1      84.887  72.091  89.338  0.00  0.00    +0.000 C 
ATOM      3  C   UNL     1      84.843  72.163  87.845  0.00  0.00    +0.000 A 
ATOM      4  C   UNL     1      83.878  72.758  87.050  0.00  0.00    +0.000 A 
ATOM      5  C   UNL     1      84.017  72.671  85.663  0.00  0.00    +0.000 A 
ATOM      6  C   UNL     1      85.102  71.987  85.093  0.00  0.00    +0.000 A 
ATOM      7  C   UNL     1      86.064  71.377  85.903  0.00  0.00    +0.000 A 
ATOM      8  C   UNL     1      85.923  71.471  87.279  0.00  0.00    +0.000 A 
ATOM      9  C   UNL     1      86.811  70.886  88.347  0.00  0.00    +0.000 C 
ENDROOT
BRANCH   9  10
ATOM     10  S   UNL     1      86.495  69.093  88.547  0.00  0.00    +0.000 S 
BRANCH  10  11
ATOM     11  C   UNL     1      87.848  68.423  87.600  0.00  0.00    +0.000 A 
ATOM     12  C   UNL     1      88.845  69.284  87.131  0.00  0.00    +0.000 A 
ATOM     13  C   UNL     1      89.921  68.784  86.394  0.00  0.00    +0.000 A 
ATOM     14  C   UNL     1      90.010  67.419  86.130  0.00  0.00    +0.000 A 
ATOM     15  C   UNL     1      89.029  66.552  86.607  0.00  0.00    +0.000 A 
ATOM     16  C   UNL     1      87.953  67.052  87.345  0.00  0.00    +0.000 A 
ENDBRANCH  10  11
ENDBRANCH   9  10
TORSDOF 2
ENDMDL
