MODEL 1
REMARK VINA RESULT:      -4.8      0.000      0.000
REMARK  Name = *****
REMARK  4 active torsions:
REMARK  status: ('A' for Active; 'I' for Inactive)
REMARK    1  A    between atoms: C_1  and  O_2
REMARK    2  A    between atoms: O_2  and  C_3
REMARK    3  A    between atoms: C_8  and  C_9
REMARK    4  A    between atoms: C_10  and  C_11
REMARK                            x       y       z     vdW  Elec       q    Type
REMARK                         _______ _______ _______ _____ _____    ______ ____
ROOT
ATOM      1  C   UNL     1     102.005 125.969  82.316  0.00  0.00    +0.000 C 
ATOM      2  C   UNL     1     102.843 126.123  81.279  0.00  0.00    +0.000 C 
ENDROOT
BRANCH   2   3
ATOM      3  C   UNL     1     103.836 125.123  80.865  0.00  0.00    +0.000 A 
ATOM      4  C   UNL     1     104.636 125.289  79.726  0.00  0.00    +0.000 A 
ATOM      5  C   UNL     1     105.587 124.324  79.390  0.00  0.00    +0.000 A 
ATOM      6  C   UNL     1     105.763 123.193  80.183  0.00  0.00    +0.000 A 
ATOM      7  C   UNL     1     104.985 123.028  81.328  0.00  0.00    +0.000 A 
ATOM      8  C   UNL     1     104.032 123.991  81.669  0.00  0.00    +0.000 A 
ATOM      9 CL   UNL     1     106.556 124.536  77.983  0.00  0.00    +0.000 Cl
ENDBRANCH   2   3
BRANCH   1  15
ATOM     10  C   UNL     1     101.396 128.182  83.409  0.00  0.00    +0.000 A 
ATOM     11  C   UNL     1     100.403 129.114  83.736  0.00  0.00    +0.000 A 
ATOM     12  C   UNL     1      99.071 128.889  83.379  0.00  0.00    +0.000 A 
ATOM     13  C   UNL     1      98.717 127.734  82.687  0.00  0.00    +0.000 A 
ATOM     14  C   UNL     1      99.696 126.799  82.357  0.00  0.00    +0.000 A 
ATOM     15  C   UNL     1     101.037 127.004  82.720  0.00  0.00    +0.000 A 
BRANCH  10  17
ATOM     16  C   UNL     1     103.176 129.641  84.059  0.00  0.00    +0.000 C 
ATOM     17  O   UNL     1     102.728 128.341  83.702  0.00  0.00    +0.000 OA
ENDBRANCH  10  17
ENDBRANCH   1  15
TORSDOF 3
ENDMDL
