MODEL 1
REMARK VINA RESULT:      -4.6      0.000      0.000
REMARK  Name = *****
REMARK  3 active torsions:
REMARK  status: ('A' for Active; 'I' for Inactive)
REMARK    1  A    between atoms: C_4  and  S_8
REMARK    2  A    between atoms: S_8  and  C_10
REMARK    3  A    between atoms: C_10  and  C_11
REMARK                            x       y       z     vdW  Elec       q    Type
REMARK                         _______ _______ _______ _____ _____    ______ ____
ROOT
ATOM      1  C   UNL     1     103.035 126.135  83.079  0.00  0.00    +0.000 A 
ATOM      2  C   UNL     1     103.499 124.841  82.828  0.00  0.00    +0.000 A 
ATOM      3  C   UNL     1     103.946 124.469  81.563  0.00  0.00    +0.000 A 
ATOM      4  C   UNL     1     103.936 125.390  80.527  0.00  0.00    +0.000 A 
ATOM      5  C   UNL     1     103.479 126.681  80.754  0.00  0.00    +0.000 A 
ATOM      6  C   UNL     1     103.033 127.049  82.021  0.00  0.00    +0.000 A 
ATOM      7  F   UNL     1     102.581 128.294  82.221  0.00  0.00    +0.000 F 
ATOM      8  F   UNL     1     103.454 127.570  79.751  0.00  0.00    +0.000 F 
ATOM      9  F   UNL     1     104.358 125.032  79.306  0.00  0.00    +0.000 F 
ATOM     10  F   UNL     1     104.379 123.219  81.347  0.00  0.00    +0.000 F 
ATOM     11  F   UNL     1     103.510 123.941  83.823  0.00  0.00    +0.000 F 
ENDROOT
BRANCH   1  12
ATOM     12  C   UNL     1     102.593 126.543  84.455  0.00  0.00    +0.000 C 
BRANCH  12  13
ATOM     13  S   UNL     1     100.804 126.253  84.692  0.00  0.00    +0.000 S 
ATOM     14  O   UNL     1     100.588 125.885  86.132  0.00  0.00    +0.000 OA
BRANCH  13  18
ATOM     15  C   UNL     1      99.362 130.606  84.249  0.00  0.00    +0.000 A 
ATOM     16  C   UNL     1     100.000 130.201  85.422  0.00  0.00    +0.000 A 
ATOM     17  C   UNL     1     100.444 128.883  85.561  0.00  0.00    +0.000 A 
ATOM     18  C   UNL     1     100.256 127.962  84.524  0.00  0.00    +0.000 A 
ATOM     19  C   UNL     1      99.608 128.380  83.361  0.00  0.00    +0.000 A 
ATOM     20  C   UNL     1      99.165 129.692  83.215  0.00  0.00    +0.000 A 
ATOM     21  F   UNL     1      99.406 127.520  82.352  0.00  0.00    +0.000 F 
ENDBRANCH  13  18
ENDBRANCH  12  13
ENDBRANCH   1  12
TORSDOF 3
ENDMDL
