MODEL 1
REMARK VINA RESULT:      -5.1      0.000      0.000
REMARK  Name = *****
REMARK  5 active torsions:
REMARK  status: ('A' for Active; 'I' for Inactive)
REMARK    1  A    between atoms: C_1  and  C_2
REMARK    2  A    between atoms: C_3  and  C_19
REMARK    3  A    between atoms: C_5  and  O_8
REMARK    4  A    between atoms: O_8  and  C_9
REMARK    5  A    between atoms: C_9  and  C_11
REMARK                            x       y       z     vdW  Elec       q    Type
REMARK                         _______ _______ _______ _____ _____    ______ ____
ROOT
ATOM      1  C   UNL     1      88.889  70.095  87.012  0.00  0.00    +0.000 C 
ATOM      2  O   UNL     1      89.669  70.829  86.425  0.00  0.00    +0.000 OA
ENDROOT
BRANCH   1   3
ATOM      3  C   UNL     1      88.953  68.610  86.920  0.00  0.00    +0.000 A 
ATOM      4  C   UNL     1      90.089  68.039  86.327  0.00  0.00    +0.000 A 
ATOM      5  C   UNL     1      90.191  66.656  86.220  0.00  0.00    +0.000 A 
ATOM      6  C   UNL     1      89.176  65.834  86.695  0.00  0.00    +0.000 A 
ATOM      7  C   UNL     1      88.044  66.384  87.285  0.00  0.00    +0.000 A 
ATOM      8  C   UNL     1      87.929  67.773  87.399  0.00  0.00    +0.000 A 
ATOM      9  F   UNL     1      89.280  64.502  86.587  0.00  0.00    +0.000 F 
ATOM     10  F   UNL     1      91.280  66.121  85.651  0.00  0.00    +0.000 F 
ENDBRANCH   1   3
BRANCH   1  11
ATOM     11  O   UNL     1      87.847  70.465  87.842  0.00  0.00    +0.000 OA
BRANCH  11  16
ATOM     12  C   UNL     1      83.347  73.040  85.478  0.00  0.00    +0.000 C 
ATOM     13  C   UNL     1      84.535  72.372  86.117  0.00  0.00    +0.000 A 
ATOM     14  C   UNL     1      84.637  72.239  87.519  0.00  0.00    +0.000 A 
ATOM     15  C   UNL     1      85.767  71.613  88.069  0.00  0.00    +0.000 A 
ATOM     16  C   UNL     1      86.777  71.137  87.236  0.00  0.00    +0.000 A 
ATOM     17  C   UNL     1      86.673  71.237  85.853  0.00  0.00    +0.000 A 
ATOM     18  C   UNL     1      85.557  71.862  85.298  0.00  0.00    +0.000 A 
ATOM     19  C   UNL     1      83.566  72.760  88.437  0.00  0.00    +0.000 C 
ENDBRANCH  11  16
ENDBRANCH   1  11
TORSDOF 3
ENDMDL
