MODEL 1
REMARK VINA RESULT:      -4.3      0.000      0.000
REMARK  Name = *****
REMARK  4 active torsions:
REMARK  status: ('A' for Active; 'I' for Inactive)
REMARK    1  A    between atoms: C_5  and  C_7
REMARK    2  A    between atoms: C_7  and  C_8
REMARK    3  A    between atoms: C_7  and  C_14
REMARK    4  A    between atoms: C_8  and  C_9
REMARK                            x       y       z     vdW  Elec       q    Type
REMARK                         _______ _______ _______ _____ _____    ______ ____
ROOT
ATOM      1  C   UNL     1      89.327  70.666  84.929  0.00  0.00    +0.000 C 
ENDROOT
BRANCH   1   6
ATOM      2  C   UNL     1      85.663  71.803  85.118  0.00  0.00    +0.000 A 
ATOM      3  C   UNL     1      85.406  71.747  86.483  0.00  0.00    +0.000 A 
ATOM      4  C   UNL     1      86.409  71.336  87.359  0.00  0.00    +0.000 A 
ATOM      5  C   UNL     1      87.674  70.988  86.872  0.00  0.00    +0.000 A 
ATOM      6  C   UNL     1      87.960  71.057  85.496  0.00  0.00    +0.000 A 
ATOM      7  C   UNL     1      86.924  71.457  84.628  0.00  0.00    +0.000 A 
ATOM      8 CL   UNL     1      88.843  70.460  88.031  0.00  0.00    +0.000 Cl
ENDBRANCH   1   6
BRANCH   1   9
ATOM      9  C   UNL     1      90.092  71.804  84.238  0.00  0.00    +0.000 C 
ATOM     10  O   UNL     1      89.704  72.968  84.227  0.00  0.00    +0.000 OA
ATOM     11 CL   UNL     1      91.472  71.234  83.316  0.00  0.00    +0.000 Cl
ENDBRANCH   1   9
BRANCH   1  12
ATOM     12  C   UNL     1      89.276  69.382  84.077  0.00  0.00    +0.000 C 
BRANCH  12  13
ATOM     13  C   UNL     1      89.751  68.150  84.766  0.00  0.00    +0.000 A 
ATOM     14  C   UNL     1      89.908  67.814  86.095  0.00  0.00    +0.000 A 
ATOM     15  C   UNL     1      90.398  66.486  86.115  0.00  0.00    +0.000 A 
ATOM     16  C   UNL     1      90.511  66.100  84.800  0.00  0.00    +0.000 A 
ATOM     17  O   UNL     1      90.117  67.104  83.975  0.00  0.00    +0.000 OA
ENDBRANCH  12  13
ENDBRANCH   1  12
TORSDOF 4
ENDMDL
