MODEL 1
REMARK VINA RESULT:      -4.5      0.000      0.000
REMARK  Name = *****
REMARK  5 active torsions:
REMARK  status: ('A' for Active; 'I' for Inactive)
REMARK    1  A    between atoms: C_1  and  C_2
REMARK    2  A    between atoms: C_5  and  C_8
REMARK    3  A    between atoms: C_8  and  C_9
REMARK    4  A    between atoms: C_8  and  S_10
REMARK    5  A    between atoms: S_10  and  C_12
REMARK                            x       y       z     vdW  Elec       q    Type
REMARK                         _______ _______ _______ _____ _____    ______ ____
ROOT
ATOM      1  C   UNL     1      87.435  63.444  88.018  0.00  0.00    +0.000 C 
ATOM      2  C   UNL     1      86.207  62.551  87.816  0.00  0.00    +0.000 C 
ENDROOT
BRANCH   1   7
ATOM      3  C   UNL     1      88.214  64.620  93.693  0.00  0.00    +0.000 C 
ATOM      4  C   UNL     1      88.026  64.352  92.231  0.00  0.00    +0.000 A 
ATOM      5  C   UNL     1      86.742  64.239  91.691  0.00  0.00    +0.000 A 
ATOM      6  C   UNL     1      86.564  63.949  90.336  0.00  0.00    +0.000 A 
ATOM      7  C   UNL     1      87.667  63.762  89.488  0.00  0.00    +0.000 A 
ATOM      8  C   UNL     1      88.954  63.847  90.043  0.00  0.00    +0.000 A 
ATOM      9  C   UNL     1      89.130  64.137  91.399  0.00  0.00    +0.000 A 
ENDBRANCH   1   7
BRANCH   1  10
ATOM     10  S   UNL     1      87.296  65.011  87.045  0.00  0.00    +0.000 S 
ATOM     11  O   UNL     1      87.287  66.150  88.027  0.00  0.00    +0.000 OA
BRANCH  10  12
ATOM     12  C   UNL     1      88.960  65.033  86.339  0.00  0.00    +0.000 A 
ATOM     13  C   UNL     1      89.542  63.835  85.908  0.00  0.00    +0.000 A 
ATOM     14  C   UNL     1      90.826  63.837  85.361  0.00  0.00    +0.000 A 
ATOM     15  C   UNL     1      91.529  65.035  85.236  0.00  0.00    +0.000 A 
ATOM     16  C   UNL     1      90.948  66.232  85.649  0.00  0.00    +0.000 A 
ATOM     17  C   UNL     1      89.665  66.233  86.196  0.00  0.00    +0.000 A 
ENDBRANCH  10  12
ENDBRANCH   1  10
TORSDOF 3
ENDMDL
