MODEL 1
REMARK VINA RESULT:      -5.2      0.000      0.000
REMARK  Name = *****
REMARK  2 active torsions:
REMARK  status: ('A' for Active; 'I' for Inactive)
REMARK    1  A    between atoms: C_1  and  C_2
REMARK    2  A    between atoms: C_2  and  C_11
REMARK                            x       y       z     vdW  Elec       q    Type
REMARK                         _______ _______ _______ _____ _____    ______ ____
ROOT
ATOM      1  C   UNL     1      87.434  71.546  89.446  0.00  0.00    +0.000 C 
ATOM      2  C   UNL     1      87.399  70.671  88.173  0.00  0.00    +0.000 C 
ATOM      3  C   UNL     1      88.840  70.542  87.579  0.00  0.00    +0.000 C 
ATOM      4  C   UNL     1      88.908  69.104  87.162  0.00  0.00    +0.000 A 
ATOM      5  C   UNL     1      89.850  68.504  86.343  0.00  0.00    +0.000 A 
ATOM      6  C   UNL     1      89.749  67.132  86.107  0.00  0.00    +0.000 A 
ATOM      7  C   UNL     1      88.723  66.379  86.700  0.00  0.00    +0.000 A 
ATOM      8  C   UNL     1      87.785  66.991  87.534  0.00  0.00    +0.000 A 
ATOM      9  C   UNL     1      87.886  68.355  87.749  0.00  0.00    +0.000 A 
ATOM     10  C   UNL     1      87.017  69.215  88.618  0.00  0.00    +0.000 C 
ENDROOT
BRANCH   2  11
ATOM     11  C   UNL     1      86.462  71.270  87.097  0.00  0.00    +0.000 A 
ATOM     12  C   UNL     1      85.236  71.865  87.455  0.00  0.00    +0.000 A 
ATOM     13  C   UNL     1      84.390  72.431  86.494  0.00  0.00    +0.000 A 
ATOM     14  C   UNL     1      84.753  72.428  85.153  0.00  0.00    +0.000 A 
ATOM     15  C   UNL     1      85.968  71.870  84.775  0.00  0.00    +0.000 A 
ATOM     16  C   UNL     1      86.815  71.304  85.735  0.00  0.00    +0.000 A 
ENDBRANCH   2  11
TORSDOF 1
ENDMDL
