REMARK  Name = *****
REMARK  3 active torsions:
REMARK  status: ('A' for Active; 'I' for Inactive)
REMARK    1  A    between atoms: C_4  and  S_7
REMARK    2  A    between atoms: S_7  and  S_8
REMARK    3  A    between atoms: S_8  and  C_9
REMARK                            x       y       z     vdW  Elec       q    Type
REMARK                         _______ _______ _______ _____ _____    ______ ____
ROOT
ATOM      1  S   UNL     1      -3.278   0.354   2.079  0.00  0.00    +0.000 S 
ENDROOT
BRANCH   1   5
ATOM      2  C   UNL     1      -0.025  -0.240  -1.091  0.00  0.00    +0.000 A 
ATOM      3  C   UNL     1      -1.152   0.529  -1.381  0.00  0.00    +0.000 A 
ATOM      4  C   UNL     1      -2.142   0.709  -0.413  0.00  0.00    +0.000 A 
ATOM      5  C   UNL     1      -2.012   0.117   0.847  0.00  0.00    +0.000 A 
ATOM      6  C   UNL     1      -0.877  -0.649   1.134  0.00  0.00    +0.000 A 
ATOM      7  C   UNL     1       0.113  -0.828   0.165  0.00  0.00    +0.000 A 
ENDBRANCH   1   5
BRANCH   1   8
ATOM      8  S   UNL     1      -4.359  -1.388   1.902  0.00  0.00    +0.000 S 
BRANCH   8   9
ATOM      9  C   UNL     1      -5.413  -1.020   0.512  0.00  0.00    +0.000 A 
ATOM     10  C   UNL     1      -5.132  -1.574  -0.742  0.00  0.00    +0.000 A 
ATOM     11  C   UNL     1      -5.952  -1.292  -1.836  0.00  0.00    +0.000 A 
ATOM     12  C   UNL     1      -7.059  -0.459  -1.681  0.00  0.00    +0.000 A 
ATOM     13  C   UNL     1      -7.349   0.091  -0.433  0.00  0.00    +0.000 A 
ATOM     14  C   UNL     1      -6.529  -0.190   0.662  0.00  0.00    +0.000 A 
ENDBRANCH   8   9
ENDBRANCH   1   8
TORSDOF 3
