MODEL 1
REMARK VINA RESULT:      -4.5      0.000      0.000
REMARK  Name = *****
REMARK  4 active torsions:
REMARK  status: ('A' for Active; 'I' for Inactive)
REMARK    1  A    between atoms: C_1  and  C_2
REMARK    2  A    between atoms: C_5  and  C_8
REMARK    3  A    between atoms: C_8  and  O_10
REMARK    4  A    between atoms: O_10  and  C_11
REMARK                            x       y       z     vdW  Elec       q    Type
REMARK                         _______ _______ _______ _____ _____    ______ ____
ROOT
ATOM      1  C   UNL     1     103.471 126.490  81.653  0.00  0.00    +0.000 C 
ATOM      2  S   UNL     1     103.706 127.572  80.405  0.00  0.00    +0.000 S 
ENDROOT
BRANCH   1   7
ATOM      3  C   UNL     1     105.178 120.946  81.861  0.00  0.00    +0.000 C 
ATOM      4  C   UNL     1     104.763 122.386  81.813  0.00  0.00    +0.000 A 
ATOM      5  C   UNL     1     104.329 123.037  82.974  0.00  0.00    +0.000 A 
ATOM      6  C   UNL     1     103.911 124.371  82.927  0.00  0.00    +0.000 A 
ATOM      7  C   UNL     1     103.909 125.071  81.713  0.00  0.00    +0.000 A 
ATOM      8  C   UNL     1     104.331 124.414  80.549  0.00  0.00    +0.000 A 
ATOM      9  C   UNL     1     104.748 123.081  80.599  0.00  0.00    +0.000 A 
ENDBRANCH   1   7
BRANCH   1  10
ATOM     10  O   UNL     1     102.846 126.814  82.861  0.00  0.00    +0.000 OA
BRANCH  10  11
ATOM     11  C   UNL     1     101.522 127.296  82.956  0.00  0.00    +0.000 A 
ATOM     12  C   UNL     1     101.291 128.544  83.529  0.00  0.00    +0.000 A 
ATOM     13  C   UNL     1      99.987 129.032  83.573  0.00  0.00    +0.000 A 
ATOM     14  C   UNL     1      98.939 128.279  83.035  0.00  0.00    +0.000 A 
ATOM     15  C   UNL     1      99.193 127.038  82.445  0.00  0.00    +0.000 A 
ATOM     16  C   UNL     1     100.494 126.542  82.396  0.00  0.00    +0.000 A 
ENDBRANCH  10  11
ENDBRANCH   1  10
TORSDOF 3
ENDMDL
