MODEL 1
REMARK VINA RESULT:      -4.4      0.000      0.000
REMARK  Name = *****
REMARK  6 active torsions:
REMARK  status: ('A' for Active; 'I' for Inactive)
REMARK    1  A    between atoms: C_1  and  O_2
REMARK    2  A    between atoms: O_2  and  C_3
REMARK    3  A    between atoms: C_3  and  C_5
REMARK    4  A    between atoms: C_5  and  C_6
REMARK    5  A    between atoms: C_5  and  C_13
REMARK    6  A    between atoms: C_6  and  C_7
REMARK                            x       y       z     vdW  Elec       q    Type
REMARK                         _______ _______ _______ _____ _____    ______ ____
ROOT
ATOM      1  C   UNL     1      88.766  69.531  86.458  0.00  0.00    +0.000 C 
ENDROOT
BRANCH   1   2
ATOM      2  C   UNL     1      88.091  70.339  87.565  0.00  0.00    +0.000 A 
ATOM      3  C   UNL     1      88.686  70.550  88.820  0.00  0.00    +0.000 A 
ATOM      4  C   UNL     1      88.017  71.266  89.817  0.00  0.00    +0.000 A 
ATOM      5  C   UNL     1      86.748  71.768  89.566  0.00  0.00    +0.000 A 
ATOM      6  C   UNL     1      86.131  71.567  88.340  0.00  0.00    +0.000 A 
ATOM      7  C   UNL     1      86.799  70.852  87.343  0.00  0.00    +0.000 A 
ATOM      8  F   UNL     1      86.107  72.452  90.524  0.00  0.00    +0.000 F 
ENDBRANCH   1   2
BRANCH   1   9
ATOM      9  C   UNL     1      89.032  68.056  86.769  0.00  0.00    +0.000 C 
ATOM     10  O   UNL     1      88.231  67.261  87.242  0.00  0.00    +0.000 OA
BRANCH   9  12
ATOM     11  C   UNL     1      90.526  66.478  85.878  0.00  0.00    +0.000 C 
ATOM     12  O   UNL     1      90.338  67.748  86.506  0.00  0.00    +0.000 OA
ENDBRANCH   9  12
ENDBRANCH   1   9
BRANCH   1  13
ATOM     13  C   UNL     1      88.109  69.783  85.078  0.00  0.00    +0.000 C 
BRANCH  13  14
ATOM     14  C   UNL     1      88.831  70.732  84.092  0.00  0.00    +0.000 C 
ATOM     15  C   UNL     1      90.336  70.872  84.376  0.00  0.00    +0.000 C 
ATOM     16  C   UNL     1      91.003  71.885  83.448  0.00  0.00    +0.000 C 
ATOM     17  C   UNL     1      90.315  73.244  83.500  0.00  0.00    +0.000 C 
ATOM     18  C   UNL     1      88.825  73.119  83.208  0.00  0.00    +0.000 C 
ATOM     19  C   UNL     1      88.154  72.116  84.143  0.00  0.00    +0.000 C 
ENDBRANCH  13  14
ENDBRANCH   1  13
TORSDOF 5
ENDMDL
