REMARK  Name = *****
REMARK  5 active torsions:
REMARK  status: ('A' for Active; 'I' for Inactive)
REMARK    1  A    between atoms: C_1  and  O_2
REMARK    2  A    between atoms: O_2  and  C_3
REMARK    3  A    between atoms: C_4  and  C_10
REMARK    4  A    between atoms: C_10  and  C_11
REMARK    5  A    between atoms: C_11  and  C_12
REMARK                            x       y       z     vdW  Elec       q    Type
REMARK                         _______ _______ _______ _____ _____    ______ ____
ROOT
ATOM      1  C   UNL     1       3.384  -0.848  -1.051  0.00  0.00    +0.000 A 
ATOM      2  C   UNL     1       2.798  -1.169  -2.297  0.00  0.00    +0.000 A 
ATOM      3  C   UNL     1       3.366  -2.203  -3.063  0.00  0.00    +0.000 A 
ATOM      4  C   UNL     1       4.512  -2.865  -2.627  0.00  0.00    +0.000 A 
ATOM      5  C   UNL     1       5.101  -2.527  -1.415  0.00  0.00    +0.000 A 
ATOM      6  C   UNL     1       4.536  -1.524  -0.626  0.00  0.00    +0.000 A 
ATOM      7 CL   UNL     1       5.197  -4.115  -3.591  0.00  0.00    +0.000 Cl
ENDROOT
BRANCH   1   9
ATOM      8  C   UNL     1       3.300   0.468   0.942  0.00  0.00    +0.000 C 
ATOM      9  O   UNL     1       2.754   0.130  -0.326  0.00  0.00    +0.000 OA
ENDBRANCH   1   9
BRANCH   2  10
ATOM     10  C   UNL     1       1.537  -0.455  -2.755  0.00  0.00    +0.000 C 
BRANCH  10  11
ATOM     11  C   UNL     1       1.315  -0.299  -4.271  0.00  0.00    +0.000 C 
BRANCH  11  12
ATOM     12  C   UNL     1       2.393   0.454  -5.017  0.00  0.00    +0.000 A 
ATOM     13  C   UNL     1       2.944  -0.089  -6.187  0.00  0.00    +0.000 A 
ATOM     14  C   UNL     1       3.927   0.601  -6.899  0.00  0.00    +0.000 A 
ATOM     15  C   UNL     1       4.365   1.846  -6.454  0.00  0.00    +0.000 A 
ATOM     16  C   UNL     1       3.817   2.403  -5.301  0.00  0.00    +0.000 A 
ATOM     17  C   UNL     1       2.833   1.715  -4.589  0.00  0.00    +0.000 A 
ENDBRANCH  11  12
ENDBRANCH  10  11
ENDBRANCH   2  10
TORSDOF 4
