MODEL 1
REMARK VINA RESULT:      -4.4      0.000      0.000
REMARK  Name = *****
REMARK  7 active torsions:
REMARK  status: ('A' for Active; 'I' for Inactive)
REMARK    1  A    between atoms: C_1  and  C_2
REMARK    2  A    between atoms: C_4  and  S_18
REMARK    3  A    between atoms: C_5  and  C_17
REMARK    4  A    between atoms: C_6  and  C_16
REMARK    5  A    between atoms: C_7  and  O_8
REMARK    6  A    between atoms: O_8  and  C_9
REMARK    7  A    between atoms: C_9  and  C_10
REMARK                            x       y       z     vdW  Elec       q    Type
REMARK                         _______ _______ _______ _____ _____    ______ ____
ROOT
ATOM      1  C   UNL     1     103.112 125.192  85.081  0.00  0.00    +0.000 C 
ATOM      2  C   UNL     1     103.668 124.469  83.888  0.00  0.00    +0.000 A 
ATOM      3  C   UNL     1     104.287 123.228  84.055  0.00  0.00    +0.000 A 
ATOM      4  C   UNL     1     104.811 122.524  82.960  0.00  0.00    +0.000 A 
ATOM      5  C   UNL     1     104.718 123.063  81.657  0.00  0.00    +0.000 A 
ATOM      6  C   UNL     1     104.129 124.341  81.481  0.00  0.00    +0.000 A 
ATOM      7  C   UNL     1     103.557 124.992  82.594  0.00  0.00    +0.000 A 
ATOM      8  C   UNL     1     104.092 124.999  80.124  0.00  0.00    +0.000 C 
ATOM      9  C   UNL     1     105.296 122.317  80.477  0.00  0.00    +0.000 C 
ENDROOT
BRANCH   4  10
ATOM     10  S   UNL     1     105.614 120.962  83.315  0.00  0.00    +0.000 S 
ATOM     11  H   UNL     1     104.673 119.987  83.436  0.00  0.00    +0.000 HD
ENDBRANCH   4  10
BRANCH   7  12
ATOM     12  O   UNL     1     102.934 126.207  82.431  0.00  0.00    +0.000 OA
BRANCH  12  13
ATOM     13  C   UNL     1     101.553 126.014  82.096  0.00  0.00    +0.000 C 
BRANCH  13  14
ATOM     14  C   UNL     1     100.758 127.162  82.669  0.00  0.00    +0.000 A 
ATOM     15  C   UNL     1     101.409 128.206  83.343  0.00  0.00    +0.000 A 
ATOM     16  C   UNL     1     100.681 129.273  83.868  0.00  0.00    +0.000 A 
ATOM     17  C   UNL     1      99.295 129.309  83.728  0.00  0.00    +0.000 A 
ATOM     18  C   UNL     1      98.636 128.275  83.065  0.00  0.00    +0.000 A 
ATOM     19  C   UNL     1      99.363 127.206  82.538  0.00  0.00    +0.000 A 
ENDBRANCH  13  14
ENDBRANCH  12  13
ENDBRANCH   7  12
TORSDOF 4
ENDMDL
