MODEL 1
REMARK VINA RESULT:      -4.1      0.000      0.000
REMARK  Name = *****
REMARK  3 active torsions:
REMARK  status: ('A' for Active; 'I' for Inactive)
REMARK    1  A    between atoms: N_2  and  C_3
REMARK    2  A    between atoms: C_6  and  C_9
REMARK    3  A    between atoms: C_10  and  C_11
REMARK                            x       y       z     vdW  Elec       q    Type
REMARK                         _______ _______ _______ _____ _____    ______ ____
ROOT
ATOM      1  C   UNL     1     105.726 123.518  80.845  0.00  0.00    +0.000 A 
ATOM      2  C   UNL     1     105.094 123.469  82.085  0.00  0.00    +0.000 A 
ATOM      3  C   UNL     1     103.992 124.294  82.320  0.00  0.00    +0.000 A 
ATOM      4  C   UNL     1     103.531 125.172  81.326  0.00  0.00    +0.000 A 
ATOM      5  C   UNL     1     104.176 125.188  80.079  0.00  0.00    +0.000 A 
ATOM      6  C   UNL     1     105.279 124.367  79.837  0.00  0.00    +0.000 A 
ENDROOT
BRANCH   1   8
ATOM      7  C   UNL     1     107.744 122.006  80.409  0.00  0.00    +0.000 C 
ATOM      8  N   UNL     1     106.820 122.698  80.608  0.00  0.00    +0.000 NA
ENDBRANCH   1   8
BRANCH   4   9
ATOM      9  C   UNL     1     102.356 126.032  81.525  0.00  0.00    +0.000 C 
ATOM     10  C   UNL     1     101.669 126.108  82.675  0.00  0.00    +0.000 C 
BRANCH  10  11
ATOM     11  C   UNL     1     100.547 126.973  82.800  0.00  0.00    +0.000 A 
ATOM     12  C   UNL     1     100.476 128.212  83.429  0.00  0.00    +0.000 A 
ATOM     13  C   UNL     1      99.153 128.696  83.296  0.00  0.00    +0.000 A 
ATOM     14  C   UNL     1      98.473 127.735  82.594  0.00  0.00    +0.000 A 
ATOM     15  O   UNL     1      99.294 126.700  82.292  0.00  0.00    +0.000 OA
ENDBRANCH  10  11
ENDBRANCH   4   9
TORSDOF 3
ENDMDL
