MODEL 1
REMARK VINA RESULT:      -4.3      0.000      0.000
REMARK  Name = *****
REMARK  3 active torsions:
REMARK  status: ('A' for Active; 'I' for Inactive)
REMARK    1  A    between atoms: C_6  and  O_8
REMARK    2  A    between atoms: O_8  and  C_9
REMARK    3  A    between atoms: C_9  and  C_11
REMARK                            x       y       z     vdW  Elec       q    Type
REMARK                         _______ _______ _______ _____ _____    ______ ____
ROOT
ATOM      1  O   UNL     1      90.019  68.835  86.800  0.00  0.00    +0.000 OA
ENDROOT
BRANCH   1   7
ATOM      2  C   UNL     1      87.734  66.930  87.664  0.00  0.00    +0.000 C 
ATOM      3  C   UNL     1      87.945  65.493  88.040  0.00  0.00    +0.000 C 
ATOM      4  C   UNL     1      88.646  64.802  87.135  0.00  0.00    +0.000 C 
ATOM      5  C   UNL     1      89.024  65.678  86.009  0.00  0.00    +0.000 C 
ATOM      6  C   UNL     1      88.293  67.027  86.239  0.00  0.00    +0.000 C 
ATOM      7  C   UNL     1      89.631  67.754  85.928  0.00  0.00    +0.000 C 
ATOM      8  C   UNL     1      90.370  66.419  86.159  0.00  0.00    +0.000 C 
ENDBRANCH   1   7
BRANCH   1   9
ATOM      9  C   UNL     1      89.613  70.067  86.401  0.00  0.00    +0.000 C 
ATOM     10  O   UNL     1      90.097  70.712  85.483  0.00  0.00    +0.000 OA
BRANCH   9  11
ATOM     11  C   UNL     1      88.480  70.543  87.237  0.00  0.00    +0.000 A 
ATOM     12  C   UNL     1      87.296  70.926  86.591  0.00  0.00    +0.000 A 
ATOM     13  C   UNL     1      86.203  71.379  87.331  0.00  0.00    +0.000 A 
ATOM     14  C   UNL     1      86.285  71.450  88.722  0.00  0.00    +0.000 A 
ATOM     15  C   UNL     1      87.458  71.070  89.373  0.00  0.00    +0.000 A 
ATOM     16  C   UNL     1      88.554  70.617  88.635  0.00  0.00    +0.000 A 
ENDBRANCH   9  11
ENDBRANCH   1   9
TORSDOF 3
ENDMDL
