MODEL 1
REMARK VINA RESULT:      -4.7      0.000      0.000
REMARK  Name = *****
REMARK  4 active torsions:
REMARK  status: ('A' for Active; 'I' for Inactive)
REMARK    1  A    between atoms: C_1  and  C_2
REMARK    2  A    between atoms: C_4  and  C_8
REMARK    3  A    between atoms: C_8  and  S_9
REMARK    4  A    between atoms: S_9  and  C_11
REMARK                            x       y       z     vdW  Elec       q    Type
REMARK                         _______ _______ _______ _____ _____    ______ ____
ROOT
ATOM      1  S   UNL     1     103.489 126.781  81.167  0.00  0.00    +0.000 S 
ATOM      2  O   UNL     1     104.772 127.531  80.936  0.00  0.00    +0.000 OA
ENDROOT
BRANCH   1   3
ATOM      3  C   UNL     1     103.983 125.064  81.453  0.00  0.00    +0.000 A 
ATOM      4  C   UNL     1     104.467 124.297  80.385  0.00  0.00    +0.000 A 
ATOM      5  C   UNL     1     104.854 122.969  80.593  0.00  0.00    +0.000 A 
ATOM      6  C   UNL     1     104.762 122.412  81.867  0.00  0.00    +0.000 A 
ATOM      7  C   UNL     1     104.290 123.170  82.936  0.00  0.00    +0.000 A 
ATOM      8  C   UNL     1     103.904 124.496  82.729  0.00  0.00    +0.000 A 
ATOM      9 CL   UNL     1     105.238 120.778  82.119  0.00  0.00    +0.000 Cl
ENDBRANCH   1   3
BRANCH   1  10
ATOM     10  C   UNL     1     102.938 127.137  82.873  0.00  0.00    +0.000 C 
BRANCH  10  14
ATOM     11  C   UNL     1      99.261 130.319  84.230  0.00  0.00    +0.000 C 
ATOM     12  C   UNL     1      99.701 129.048  83.566  0.00  0.00    +0.000 A 
ATOM     13  C   UNL     1     101.060 128.705  83.515  0.00  0.00    +0.000 A 
ATOM     14  C   UNL     1     101.478 127.502  82.925  0.00  0.00    +0.000 A 
ATOM     15  C   UNL     1     100.511 126.631  82.402  0.00  0.00    +0.000 A 
ATOM     16  C   UNL     1      99.158 126.958  82.463  0.00  0.00    +0.000 A 
ATOM     17  C   UNL     1      98.753 128.160  83.045  0.00  0.00    +0.000 A 
ENDBRANCH  10  14
ENDBRANCH   1  10
TORSDOF 3
ENDMDL
