MODEL 1
REMARK VINA RESULT:      -4.9      0.000      0.000
REMARK  Name = *****
REMARK  4 active torsions:
REMARK  status: ('A' for Active; 'I' for Inactive)
REMARK    1  A    between atoms: C_1  and  C_2
REMARK    2  A    between atoms: C_5  and  C_8
REMARK    3  A    between atoms: C_8  and  C_9
REMARK    4  A    between atoms: C_10  and  C_11
REMARK                            x       y       z     vdW  Elec       q    Type
REMARK                         _______ _______ _______ _____ _____    ______ ____
ROOT
ATOM      1  C   UNL     1      88.738  66.096  86.527  0.00  0.00    +0.000 C 
ATOM      2  C   UNL     1      89.803  66.914  86.562  0.00  0.00    +0.000 C 
ENDROOT
BRANCH   2   3
ATOM      3  C   UNL     1      89.813  68.286  86.036  0.00  0.00    +0.000 A 
ATOM      4  C   UNL     1      89.940  68.565  84.666  0.00  0.00    +0.000 A 
ATOM      5  C   UNL     1      89.913  69.884  84.205  0.00  0.00    +0.000 A 
ATOM      6  C   UNL     1      89.749  70.924  85.111  0.00  0.00    +0.000 A 
ATOM      7  C   UNL     1      89.607  70.671  86.468  0.00  0.00    +0.000 A 
ATOM      8  C   UNL     1      89.633  69.352  86.930  0.00  0.00    +0.000 A 
ATOM      9  F   UNL     1      89.723  72.188  84.667  0.00  0.00    +0.000 F 
ENDBRANCH   2   3
BRANCH   1  10
ATOM     10  C   UNL     1      88.748  64.690  87.058  0.00  0.00    +0.000 C 
BRANCH  10  15
ATOM     11  C   UNL     1      86.693  64.384  92.504  0.00  0.00    +0.000 C 
ATOM     12  C   UNL     1      87.235  64.484  91.109  0.00  0.00    +0.000 A 
ATOM     13  C   UNL     1      86.553  65.219  90.132  0.00  0.00    +0.000 A 
ATOM     14  C   UNL     1      87.043  65.285  88.825  0.00  0.00    +0.000 A 
ATOM     15  C   UNL     1      88.215  64.605  88.468  0.00  0.00    +0.000 A 
ATOM     16  C   UNL     1      88.891  63.865  89.445  0.00  0.00    +0.000 A 
ATOM     17  C   UNL     1      88.401  63.798  90.752  0.00  0.00    +0.000 A 
ENDBRANCH  10  15
ENDBRANCH   1  10
TORSDOF 3
ENDMDL
