MODEL 1
REMARK VINA RESULT:      -4.6      0.000      0.000
REMARK  Name = *****
REMARK  3 active torsions:
REMARK  status: ('A' for Active; 'I' for Inactive)
REMARK    1  A    between atoms: C_1  and  C_2
REMARK    2  A    between atoms: C_5  and  C_7
REMARK    3  A    between atoms: C_8  and  C_9
REMARK                            x       y       z     vdW  Elec       q    Type
REMARK                         _______ _______ _______ _____ _____    ______ ____
ROOT
ATOM      1  C   UNL     1     103.312 125.992  81.202  0.00  0.00    +0.000 C 
ATOM      2  C   UNL     1     102.304 125.815  82.071  0.00  0.00    +0.000 C 
ENDROOT
BRANCH   2   3
ATOM      3  C   UNL     1     101.458 126.903  82.580  0.00  0.00    +0.000 A 
ATOM      4  C   UNL     1     100.058 126.859  82.507  0.00  0.00    +0.000 A 
ATOM      5  C   UNL     1      99.286 127.902  83.030  0.00  0.00    +0.000 A 
ATOM      6  C   UNL     1      99.911 128.988  83.639  0.00  0.00    +0.000 A 
ATOM      7  C   UNL     1     101.298 129.038  83.735  0.00  0.00    +0.000 A 
ATOM      8  C   UNL     1     102.069 127.995  83.212  0.00  0.00    +0.000 A 
ATOM      9 CL   UNL     1      98.961 130.269  84.283  0.00  0.00    +0.000 Cl
ENDBRANCH   2   3
BRANCH   1  14
ATOM     10  C   UNL     1     105.010 121.432  81.111  0.00  0.00    +0.000 C 
ATOM     11  C   UNL     1     104.928 122.831  80.652  0.00  0.00    +0.000 A 
ATOM     12  C   UNL     1     105.567 123.546  79.668  0.00  0.00    +0.000 A 
ATOM     13  C   UNL     1     105.040 124.857  79.737  0.00  0.00    +0.000 A 
ATOM     14  C   UNL     1     104.099 124.892  80.761  0.00  0.00    +0.000 A 
ATOM     15  O   UNL     1     104.049 123.629  81.311  0.00  0.00    +0.000 OA
ENDBRANCH   1  14
TORSDOF 2
ENDMDL
