MODEL 1
REMARK VINA RESULT:      -4.7      0.000      0.000
REMARK  Name = *****
REMARK  3 active torsions:
REMARK  status: ('A' for Active; 'I' for Inactive)
REMARK    1  A    between atoms: C_1  and  C_2
REMARK    2  A    between atoms: C_5  and  C_8
REMARK    3  A    between atoms: C_9  and  N_10
REMARK                            x       y       z     vdW  Elec       q    Type
REMARK                         _______ _______ _______ _____ _____    ______ ____
ROOT
ATOM      1  C   UNL     1     102.087 125.916  82.205  0.00  0.00    +0.000 C 
ATOM      2  C   UNL     1     102.870 125.987  81.118  0.00  0.00    +0.000 C 
ENDROOT
BRANCH   1   7
ATOM      3  C   UNL     1      99.176 130.468  84.282  0.00  0.00    +0.000 C 
ATOM      4  C   UNL     1      99.937 129.278  83.779  0.00  0.00    +0.000 A 
ATOM      5  C   UNL     1     101.327 129.211  83.915  0.00  0.00    +0.000 A 
ATOM      6  C   UNL     1     102.038 128.114  83.416  0.00  0.00    +0.000 A 
ATOM      7  C   UNL     1     101.370 127.066  82.773  0.00  0.00    +0.000 A 
ATOM      8  C   UNL     1      99.983 127.150  82.609  0.00  0.00    +0.000 A 
ATOM      9  C   UNL     1      99.272 128.245  83.109  0.00  0.00    +0.000 A 
ENDBRANCH   1   7
BRANCH   2  10
ATOM     10  N   UNL     1     103.619 125.041  80.440  0.00  0.00    +0.000 N 
ATOM     11  C   UNL     1     104.516 124.186  81.225  0.00  0.00    +0.000 C 
ATOM     12  C   UNL     1     105.065 125.252  80.328  0.00  0.00    +0.000 C 
ATOM     13  C   UNL     1     105.787 124.775  79.107  0.00  0.00    +0.000 C 
ATOM     14  C   UNL     1     106.785 123.676  79.477  0.00  0.00    +0.000 C 
ATOM     15  C   UNL     1     106.216 122.575  80.394  0.00  0.00    +0.000 C 
ATOM     16  C   UNL     1     104.751 122.774  80.790  0.00  0.00    +0.000 C 
ENDBRANCH   2  10
TORSDOF 2
ENDMDL
