MODEL 1
REMARK VINA RESULT:      -4.2      0.000      0.000
REMARK  Name = *****
REMARK  5 active torsions:
REMARK  status: ('A' for Active; 'I' for Inactive)
REMARK    1  A    between atoms: C_1  and  O_2
REMARK    2  A    between atoms: O_2  and  C_3
REMARK    3  A    between atoms: C_3  and  C_5
REMARK    4  A    between atoms: C_5  and  C_12
REMARK    5  A    between atoms: C_6  and  C_7
REMARK                            x       y       z     vdW  Elec       q    Type
REMARK                         _______ _______ _______ _____ _____    ______ ____
ROOT
ATOM      1  C   UNL     1     102.723 126.071  82.343  0.00  0.00    +0.000 C 
ATOM      2  C   UNL     1     102.953 125.690  81.069  0.00  0.00    +0.000 C 
ENDROOT
BRANCH   1   3
ATOM      3  C   UNL     1     101.537 126.892  82.658  0.00  0.00    +0.000 A 
ATOM      4  C   UNL     1     101.670 128.125  83.315  0.00  0.00    +0.000 A 
ATOM      5  C   UNL     1     100.545 128.901  83.602  0.00  0.00    +0.000 A 
ATOM      6  C   UNL     1      99.277 128.455  83.233  0.00  0.00    +0.000 A 
ATOM      7  C   UNL     1      99.133 127.236  82.575  0.00  0.00    +0.000 A 
ATOM      8  C   UNL     1     100.257 126.458  82.287  0.00  0.00    +0.000 A 
ENDBRANCH   1   3
BRANCH   2   9
ATOM      9  C   UNL     1     104.081 124.935  80.633  0.00  0.00    +0.000 A 
ATOM     10  C   UNL     1     104.346 123.576  80.704  0.00  0.00    +0.000 A 
ATOM     11  C   UNL     1     105.612 123.222  80.154  0.00  0.00    +0.000 A 
ATOM     12  C   UNL     1     106.295 124.321  79.691  0.00  0.00    +0.000 A 
ATOM     13  S   UNL     1     105.419 125.766  79.930  0.00  0.00    +0.000 S 
ENDBRANCH   2   9
BRANCH   1  14
ATOM     14  C   UNL     1     103.642 125.692  83.445  0.00  0.00    +0.000 C 
ATOM     15  O   UNL     1     104.632 126.333  83.765  0.00  0.00    +0.000 OA
BRANCH  14  17
ATOM     16  C   UNL     1     104.212 123.680  84.477  0.00  0.00    +0.000 C 
ATOM     17  O   UNL     1     103.180 124.562  84.038  0.00  0.00    +0.000 OA
ENDBRANCH  14  17
ENDBRANCH   1  14
TORSDOF 4
ENDMDL
