REMARK  Name = *****
REMARK  4 active torsions:
REMARK  status: ('A' for Active; 'I' for Inactive)
REMARK    1  A    between atoms: C_4  and  S_7
REMARK    2  A    between atoms: S_7  and  N_8
REMARK    3  A    between atoms: N_8  and  C_9
REMARK    4  A    between atoms: C_9  and  C_10
REMARK                            x       y       z     vdW  Elec       q    Type
REMARK                         _______ _______ _______ _____ _____    ______ ____
ROOT
ATOM      1  N   UNL     1      -3.928  -0.987  -0.164  0.00  0.00    +0.000 NA
ENDROOT
BRANCH   1   2
ATOM      2  S   UNL     1      -3.239   0.537  -0.222  0.00  0.00    +0.000 S 
BRANCH   2   6
ATOM      3  C   UNL     1       1.037  -0.154   1.326  0.00  0.00    +0.000 A 
ATOM      4  C   UNL     1       0.173  -1.242   1.215  0.00  0.00    +0.000 A 
ATOM      5  C   UNL     1      -1.131  -1.057   0.747  0.00  0.00    +0.000 A 
ATOM      6  C   UNL     1      -1.586   0.217   0.386  0.00  0.00    +0.000 A 
ATOM      7  C   UNL     1      -0.707   1.302   0.503  0.00  0.00    +0.000 A 
ATOM      8  C   UNL     1       0.597   1.118   0.970  0.00  0.00    +0.000 A 
ENDBRANCH   2   6
ENDBRANCH   1   2
BRANCH   1   9
ATOM      9  C   UNL     1      -5.157  -1.033  -0.562  0.00  0.00    +0.000 C 
BRANCH   9  10
ATOM     10  C   UNL     1      -5.918  -2.300  -0.577  0.00  0.00    +0.000 A 
ATOM     11  C   UNL     1      -5.328  -3.498  -0.157  0.00  0.00    +0.000 A 
ATOM     12  C   UNL     1      -6.070  -4.681  -0.182  0.00  0.00    +0.000 A 
ATOM     13  C   UNL     1      -7.388  -4.655  -0.624  0.00  0.00    +0.000 A 
ATOM     14  C   UNL     1      -7.982  -3.469  -1.043  0.00  0.00    +0.000 A 
ATOM     15  C   UNL     1      -7.246  -2.282  -1.021  0.00  0.00    +0.000 A 
ATOM     16  F   UNL     1      -8.098  -5.790  -0.648  0.00  0.00    +0.000 F 
ENDBRANCH   9  10
ENDBRANCH   1   9
TORSDOF 4
