MODEL 1
REMARK VINA RESULT:      -5.0      0.000      0.000
REMARK  Name = *****
REMARK  7 active torsions:
REMARK  status: ('A' for Active; 'I' for Inactive)
REMARK    1  A    between atoms: C_1  and  C_2
REMARK    2  A    between atoms: C_3  and  C_17
REMARK    3  A    between atoms: C_4  and  C_16
REMARK    4  A    between atoms: C_5  and  C_15
REMARK    5  A    between atoms: C_6  and  C_7
REMARK    6  A    between atoms: C_7  and  C_8
REMARK    7  A    between atoms: C_9  and  C_10
REMARK                            x       y       z     vdW  Elec       q    Type
REMARK                         _______ _______ _______ _____ _____    ______ ____
ROOT
ATOM      1  C   UNL     1      87.901  72.326  84.156  0.00  0.00    +0.000 C 
ATOM      2  C   UNL     1      87.332  71.164  84.969  0.00  0.00    +0.000 C 
ATOM      3  C   UNL     1      86.141  71.574  85.811  0.00  0.00    +0.000 C 
ATOM      4  C   UNL     1      86.405  71.354  87.115  0.00  0.00    +0.000 C 
ATOM      5  C   UNL     1      87.742  70.778  87.247  0.00  0.00    +0.000 C 
ATOM      6  C   UNL     1      88.300  70.665  86.026  0.00  0.00    +0.000 C 
ATOM      7  C   UNL     1      88.287  70.354  88.569  0.00  0.00    +0.000 C 
ATOM      8  C   UNL     1      85.535  71.611  88.299  0.00  0.00    +0.000 C 
ATOM      9  C   UNL     1      84.902  72.099  85.174  0.00  0.00    +0.000 C 
ENDROOT
BRANCH   6  10
ATOM     10  C   UNL     1      89.572  70.100  85.657  0.00  0.00    +0.000 C 
BRANCH  10  11
ATOM     11  C   UNL     1      89.756  68.808  85.346  0.00  0.00    +0.000 C 
ATOM     12  C   UNL     1      89.906  67.773  86.348  0.00  0.00    +0.000 C 
BRANCH  12  13
ATOM     13  C   UNL     1      90.073  66.464  86.111  0.00  0.00    +0.000 C 
ATOM     14  C   UNL     1      89.170  65.431  86.588  0.00  0.00    +0.000 C 
ATOM     15  C   UNL     1      89.658  64.254  86.156  0.00  0.00    +0.000 C 
ATOM     16  C   UNL     1      90.872  64.491  85.399  0.00  0.00    +0.000 C 
ATOM     17  C   UNL     1      91.130  65.807  85.365  0.00  0.00    +0.000 C 
ENDBRANCH  12  13
ENDBRANCH  10  11
ENDBRANCH   6  10
TORSDOF 3
ENDMDL
