MODEL 1
REMARK VINA RESULT:      -4.5      0.000      0.000
REMARK  Name = *****
REMARK  5 active torsions:
REMARK  status: ('A' for Active; 'I' for Inactive)
REMARK    1  A    between atoms: C_1  and  C_2
REMARK    2  A    between atoms: C_4  and  C_16
REMARK    3  A    between atoms: C_6  and  C_8
REMARK    4  A    between atoms: C_8  and  O_10
REMARK    5  A    between atoms: O_10  and  C_11
REMARK                            x       y       z     vdW  Elec       q    Type
REMARK                         _______ _______ _______ _____ _____    ______ ____
ROOT
ATOM      1  C   UNL     1      85.059  71.939  86.700  0.00  0.00    +0.000 C 
ATOM      2  C   UNL     1      86.307  71.425  87.357  0.00  0.00    +0.000 A 
ATOM      3  C   UNL     1      86.476  71.531  88.743  0.00  0.00    +0.000 A 
ATOM      4  C   UNL     1      87.654  71.092  89.361  0.00  0.00    +0.000 A 
ATOM      5  C   UNL     1      88.668  70.525  88.577  0.00  0.00    +0.000 A 
ATOM      6  C   UNL     1      88.522  70.428  87.186  0.00  0.00    +0.000 A 
ATOM      7  C   UNL     1      87.342  70.886  86.583  0.00  0.00    +0.000 A 
ATOM      8  C   UNL     1      87.803  71.169  90.853  0.00  0.00    +0.000 C 
ENDROOT
BRANCH   6   9
ATOM      9  C   UNL     1      89.578  69.849  86.311  0.00  0.00    +0.000 C 
ATOM     10  O   UNL     1      89.989  70.395  85.298  0.00  0.00    +0.000 OA
BRANCH   9  11
ATOM     11  O   UNL     1      90.003  68.658  86.799  0.00  0.00    +0.000 OA
BRANCH  11  12
ATOM     12  C   UNL     1      89.459  67.505  86.157  0.00  0.00    +0.000 C 
ATOM     13  C   UNL     1      88.471  66.759  87.049  0.00  0.00    +0.000 C 
ATOM     14  C   UNL     1      88.489  65.323  86.534  0.00  0.00    +0.000 C 
ATOM     15  C   UNL     1      89.788  65.169  85.744  0.00  0.00    +0.000 C 
ATOM     16  C   UNL     1      90.555  66.466  85.956  0.00  0.00    +0.000 C 
ENDBRANCH  11  12
ENDBRANCH   9  11
ENDBRANCH   6   9
TORSDOF 3
ENDMDL
