REMARK  Name = *****
REMARK  6 active torsions:
REMARK  status: ('A' for Active; 'I' for Inactive)
REMARK    1  A    between atoms: C_1  and  C_2
REMARK    2  A    between atoms: C_2  and  C_3
REMARK    3  A    between atoms: C_2  and  C_10
REMARK    4  A    between atoms: C_2  and  O_16
REMARK    5  A    between atoms: C_3  and  C_4
REMARK    6  A    between atoms: O_16  and  C_17
REMARK                            x       y       z     vdW  Elec       q    Type
REMARK                         _______ _______ _______ _____ _____    ______ ____
ROOT
ATOM      1  C   UNL     1       3.078  -0.581  -1.368  0.00  0.00    +0.000 C 
ATOM      2  C   UNL     1       2.619  -0.025   0.000  0.00  0.00    +0.000 C 
ENDROOT
BRANCH   2   3
ATOM      3  C   UNL     1       3.307   1.344   0.197  0.00  0.00    +0.000 A 
ATOM      4  C   UNL     1       4.713   1.402   0.311  0.00  0.00    +0.000 A 
ATOM      5  C   UNL     1       5.383   2.615   0.489  0.00  0.00    +0.000 A 
ATOM      6  C   UNL     1       4.663   3.801   0.560  0.00  0.00    +0.000 A 
ATOM      7  C   UNL     1       3.275   3.772   0.459  0.00  0.00    +0.000 A 
ATOM      8  C   UNL     1       2.604   2.558   0.281  0.00  0.00    +0.000 A 
ENDBRANCH   2   3
BRANCH   2   9
ATOM      9  O   UNL     1       3.120  -0.959   0.979  0.00  0.00    +0.000 OA
ATOM     10  C   UNL     1       2.887  -0.635   2.345  0.00  0.00    +0.000 C 
ENDBRANCH   2   9
BRANCH   2  11
ATOM     11  C   UNL     1       1.055   0.032   0.011  0.00  0.00    +0.000 C 
BRANCH  11  12
ATOM     12  C   UNL     1       0.252  -1.247  -0.352  0.00  0.00    +0.000 C 
ATOM     13  C   UNL     1      -1.254  -0.910  -0.329  0.00  0.00    +0.000 C 
ATOM     14  C   UNL     1      -2.122  -2.113  -0.688  0.00  0.00    +0.000 C 
ATOM     15  C   UNL     1      -1.826  -3.304   0.214  0.00  0.00    +0.000 C 
ATOM     16  C   UNL     1      -0.344  -3.657   0.195  0.00  0.00    +0.000 C 
ATOM     17  C   UNL     1       0.533  -2.456   0.551  0.00  0.00    +0.000 C 
ENDBRANCH  11  12
ENDBRANCH   2  11
TORSDOF 4
