REMARK  Name = *****
REMARK  5 active torsions:
REMARK  status: ('A' for Active; 'I' for Inactive)
REMARK    1  A    between atoms: C_1  and  C_2
REMARK    2  A    between atoms: C_2  and  C_8
REMARK    3  A    between atoms: C_8  and  C_10
REMARK    4  A    between atoms: C_10  and  C_11
REMARK    5  A    between atoms: C_11  and  C_12
REMARK                            x       y       z     vdW  Elec       q    Type
REMARK                         _______ _______ _______ _____ _____    ______ ____
ROOT
ATOM      1  C   UNL     1       0.900  -0.101   1.982  0.00  0.00    +0.000 C 
ATOM      2  O   UNL     1       0.740  -1.192   2.534  0.00  0.00    +0.000 OA
ENDROOT
BRANCH   1   4
ATOM      3  C   UNL     1       2.446   0.109   0.055  0.00  0.00    +0.000 C 
ATOM      4  C   UNL     1       0.958   0.014   0.437  0.00  0.00    +0.000 C 
ATOM      5  C   UNL     1       0.210   1.257  -0.093  0.00  0.00    +0.000 C 
ATOM      6  C   UNL     1      -1.307   1.154   0.070  0.00  0.00    +0.000 C 
ATOM      7  C   UNL     1      -1.856  -0.105  -0.590  0.00  0.00    +0.000 C 
ATOM      8  C   UNL     1      -1.156  -1.357  -0.076  0.00  0.00    +0.000 C 
ATOM      9  C   UNL     1       0.363  -1.256  -0.223  0.00  0.00    +0.000 C 
ENDBRANCH   1   4
BRANCH   1  10
ATOM     10  C   UNL     1       1.098   1.163   2.806  0.00  0.00    +0.000 C 
BRANCH  10  11
ATOM     11  C   UNL     1       1.317   0.850   4.286  0.00  0.00    +0.000 C 
BRANCH  11  12
ATOM     12  C   UNL     1       1.548   2.109   5.083  0.00  0.00    +0.000 A 
ATOM     13  C   UNL     1       0.466   2.822   5.615  0.00  0.00    +0.000 A 
ATOM     14  C   UNL     1       0.679   4.000   6.332  0.00  0.00    +0.000 A 
ATOM     15  C   UNL     1       1.975   4.477   6.522  0.00  0.00    +0.000 A 
ATOM     16  C   UNL     1       3.058   3.778   5.993  0.00  0.00    +0.000 A 
ATOM     17  C   UNL     1       2.847   2.600   5.275  0.00  0.00    +0.000 A 
ENDBRANCH  11  12
ENDBRANCH  10  11
ENDBRANCH   1  10
TORSDOF 4
