MODEL 1
REMARK VINA RESULT:      -4.7      0.000      0.000
REMARK  Name = *****
REMARK  3 active torsions:
REMARK  status: ('A' for Active; 'I' for Inactive)
REMARK    1  A    between atoms: C_5  and  C_7
REMARK    2  A    between atoms: C_7  and  O_8
REMARK    3  A    between atoms: O_8  and  C_9
REMARK                            x       y       z     vdW  Elec       q    Type
REMARK                         _______ _______ _______ _____ _____    ______ ____
ROOT
ATOM      1  C   UNL     1     103.036 126.120  83.002  0.00  0.00    +0.000 A 
ATOM      2  C   UNL     1     103.502 124.811  82.819  0.00  0.00    +0.000 A 
ATOM      3  C   UNL     1     103.990 124.384  81.588  0.00  0.00    +0.000 A 
ATOM      4  C   UNL     1     104.019 125.260  80.514  0.00  0.00    +0.000 A 
ATOM      5  C   UNL     1     103.563 126.560  80.676  0.00  0.00    +0.000 A 
ATOM      6  C   UNL     1     103.075 126.990  81.909  0.00  0.00    +0.000 A 
ATOM      7  F   UNL     1     102.647 128.255  82.012  0.00  0.00    +0.000 F 
ATOM      8  F   UNL     1     103.592 127.411  79.640  0.00  0.00    +0.000 F 
ATOM      9  F   UNL     1     104.488 124.854  79.327  0.00  0.00    +0.000 F 
ATOM     10  F   UNL     1     104.429 123.127  81.439  0.00  0.00    +0.000 F 
ATOM     11  F   UNL     1     103.481 123.947  83.846  0.00  0.00    +0.000 F 
ENDROOT
BRANCH   1  12
ATOM     12  O   UNL     1     102.586 126.403  84.262  0.00  0.00    +0.000 OA
BRANCH  12  13
ATOM     13  C   UNL     1     101.174 126.402  84.491  0.00  0.00    +0.000 C 
BRANCH  13  18
ATOM     14  C   UNL     1     100.448 130.155  84.822  0.00  0.00    +0.000 A 
ATOM     15  C   UNL     1      99.462 130.337  83.857  0.00  0.00    +0.000 A 
ATOM     16  C   UNL     1      99.030 129.252  83.098  0.00  0.00    +0.000 A 
ATOM     17  C   UNL     1      99.582 127.984  83.305  0.00  0.00    +0.000 A 
ATOM     18  C   UNL     1     100.578 127.780  84.276  0.00  0.00    +0.000 A 
ATOM     19  C   UNL     1     101.002 128.890  85.030  0.00  0.00    +0.000 A 
ATOM     20 CL   UNL     1      98.997 126.687  82.321  0.00  0.00    +0.000 Cl
ENDBRANCH  13  18
ENDBRANCH  12  13
ENDBRANCH   1  12
TORSDOF 3
ENDMDL
