MODEL 1
REMARK VINA RESULT:      -4.7      0.000      0.000
REMARK  Name = *****
REMARK  0 active torsions:
REMARK  status: ('A' for Active; 'I' for Inactive)
REMARK                            x       y       z     vdW  Elec       q    Type
REMARK                         _______ _______ _______ _____ _____    ______ ____
ROOT
ATOM      1  C   UNL     1      88.488  70.832  88.746  0.00  0.00    +0.000 A 
ATOM      2  C   UNL     1      87.162  71.100  88.423  0.00  0.00    +0.000 A 
ATOM      3  C   UNL     1      86.596  70.539  87.276  0.00  0.00    +0.000 A 
ATOM      4  C   UNL     1      87.351  69.715  86.426  0.00  0.00    +0.000 A 
ATOM      5  C   UNL     1      88.697  69.457  86.748  0.00  0.00    +0.000 A 
ATOM      6  C   UNL     1      89.250  70.009  87.917  0.00  0.00    +0.000 A 
ATOM      7  C   UNL     1      89.612  68.612  85.938  0.00  0.00    +0.000 C 
ATOM      8  O   UNL     1      90.371  67.833  86.502  0.00  0.00    +0.000 OA
ATOM      9  S   UNL     1      89.690  68.801  84.187  0.00  0.00    +0.000 S 
ATOM     10  C   UNL     1      89.313  70.534  83.977  0.00  0.00    +0.000 A 
ATOM     11  C   UNL     1      90.402  71.420  83.967  0.00  0.00    +0.000 A 
ATOM     12  C   UNL     1      90.213  72.789  83.765  0.00  0.00    +0.000 A 
ATOM     13  C   UNL     1      88.931  73.290  83.557  0.00  0.00    +0.000 A 
ATOM     14  C   UNL     1      87.840  72.422  83.557  0.00  0.00    +0.000 A 
ATOM     15  C   UNL     1      88.018  71.044  83.780  0.00  0.00    +0.000 A 
ATOM     16  C   UNL     1      86.777  70.226  83.774  0.00  0.00    +0.000 C 
ATOM     17  O   UNL     1      85.910  70.451  82.936  0.00  0.00    +0.000 OA
ATOM     18  S   UNL     1      86.500  69.014  85.022  0.00  0.00    +0.000 S 
ENDROOT
TORSDOF 0
ENDMDL
