REMARK  Name = *****
REMARK  4 active torsions:
REMARK  status: ('A' for Active; 'I' for Inactive)
REMARK    1  A    between atoms: C_1  and  C_2
REMARK    2  A    between atoms: C_5  and  C_8
REMARK    3  A    between atoms: C_9  and  C_10
REMARK    4  A    between atoms: C_15  and  C_16
REMARK                            x       y       z     vdW  Elec       q    Type
REMARK                         _______ _______ _______ _____ _____    ______ ____
ROOT
ATOM      1  C   UNL     1      -3.263   0.158  -0.123  0.00  0.00    +0.000 C 
ATOM      2  C   UNL     1      -4.013   1.259   0.042  0.00  0.00    +0.000 C 
ENDROOT
BRANCH   1   7
ATOM      3  C   UNL     1       2.524  -0.057   0.012  0.00  0.00    +0.000 C 
ATOM      4  C   UNL     1       1.027   0.031  -0.040  0.00  0.00    +0.000 A 
ATOM      5  C   UNL     1       0.338   0.904   0.809  0.00  0.00    +0.000 A 
ATOM      6  C   UNL     1      -1.059   0.963   0.784  0.00  0.00    +0.000 A 
ATOM      7  C   UNL     1      -1.793   0.152  -0.089  0.00  0.00    +0.000 A 
ATOM      8  C   UNL     1      -1.101  -0.743  -0.915  0.00  0.00    +0.000 A 
ATOM      9  C   UNL     1       0.296  -0.803  -0.891  0.00  0.00    +0.000 A 
ENDBRANCH   1   7
BRANCH   2  10
ATOM     10  C   UNL     1      -5.487   1.250  -0.014  0.00  0.00    +0.000 A 
ATOM     11  C   UNL     1      -6.205   0.286   0.715  0.00  0.00    +0.000 A 
ATOM     12  C   UNL     1      -7.602   0.271   0.705  0.00  0.00    +0.000 A 
ATOM     13  C   UNL     1      -8.303   1.225  -0.026  0.00  0.00    +0.000 A 
ATOM     14  C   UNL     1      -7.608   2.198  -0.744  0.00  0.00    +0.000 A 
ATOM     15  C   UNL     1      -6.206   2.221  -0.739  0.00  0.00    +0.000 A 
BRANCH  15  16
ATOM     16  C   UNL     1      -5.547   3.244  -1.501  0.00  0.00    +0.000 C 
ATOM     17  C   UNL     1      -4.999   4.102  -2.140  0.00  0.00    +0.000 C 
ENDBRANCH  15  16
ENDBRANCH   2  10
TORSDOF 3
