MODEL 1
REMARK VINA RESULT:      -4.3      0.000      0.000
REMARK  Name = *****
REMARK  4 active torsions:
REMARK  status: ('A' for Active; 'I' for Inactive)
REMARK    1  A    between atoms: C_1  and  O_2
REMARK    2  A    between atoms: O_2  and  C_3
REMARK    3  A    between atoms: C_8  and  C_9
REMARK    4  A    between atoms: C_11  and  C_12
REMARK                            x       y       z     vdW  Elec       q    Type
REMARK                         _______ _______ _______ _____ _____    ______ ____
ROOT
ATOM      1  C   UNL     1      87.654  63.839  86.326  0.00  0.00    +0.000 C 
ATOM      2  C   UNL     1      86.216  63.607  86.729  0.00  0.00    +0.000 C 
ATOM      3  C   UNL     1      87.315  62.976  87.535  0.00  0.00    +0.000 C 
ENDROOT
BRANCH   1   9
ATOM      4  C   UNL     1      89.606  65.511  86.168  0.00  0.00    +0.000 A 
ATOM      5  C   UNL     1      90.106  66.817  86.275  0.00  0.00    +0.000 A 
ATOM      6  C   UNL     1      89.268  67.868  86.645  0.00  0.00    +0.000 A 
ATOM      7  C   UNL     1      87.931  67.621  86.923  0.00  0.00    +0.000 A 
ATOM      8  C   UNL     1      87.429  66.323  86.816  0.00  0.00    +0.000 A 
ATOM      9  C   UNL     1      88.236  65.242  86.413  0.00  0.00    +0.000 A 
BRANCH   4  11
ATOM     10  C   UNL     1      91.569  64.644  85.111  0.00  0.00    +0.000 C 
ATOM     11  O   UNL     1      90.374  64.418  85.847  0.00  0.00    +0.000 OA
ENDBRANCH   4  11
ENDBRANCH   1   9
BRANCH   3  12
ATOM     12  C   UNL     1      87.640  63.394  88.956  0.00  0.00    +0.000 A 
ATOM     13  C   UNL     1      88.947  63.522  89.454  0.00  0.00    +0.000 A 
ATOM     14  C   UNL     1      89.196  63.926  90.771  0.00  0.00    +0.000 A 
ATOM     15  C   UNL     1      88.137  64.220  91.623  0.00  0.00    +0.000 A 
ATOM     16  C   UNL     1      86.830  64.115  91.157  0.00  0.00    +0.000 A 
ATOM     17  C   UNL     1      86.591  63.712  89.841  0.00  0.00    +0.000 A 
ENDBRANCH   3  12
TORSDOF 3
ENDMDL
