MODEL 1
REMARK VINA RESULT:      -4.7      0.000      0.000
REMARK  Name = *****
REMARK  2 active torsions:
REMARK  status: ('A' for Active; 'I' for Inactive)
REMARK    1  A    between atoms: C_4  and  C_7
REMARK    2  A    between atoms: C_8  and  C_9
REMARK                            x       y       z     vdW  Elec       q    Type
REMARK                         _______ _______ _______ _____ _____    ______ ____
ROOT
ATOM      1  C   UNL     1     102.330 125.656  82.338  0.00  0.00    +0.000 C 
ATOM      2  C   UNL     1     102.998 125.989  81.222  0.00  0.00    +0.000 C 
ENDROOT
BRANCH   2   3
ATOM      3  C   UNL     1     103.806 125.013  80.401  0.00  0.00    +0.000 C 
ATOM      4  C   UNL     1     104.220 123.811  81.267  0.00  0.00    +0.000 C 
ATOM      5  C   UNL     1     105.065 122.820  80.468  0.00  0.00    +0.000 C 
ATOM      6  C   UNL     1     106.302 123.483  79.879  0.00  0.00    +0.000 C 
ATOM      7  C   UNL     1     105.915 124.714  79.095  0.00  0.00    +0.000 C 
ATOM      8  O   UNL     1     106.391 124.946  77.985  0.00  0.00    +0.000 OA
ATOM      9  C   UNL     1     105.030 125.713  79.804  0.00  0.00    +0.000 C 
ENDBRANCH   2   3
BRANCH   1  13
ATOM     10  C   UNL     1     100.010 129.171  83.403  0.00  0.00    +0.000 C 
ATOM     11  C   UNL     1      99.288 127.829  83.314  0.00  0.00    +0.000 C 
ATOM     12  C   UNL     1     100.112 126.796  82.548  0.00  0.00    +0.000 C 
ATOM     13  C   UNL     1     101.516 126.634  83.151  0.00  0.00    +0.000 C 
ATOM     14  C   UNL     1     102.235 127.988  83.234  0.00  0.00    +0.000 C 
ATOM     15  C   UNL     1     101.407 129.019  83.998  0.00  0.00    +0.000 C 
ENDBRANCH   1  13
TORSDOF 2
ENDMDL
