REMARK  Name = *****
REMARK  3 active torsions:
REMARK  status: ('A' for Active; 'I' for Inactive)
REMARK    1  A    between atoms: C_4  and  C_7
REMARK    2  A    between atoms: C_7  and  O_8
REMARK    3  A    between atoms: O_8  and  C_9
REMARK                            x       y       z     vdW  Elec       q    Type
REMARK                         _______ _______ _______ _____ _____    ______ ____
ROOT
ATOM      1  O   UNL     1       3.257  -1.914   0.186  0.00  0.00    +0.000 OA
ENDROOT
BRANCH   1   2
ATOM      2  C   UNL     1       4.485  -2.363  -0.218  0.00  0.00    +0.000 A 
ATOM      3  C   UNL     1       5.443  -1.598  -0.864  0.00  0.00    +0.000 A 
ATOM      4  N   UNL     1       6.645  -2.086  -1.241  0.00  0.00    +0.000 NA
ATOM      5  N   UNL     1       6.950  -3.385  -0.981  0.00  0.00    +0.000 NA
ATOM      6  C   UNL     1       6.047  -4.164  -0.348  0.00  0.00    +0.000 A 
ATOM      7  C   UNL     1       4.806  -3.697   0.053  0.00  0.00    +0.000 A 
ATOM      8 CL   UNL     1       3.667  -4.723   0.860  0.00  0.00    +0.000 Cl
ATOM      9 CL   UNL     1       6.596  -5.775  -0.099  0.00  0.00    +0.000 Cl
ENDBRANCH   1   2
BRANCH   1  10
ATOM     10  C   UNL     1       2.859  -0.601  -0.212  0.00  0.00    +0.000 C 
BRANCH  10  14
ATOM     11  C   UNL     1      -1.413   0.350  -0.268  0.00  0.00    +0.000 C 
ATOM     12  C   UNL     1      -1.003  -1.086   0.038  0.00  0.00    +0.000 C 
ATOM     13  C   UNL     1       0.441  -1.361  -0.376  0.00  0.00    +0.000 C 
ATOM     14  C   UNL     1       1.418  -0.356   0.259  0.00  0.00    +0.000 C 
ATOM     15  C   UNL     1       0.992   1.086  -0.049  0.00  0.00    +0.000 C 
ATOM     16  C   UNL     1      -0.454   1.352   0.365  0.00  0.00    +0.000 C 
ENDBRANCH  10  14
ENDBRANCH   1  10
TORSDOF 3
