REMARK  Name = *****
REMARK  1 active torsions:
REMARK  status: ('A' for Active; 'I' for Inactive)
REMARK    1  A    between atoms: C_4  and  N_7
REMARK                            x       y       z     vdW  Elec       q    Type
REMARK                         _______ _______ _______ _____ _____    ______ ____
ROOT
ATOM      1  N   UNL     1      -1.798  -0.801   0.860  0.00  0.00    +0.000 N 
ATOM      2  S   UNL     1      -1.789  -0.900   2.549  0.00  0.00    +0.000 S 
ATOM      3  O   UNL     1      -0.626  -1.687   3.076  0.00  0.00    +0.000 OA
ATOM      4  C   UNL     1      -3.173  -2.020   2.563  0.00  0.00    +0.000 A 
ATOM      5  C   UNL     1      -3.592  -2.715   3.695  0.00  0.00    +0.000 A 
ATOM      6  C   UNL     1      -4.706  -3.552   3.607  0.00  0.00    +0.000 A 
ATOM      7  C   UNL     1      -5.393  -3.683   2.396  0.00  0.00    +0.000 A 
ATOM      8  C   UNL     1      -4.964  -2.986   1.265  0.00  0.00    +0.000 A 
ATOM      9  C   UNL     1      -3.844  -2.162   1.359  0.00  0.00    +0.000 A 
ATOM     10  S   UNL     1      -3.159  -1.277  -0.029  0.00  0.00    +0.000 S 
ATOM     11  O   UNL     1      -4.096  -0.124  -0.239  0.00  0.00    +0.000 OA
ENDROOT
BRANCH   1  15
ATOM     12  C   UNL     1       1.373   1.224  -1.142  0.00  0.00    +0.000 A 
ATOM     13  C   UNL     1       1.651   0.306  -0.136  0.00  0.00    +0.000 A 
ATOM     14  C   UNL     1       0.605  -0.348   0.525  0.00  0.00    +0.000 A 
ATOM     15  C   UNL     1      -0.742  -0.107   0.197  0.00  0.00    +0.000 A 
ATOM     16  C   UNL     1      -0.991   0.827  -0.827  0.00  0.00    +0.000 A 
ATOM     17  C   UNL     1       0.052   1.487  -1.487  0.00  0.00    +0.000 A 
ENDBRANCH   1  15
TORSDOF 1
