MODEL 1
REMARK VINA RESULT:      -5.1      0.000      0.000
REMARK  Name = *****
REMARK  2 active torsions:
REMARK  status: ('A' for Active; 'I' for Inactive)
REMARK    1  A    between atoms: C_3  and  N_9
REMARK    2  A    between atoms: C_10  and  C_11
REMARK                            x       y       z     vdW  Elec       q    Type
REMARK                         _______ _______ _______ _____ _____    ______ ____
ROOT
ATOM      1  N   UNL     1     101.766 125.923  82.106  0.00  0.00    +0.000 NA
ATOM      2  C   UNL     1     102.869 126.287  81.531  0.00  0.00    +0.000 C 
ENDROOT
BRANCH   1   5
ATOM      3  C   UNL     1     100.680 129.057  83.751  0.00  0.00    +0.000 A 
ATOM      4  C   UNL     1     101.478 128.028  83.240  0.00  0.00    +0.000 A 
ATOM      5  C   UNL     1     100.906 126.940  82.568  0.00  0.00    +0.000 A 
ATOM      6  C   UNL     1      99.511 126.893  82.441  0.00  0.00    +0.000 A 
ATOM      7  C   UNL     1      98.721 127.917  82.950  0.00  0.00    +0.000 A 
ATOM      8  C   UNL     1      99.296 129.002  83.604  0.00  0.00    +0.000 A 
ATOM      9  F   UNL     1      97.387 127.870  82.813  0.00  0.00    +0.000 F 
ATOM     10  F   UNL     1      98.924 125.859  81.815  0.00  0.00    +0.000 F 
ENDBRANCH   1   5
BRANCH   2  11
ATOM     11  C   UNL     1     103.823 125.295  80.999  0.00  0.00    +0.000 A 
ATOM     12  C   UNL     1     104.557 125.559  79.840  0.00  0.00    +0.000 A 
ATOM     13  C   UNL     1     105.448 124.600  79.367  0.00  0.00    +0.000 A 
ATOM     14  C   UNL     1     105.617 123.390  80.026  0.00  0.00    +0.000 A 
ATOM     15  C   UNL     1     104.879 123.144  81.176  0.00  0.00    +0.000 A 
ATOM     16  C   UNL     1     103.982 124.083  81.674  0.00  0.00    +0.000 A 
ATOM     17  F   UNL     1     105.032 121.980  81.820  0.00  0.00    +0.000 F 
ATOM     18  F   UNL     1     106.155 124.849  78.257  0.00  0.00    +0.000 F 
ENDBRANCH   2  11
TORSDOF 2
ENDMDL
