REMARK  Name = *****
REMARK  5 active torsions:
REMARK  status: ('A' for Active; 'I' for Inactive)
REMARK    1  A    between atoms: C_1  and  C_2
REMARK    2  A    between atoms: C_5  and  S_8
REMARK    3  A    between atoms: S_8  and  S_11
REMARK    4  A    between atoms: S_11  and  C_12
REMARK    5  A    between atoms: C_12  and  C_13
REMARK                            x       y       z     vdW  Elec       q    Type
REMARK                         _______ _______ _______ _____ _____    ______ ____
ROOT
ATOM      1  S   UNL     1      -3.561   0.004  -0.156  0.00  0.00    +0.000 S 
ATOM      2  O   UNL     1      -3.892  -0.417  -1.503  0.00  0.00    +0.000 OA
ATOM      3  O   UNL     1      -4.055  -0.716   1.000  0.00  0.00    +0.000 OA
ENDROOT
BRANCH   1   8
ATOM      4  C   UNL     1       2.486   0.236   0.337  0.00  0.00    +0.000 C 
ATOM      5  C   UNL     1       0.992   0.150   0.216  0.00  0.00    +0.000 A 
ATOM      6  C   UNL     1       0.395  -0.081  -1.031  0.00  0.00    +0.000 A 
ATOM      7  C   UNL     1      -0.994  -0.133  -1.152  0.00  0.00    +0.000 A 
ATOM      8  C   UNL     1      -1.790   0.068  -0.022  0.00  0.00    +0.000 A 
ATOM      9  C   UNL     1      -1.209   0.300   1.228  0.00  0.00    +0.000 A 
ATOM     10  C   UNL     1       0.181   0.350   1.341  0.00  0.00    +0.000 A 
ENDBRANCH   1   8
BRANCH   1  11
ATOM     11  S   UNL     1      -4.129   1.998   0.036  0.00  0.00    +0.000 S 
BRANCH  11  12
ATOM     12  C   UNL     1      -3.833   2.597  -1.643  0.00  0.00    +0.000 C 
BRANCH  12  13
ATOM     13  C   UNL     1      -4.000   4.092  -1.737  0.00  0.00    +0.000 A 
ATOM     14  C   UNL     1      -2.915   4.947  -1.491  0.00  0.00    +0.000 A 
ATOM     15  C   UNL     1      -3.074   6.332  -1.567  0.00  0.00    +0.000 A 
ATOM     16  C   UNL     1      -4.317   6.876  -1.882  0.00  0.00    +0.000 A 
ATOM     17  C   UNL     1      -5.404   6.037  -2.119  0.00  0.00    +0.000 A 
ATOM     18  C   UNL     1      -5.248   4.652  -2.045  0.00  0.00    +0.000 A 
ENDBRANCH  12  13
ENDBRANCH  11  12
ENDBRANCH   1  11
TORSDOF 4
