MODEL 1
REMARK VINA RESULT:      -4.4      0.000      0.000
REMARK  Name = *****
REMARK  1 active torsions:
REMARK  status: ('A' for Active; 'I' for Inactive)
REMARK    1  A    between atoms: N_9  and  C_10
REMARK                            x       y       z     vdW  Elec       q    Type
REMARK                         _______ _______ _______ _____ _____    ______ ____
ROOT
ATOM      1  C   UNL     1      90.760  64.423  84.995  0.00  0.00    +0.000 C 
ATOM      2  C   UNL     1      89.685  63.794  85.893  0.00  0.00    +0.000 C 
ATOM      3  C   UNL     1      88.534  64.759  86.212  0.00  0.00    +0.000 C 
ATOM      4  C   UNL     1      89.110  66.053  86.758  0.00  0.00    +0.000 C 
ATOM      5  C   UNL     1      90.041  66.700  85.742  0.00  0.00    +0.000 C 
ATOM      6  C   UNL     1      91.238  65.788  85.500  0.00  0.00    +0.000 C 
ATOM      7  O   UNL     1      90.419  67.977  86.255  0.00  0.00    +0.000 OA
ATOM      8  C   UNL     1      89.314  68.538  86.844  0.00  0.00    +0.000 C 
ATOM      9  N   UNL     1      89.365  69.781  87.186  0.00  0.00    +0.000 NA
ATOM     10  S   UNL     1      87.971  67.413  87.076  0.00  0.00    +0.000 S 
ENDROOT
BRANCH   9  11
ATOM     11  C   UNL     1      88.264  70.387  87.802  0.00  0.00    +0.000 A 
ATOM     12  C   UNL     1      88.238  70.565  89.188  0.00  0.00    +0.000 A 
ATOM     13  C   UNL     1      87.153  71.195  89.802  0.00  0.00    +0.000 A 
ATOM     14  C   UNL     1      86.093  71.666  89.027  0.00  0.00    +0.000 A 
ATOM     15  C   UNL     1      86.123  71.514  87.641  0.00  0.00    +0.000 A 
ATOM     16  C   UNL     1      87.209  70.883  87.031  0.00  0.00    +0.000 A 
ENDBRANCH   9  11
TORSDOF 1
ENDMDL
