MODEL 1
REMARK VINA RESULT:      -4.7      0.000      0.000
REMARK  Name = *****
REMARK  6 active torsions:
REMARK  status: ('A' for Active; 'I' for Inactive)
REMARK    1  A    between atoms: C_1  and  C_2
REMARK    2  A    between atoms: C_4  and  C_8
REMARK    3  A    between atoms: C_8  and  O_10
REMARK    4  A    between atoms: O_10  and  C_11
REMARK    5  A    between atoms: C_12  and  C_18
REMARK    6  A    between atoms: C_16  and  C_17
REMARK                            x       y       z     vdW  Elec       q    Type
REMARK                         _______ _______ _______ _____ _____    ______ ____
ROOT
ATOM      1  C   UNL     1      88.137  70.384  86.976  0.00  0.00    +0.000 C 
ATOM      2  O   UNL     1      89.256  70.640  87.394  0.00  0.00    +0.000 OA
ENDROOT
BRANCH   1   6
ATOM      3  C   UNL     1      83.730  72.753  86.230  0.00  0.00    +0.000 C 
ATOM      4  C   UNL     1      84.791  72.220  87.148  0.00  0.00    +0.000 A 
ATOM      5  C   UNL     1      85.928  71.586  86.625  0.00  0.00    +0.000 A 
ATOM      6  C   UNL     1      86.907  71.058  87.479  0.00  0.00    +0.000 A 
ATOM      7  C   UNL     1      86.737  71.162  88.866  0.00  0.00    +0.000 A 
ATOM      8  C   UNL     1      85.600  71.776  89.392  0.00  0.00    +0.000 A 
ATOM      9  C   UNL     1      84.629  72.297  88.536  0.00  0.00    +0.000 A 
ENDBRANCH   1   6
BRANCH   1  10
ATOM     10  O   UNL     1      87.794  69.458  86.010  0.00  0.00    +0.000 OA
BRANCH  10  11
ATOM     11  C   UNL     1      88.557  68.282  86.062  0.00  0.00    +0.000 A 
ATOM     12  C   UNL     1      88.202  67.278  86.976  0.00  0.00    +0.000 A 
ATOM     13  C   UNL     1      88.962  66.102  86.998  0.00  0.00    +0.000 A 
ATOM     14  C   UNL     1      90.023  65.928  86.109  0.00  0.00    +0.000 A 
ATOM     15  C   UNL     1      90.340  66.924  85.184  0.00  0.00    +0.000 A 
ATOM     16  C   UNL     1      89.600  68.112  85.137  0.00  0.00    +0.000 A 
ATOM     17  C   UNL     1      89.957  69.185  84.152  0.00  0.00    +0.000 C 
ATOM     18  C   UNL     1      87.075  67.464  87.949  0.00  0.00    +0.000 C 
ENDBRANCH  10  11
ENDBRANCH   1  10
TORSDOF 3
ENDMDL
