MODEL 1
REMARK VINA RESULT:      -4.1      0.000      0.000
REMARK  Name = *****
REMARK  3 active torsions:
REMARK  status: ('A' for Active; 'I' for Inactive)
REMARK    1  A    between atoms: C_2  and  C_16
REMARK    2  A    between atoms: C_4  and  C_6
REMARK    3  A    between atoms: C_7  and  C_8
REMARK                            x       y       z     vdW  Elec       q    Type
REMARK                         _______ _______ _______ _____ _____    ______ ____
ROOT
ATOM      1  C   UNL     1      95.306 114.003  77.974  0.00  0.00    +0.000 C 
ATOM      2  C   UNL     1      95.006 114.985  76.846  0.00  0.00    +0.000 C 
ATOM      3  C   UNL     1      96.425 115.438  76.486  0.00  0.00    +0.000 C 
ATOM      4  C   UNL     1      97.181 115.404  77.839  0.00  0.00    +0.000 C 
ATOM      5  O   UNL     1      96.409 114.545  78.714  0.00  0.00    +0.000 OA
ATOM      6 CL   UNL     1      97.162 114.196  75.374  0.00  0.00    +0.000 Cl
ATOM      7 CL   UNL     1      96.511 116.988  75.601  0.00  0.00    +0.000 Cl
ENDROOT
BRANCH   4   8
ATOM      8  C   UNL     1      97.341 116.702  78.586  0.00  0.00    +0.000 C 
ATOM      9  C   UNL     1      96.756 116.958  79.769  0.00  0.00    +0.000 C 
BRANCH   9  10
ATOM     10  C   UNL     1      96.917 118.227  80.488  0.00  0.00    +0.000 A 
ATOM     11  C   UNL     1      95.817 118.949  80.967  0.00  0.00    +0.000 A 
ATOM     12  C   UNL     1      96.003 120.141  81.672  0.00  0.00    +0.000 A 
ATOM     13  C   UNL     1      97.291 120.616  81.909  0.00  0.00    +0.000 A 
ATOM     14  C   UNL     1      98.394 119.898  81.449  0.00  0.00    +0.000 A 
ATOM     15  C   UNL     1      98.207 118.705  80.746  0.00  0.00    +0.000 A 
ENDBRANCH   9  10
ENDBRANCH   4   8
BRANCH   2  16
ATOM     16  C   UNL     1      94.076 116.107  77.322  0.00  0.00    +0.000 C 
ATOM     17 CL   UNL     1      93.349 115.708  78.907  0.00  0.00    +0.000 Cl
ENDBRANCH   2  16
TORSDOF 3
ENDMDL
