MODEL 1
REMARK VINA RESULT:      -4.9      0.000      0.000
REMARK  Name = *****
REMARK  1 active torsions:
REMARK  status: ('A' for Active; 'I' for Inactive)
REMARK    1  A    between atoms: C_4  and  C_7
REMARK                            x       y       z     vdW  Elec       q    Type
REMARK                         _______ _______ _______ _____ _____    ______ ____
ROOT
ATOM      1  C   UNL     1     102.486 126.136  82.355  0.00  0.00    +0.000 A 
ATOM      2  N   UNL     1     102.744 127.284  82.961  0.00  0.00    +0.000 NA
ATOM      3  C   UNL     1     101.507 127.852  83.129  0.00  0.00    +0.000 A 
ATOM      4  C   UNL     1     100.532 127.015  82.611  0.00  0.00    +0.000 A 
ATOM      5  O   UNL     1     101.154 125.908  82.112  0.00  0.00    +0.000 OA
ATOM      6  C   UNL     1      99.178 127.310  82.629  0.00  0.00    +0.000 A 
ATOM      7  C   UNL     1      98.797 128.524  83.203  0.00  0.00    +0.000 A 
ATOM      8  C   UNL     1      99.754 129.395  83.736  0.00  0.00    +0.000 A 
ATOM      9  C   UNL     1     101.122 129.071  83.705  0.00  0.00    +0.000 A 
ATOM     10  F   UNL     1      98.260 126.480  82.120  0.00  0.00    +0.000 F 
ENDROOT
BRANCH   1  14
ATOM     11  C   UNL     1     105.210 123.125  81.019  0.00  0.00    +0.000 A 
ATOM     12  C   UNL     1     104.724 124.082  80.131  0.00  0.00    +0.000 A 
ATOM     13  C   UNL     1     103.834 125.062  80.578  0.00  0.00    +0.000 A 
ATOM     14  C   UNL     1     103.419 125.100  81.919  0.00  0.00    +0.000 A 
ATOM     15  C   UNL     1     103.920 124.129  82.801  0.00  0.00    +0.000 A 
ATOM     16  C   UNL     1     104.809 123.148  82.354  0.00  0.00    +0.000 A 
ENDBRANCH   1  14
TORSDOF 1
ENDMDL
