MODEL 1
REMARK VINA RESULT:      -4.6      0.000      0.000
REMARK  Name = *****
REMARK  4 active torsions:
REMARK  status: ('A' for Active; 'I' for Inactive)
REMARK    1  A    between atoms: C_4  and  O_10
REMARK    2  A    between atoms: C_5  and  C_7
REMARK    3  A    between atoms: O_10  and  C_11
REMARK    4  A    between atoms: C_11  and  C_12
REMARK                            x       y       z     vdW  Elec       q    Type
REMARK                         _______ _______ _______ _____ _____    ______ ____
ROOT
ATOM      1  C   UNL     1      84.508  72.274  87.737  0.00  0.00    +0.000 A 
ATOM      2  C   UNL     1      85.031  72.012  86.475  0.00  0.00    +0.000 A 
ATOM      3  C   UNL     1      86.302  71.443  86.340  0.00  0.00    +0.000 A 
ATOM      4  C   UNL     1      87.071  71.134  87.470  0.00  0.00    +0.000 A 
ATOM      5  C   UNL     1      86.546  71.423  88.741  0.00  0.00    +0.000 A 
ATOM      6  C   UNL     1      85.261  71.978  88.870  0.00  0.00    +0.000 A 
ENDROOT
BRANCH   5   7
ATOM      7  C   UNL     1      87.300  71.160  89.998  0.00  0.00    +0.000 C 
ATOM      8  O   UNL     1      86.969  70.162  90.639  0.00  0.00    +0.000 OA
ATOM      9 CL   UNL     1      88.498  72.312  90.546  0.00  0.00    +0.000 Cl
ENDBRANCH   5   7
BRANCH   4  10
ATOM     10  O   UNL     1      88.295  70.525  87.423  0.00  0.00    +0.000 OA
BRANCH  10  11
ATOM     11  C   UNL     1      88.708  69.932  86.193  0.00  0.00    +0.000 C 
BRANCH  11  12
ATOM     12  C   UNL     1      88.878  68.446  86.407  0.00  0.00    +0.000 A 
ATOM     13  C   UNL     1      89.978  67.766  85.866  0.00  0.00    +0.000 A 
ATOM     14  C   UNL     1      90.133  66.395  86.083  0.00  0.00    +0.000 A 
ATOM     15  C   UNL     1      89.202  65.689  86.840  0.00  0.00    +0.000 A 
ATOM     16  C   UNL     1      88.108  66.357  87.387  0.00  0.00    +0.000 A 
ATOM     17  C   UNL     1      87.948  67.726  87.174  0.00  0.00    +0.000 A 
ATOM     18 CL   UNL     1      91.488  65.574  85.411  0.00  0.00    +0.000 Cl
ENDBRANCH  11  12
ENDBRANCH  10  11
ENDBRANCH   4  10
TORSDOF 4
ENDMDL
