MODEL 1
REMARK VINA RESULT:      -4.8      0.000      0.000
REMARK  Name = *****
REMARK  2 active torsions:
REMARK  status: ('A' for Active; 'I' for Inactive)
REMARK    1  A    between atoms: P_3  and  C_11
REMARK    2  A    between atoms: C_11  and  C_12
REMARK                            x       y       z     vdW  Elec       q    Type
REMARK                         _______ _______ _______ _____ _____    ______ ____
ROOT
ATOM      1  C   UNL     1      98.770 128.043  83.014  0.00  0.00    +0.000 C 
ATOM      2  C   UNL     1      99.424 126.763  82.501  0.00  0.00    +0.000 C 
ATOM      3  P   UNL     1     101.116 126.679  83.287  0.00  0.00    +0.000 P 
ATOM      4  C   UNL     1     100.961 128.424  83.992  0.00  0.00    +0.000 C 
ATOM      5  C   UNL     1      99.873 129.108  83.144  0.00  0.00    +0.000 C 
ATOM      6  C   UNL     1      99.307 130.385  83.702  0.00  0.00    +0.000 C 
ATOM      7  C   UNL     1      99.858 131.257  84.556  0.00  0.00    +0.000 C 
ATOM      8  C   UNL     1     101.169 131.261  85.153  0.00  0.00    +0.000 C 
ATOM      9  C   UNL     1     102.202 130.434  84.944  0.00  0.00    +0.000 C 
ATOM     10  C   UNL     1     102.267 129.200  84.095  0.00  0.00    +0.000 C 
ENDROOT
BRANCH   3  11
ATOM     11  C   UNL     1     102.133 126.893  81.774  0.00  0.00    +0.000 C 
BRANCH  11  12
ATOM     12  C   UNL     1     103.063 125.706  81.725  0.00  0.00    +0.000 A 
ATOM     13  C   UNL     1     103.325 124.926  82.866  0.00  0.00    +0.000 A 
ATOM     14  C   UNL     1     104.152 123.802  82.794  0.00  0.00    +0.000 A 
ATOM     15  C   UNL     1     104.714 123.427  81.577  0.00  0.00    +0.000 A 
ATOM     16  C   UNL     1     104.444 124.169  80.430  0.00  0.00    +0.000 A 
ATOM     17  C   UNL     1     103.617 125.294  80.503  0.00  0.00    +0.000 A 
ENDBRANCH  11  12
ENDBRANCH   3  11
TORSDOF 2
ENDMDL
