REMARK  Name = *****
REMARK  3 active torsions:
REMARK  status: ('A' for Active; 'I' for Inactive)
REMARK    1  A    between atoms: C_4  and  C_6
REMARK    2  A    between atoms: C_6  and  C_7
REMARK    3  A    between atoms: C_8  and  C_9
REMARK                            x       y       z     vdW  Elec       q    Type
REMARK                         _______ _______ _______ _____ _____    ______ ____
ROOT
ATOM      1  C   UNL     1       1.264  -3.228   0.768  0.00  0.00    +0.000 C 
ATOM      2  C   UNL     1       1.616  -4.119   1.709  0.00  0.00    +0.000 C 
ENDROOT
BRANCH   2   3
ATOM      3  C   UNL     1       2.803  -4.983   1.632  0.00  0.00    +0.000 A 
ATOM      4  C   UNL     1       4.005  -4.559   1.051  0.00  0.00    +0.000 A 
ATOM      5  C   UNL     1       5.121  -5.401   1.028  0.00  0.00    +0.000 A 
ATOM      6  C   UNL     1       5.049  -6.672   1.593  0.00  0.00    +0.000 A 
ATOM      7  C   UNL     1       3.864  -7.100   2.187  0.00  0.00    +0.000 A 
ATOM      8  C   UNL     1       2.749  -6.258   2.212  0.00  0.00    +0.000 A 
ENDBRANCH   2   3
BRANCH   1   9
ATOM      9  C   UNL     1       0.034  -2.356   0.856  0.00  0.00    +0.000 C 
BRANCH   9  13
ATOM     10  C   UNL     1       2.705  -0.118   1.967  0.00  0.00    +0.000 C 
ATOM     11  C   UNL     1       2.508   0.699   0.707  0.00  0.00    +0.000 C 
ATOM     12  S   UNL     1       1.250  -0.110  -0.321  0.00  0.00    +0.000 S 
ATOM     13  C   UNL     1       0.268  -0.842   1.041  0.00  0.00    +0.000 C 
ATOM     14  S   UNL     1       1.060  -0.451   2.640  0.00  0.00    +0.000 S 
ENDBRANCH   9  13
ENDBRANCH   1   9
TORSDOF 3
