MODEL 1
REMARK VINA RESULT:      -4.1      0.000      0.000
REMARK  Name = *****
REMARK  3 active torsions:
REMARK  status: ('A' for Active; 'I' for Inactive)
REMARK    1  A    between atoms: C_2  and  C_3
REMARK    2  A    between atoms: C_2  and  S_9
REMARK    3  A    between atoms: S_9  and  C_10
REMARK                            x       y       z     vdW  Elec       q    Type
REMARK                         _______ _______ _______ _____ _____    ______ ____
ROOT
ATOM      1  C   UNL     1      89.039  70.286  87.698  0.00  0.00    +0.000 C 
ATOM      2  C   UNL     1      88.210  70.474  86.663  0.00  0.00    +0.000 C 
ENDROOT
BRANCH   2   3
ATOM      3  C   UNL     1      86.909  71.142  86.844  0.00  0.00    +0.000 A 
ATOM      4  C   UNL     1      86.393  71.376  88.128  0.00  0.00    +0.000 A 
ATOM      5  C   UNL     1      85.159  72.010  88.294  0.00  0.00    +0.000 A 
ATOM      6  C   UNL     1      84.427  72.415  87.180  0.00  0.00    +0.000 A 
ATOM      7  C   UNL     1      84.926  72.186  85.899  0.00  0.00    +0.000 A 
ATOM      8  C   UNL     1      86.158  71.551  85.732  0.00  0.00    +0.000 A 
ENDBRANCH   2   3
BRANCH   2   9
ATOM      9  S   UNL     1      88.679  70.001  85.062  0.00  0.00    +0.000 S 
BRANCH   9  10
ATOM     10  C   UNL     1      89.931  71.257  84.665  0.00  0.00    +0.000 C 
ATOM     11  C   UNL     1      89.342  72.539  84.081  0.00  0.00    +0.000 C 
ATOM     12  C   UNL     1      90.512  73.189  83.344  0.00  0.00    +0.000 C 
ATOM     13  C   UNL     1      91.517  72.071  83.065  0.00  0.00    +0.000 C 
ATOM     14  C   UNL     1      90.852  70.784  83.543  0.00  0.00    +0.000 C 
ENDBRANCH   9  10
ENDBRANCH   2   9
TORSDOF 3
ENDMDL
