REMARK  Name = *****
REMARK  4 active torsions:
REMARK  status: ('A' for Active; 'I' for Inactive)
REMARK    1  A    between atoms: C_4  and  N_7
REMARK    2  A    between atoms: C_4  and  O_9
REMARK    3  A    between atoms: O_9  and  C_10
REMARK    4  A    between atoms: C_10  and  C_12
REMARK                            x       y       z     vdW  Elec       q    Type
REMARK                         _______ _______ _______ _____ _____    ______ ____
ROOT
ATOM      1  O   UNL     1       2.624  -0.900  -0.411  0.00  0.00    +0.000 OA
ENDROOT
BRANCH   1   5
ATOM      2  C   UNL     1      -1.382   0.428  -0.265  0.00  0.00    +0.000 C 
ATOM      3  C   UNL     1      -1.129  -0.956   0.318  0.00  0.00    +0.000 C 
ATOM      4  C   UNL     1       0.261  -1.482  -0.045  0.00  0.00    +0.000 C 
ATOM      5  C   UNL     1       1.420  -0.521   0.318  0.00  0.00    +0.000 C 
ATOM      6  C   UNL     1       1.093   0.894  -0.228  0.00  0.00    +0.000 C 
ATOM      7  C   UNL     1      -0.295   1.411   0.146  0.00  0.00    +0.000 C 
BRANCH   5   8
ATOM      8  N   UNL     1       1.523  -0.407   1.829  0.00  0.00    +0.000 NA
ATOM      9  O   UNL     1       2.677  -0.173   2.208  0.00  0.00    +0.000 OA
ENDBRANCH   5   8
ENDBRANCH   1   5
BRANCH   1  10
ATOM     10  C   UNL     1       3.190  -2.099  -0.149  0.00  0.00    +0.000 C 
ATOM     11  O   UNL     1       2.769  -2.950   0.616  0.00  0.00    +0.000 OA
BRANCH  10  12
ATOM     12  C   UNL     1       4.421  -2.278  -0.967  0.00  0.00    +0.000 A 
ATOM     13  C   UNL     1       5.111  -3.494  -0.864  0.00  0.00    +0.000 A 
ATOM     14  C   UNL     1       6.266  -3.716  -1.618  0.00  0.00    +0.000 A 
ATOM     15  C   UNL     1       6.737  -2.725  -2.478  0.00  0.00    +0.000 A 
ATOM     16  C   UNL     1       6.059  -1.511  -2.584  0.00  0.00    +0.000 A 
ATOM     17  C   UNL     1       4.904  -1.285  -1.831  0.00  0.00    +0.000 A 
ENDBRANCH  10  12
ENDBRANCH   1  10
TORSDOF 4
