MODEL 1
REMARK VINA RESULT:      -4.9      0.000      0.000
REMARK  Name = *****
REMARK  2 active torsions:
REMARK  status: ('A' for Active; 'I' for Inactive)
REMARK    1  A    between atoms: C_4  and  C_7
REMARK    2  A    between atoms: C_8  and  C_9
REMARK                            x       y       z     vdW  Elec       q    Type
REMARK                         _______ _______ _______ _____ _____    ______ ____
ROOT
ATOM      1  C   UNL     1     102.827 125.610  81.848  0.00  0.00    +0.000 C 
ATOM      2  C   UNL     1     102.002 126.387  82.247  0.00  0.00    +0.000 C 
ENDROOT
BRANCH   2   3
ATOM      3  C   UNL     1     101.020 127.319  82.719  0.00  0.00    +0.000 A 
ATOM      4  C   UNL     1      99.667 127.064  82.475  0.00  0.00    +0.000 A 
ATOM      5  C   UNL     1      98.674 127.938  82.913  0.00  0.00    +0.000 A 
ATOM      6  C   UNL     1      99.025 129.090  83.612  0.00  0.00    +0.000 A 
ATOM      7  C   UNL     1     100.371 129.362  83.866  0.00  0.00    +0.000 A 
ATOM      8  C   UNL     1     101.365 128.480  83.422  0.00  0.00    +0.000 A 
ATOM      9 BR   UNL     1     103.172 128.928  83.812  0.00  0.00    +0.000 Br
ATOM     10  F   UNL     1      99.293 125.963  81.805  0.00  0.00    +0.000 F 
ENDBRANCH   2   3
BRANCH   1  14
ATOM     11  C   UNL     1     105.748 122.909  80.433  0.00  0.00    +0.000 A 
ATOM     12  C   UNL     1     105.164 122.711  81.685  0.00  0.00    +0.000 A 
ATOM     13  C   UNL     1     104.198 123.604  82.154  0.00  0.00    +0.000 A 
ATOM     14  C   UNL     1     103.815 124.695  81.370  0.00  0.00    +0.000 A 
ATOM     15  C   UNL     1     104.401 124.892  80.117  0.00  0.00    +0.000 A 
ATOM     16  C   UNL     1     105.367 123.999  79.649  0.00  0.00    +0.000 A 
ENDBRANCH   1  14
TORSDOF 2
ENDMDL
