MODEL 1
REMARK VINA RESULT:      -4.4      0.000      0.000
REMARK  Name = *****
REMARK  5 active torsions:
REMARK  status: ('A' for Active; 'I' for Inactive)
REMARK    1  A    between atoms: C_1  and  C_2
REMARK    2  A    between atoms: C_2  and  O_3
REMARK    3  A    between atoms: O_3  and  C_4
REMARK    4  A    between atoms: C_4  and  C_12
REMARK    5  A    between atoms: N_5  and  C_6
REMARK                            x       y       z     vdW  Elec       q    Type
REMARK                         _______ _______ _______ _____ _____    ______ ____
ROOT
ATOM      1  C   UNL     1     102.807 125.993  81.693  0.00  0.00    +0.000 C 
ATOM      2  N   UNL     1     101.745 125.971  82.420  0.00  0.00    +0.000 NA
ENDROOT
BRANCH   2   3
ATOM      3  C   UNL     1     100.907 127.173  82.449  0.00  0.00    +0.000 C 
ATOM      4  C   UNL     1     101.283 127.972  83.702  0.00  0.00    +0.000 C 
ATOM      5  C   UNL     1     100.371 129.182  83.892  0.00  0.00    +0.000 C 
ATOM      6  C   UNL     1      98.900 128.778  83.917  0.00  0.00    +0.000 C 
ATOM      7  C   UNL     1      98.516 127.969  82.681  0.00  0.00    +0.000 C 
ATOM      8  C   UNL     1      99.430 126.761  82.493  0.00  0.00    +0.000 C 
ENDBRANCH   2   3
BRANCH   1   9
ATOM      9  C   UNL     1     103.706 124.821  81.635  0.00  0.00    +0.000 A 
ATOM     10  C   UNL     1     103.980 124.076  82.789  0.00  0.00    +0.000 A 
ATOM     11  C   UNL     1     104.819 122.964  82.711  0.00  0.00    +0.000 A 
ATOM     12  C   UNL     1     105.370 122.590  81.485  0.00  0.00    +0.000 A 
ATOM     13  C   UNL     1     105.078 123.320  80.331  0.00  0.00    +0.000 A 
ATOM     14  C   UNL     1     104.239 124.433  80.403  0.00  0.00    +0.000 A 
ENDBRANCH   1   9
BRANCH   1  15
ATOM     15  O   UNL     1     103.165 127.080  80.967  0.00  0.00    +0.000 OA
BRANCH  15  17
ATOM     16  C   UNL     1     104.697 128.765  80.240  0.00  0.00    +0.000 C 
ATOM     17  C   UNL     1     104.237 127.930  81.420  0.00  0.00    +0.000 C 
ENDBRANCH  15  17
ENDBRANCH   1  15
TORSDOF 4
ENDMDL
