REMARK  Name = *****
REMARK  3 active torsions:
REMARK  status: ('A' for Active; 'I' for Inactive)
REMARK    1  A    between atoms: C_4  and  C_7
REMARK    2  A    between atoms: C_7  and  O_8
REMARK    3  A    between atoms: O_8  and  C_9
REMARK                            x       y       z     vdW  Elec       q    Type
REMARK                         _______ _______ _______ _____ _____    ______ ____
ROOT
ATOM      1  C   UNL     1      -2.876   0.473  -0.189  0.00  0.00    +0.000 C 
ENDROOT
BRANCH   1   5
ATOM      2  C   UNL     1       1.386  -0.175   0.116  0.00  0.00    +0.000 A 
ATOM      3  C   UNL     1       0.583  -1.129  -0.504  0.00  0.00    +0.000 A 
ATOM      4  C   UNL     1      -0.796  -0.930  -0.596  0.00  0.00    +0.000 A 
ATOM      5  C   UNL     1      -1.390   0.222  -0.057  0.00  0.00    +0.000 A 
ATOM      6  C   UNL     1      -0.566   1.182   0.551  0.00  0.00    +0.000 A 
ATOM      7  C   UNL     1       0.813   0.981   0.641  0.00  0.00    +0.000 A 
ENDBRANCH   1   5
BRANCH   1   8
ATOM      8  O   UNL     1      -3.595  -0.753  -0.049  0.00  0.00    +0.000 OA
BRANCH   8   9
ATOM      9  C   UNL     1      -4.952  -0.701  -0.213  0.00  0.00    +0.000 A 
ATOM     10  C   UNL     1      -5.711   0.450  -0.429  0.00  0.00    +0.000 A 
ATOM     11  C   UNL     1      -7.099   0.357  -0.579  0.00  0.00    +0.000 A 
ATOM     12  C   UNL     1      -7.732  -0.884  -0.513  0.00  0.00    +0.000 A 
ATOM     13  C   UNL     1      -6.978  -2.034  -0.295  0.00  0.00    +0.000 A 
ATOM     14  C   UNL     1      -5.594  -1.940  -0.145  0.00  0.00    +0.000 A 
ENDBRANCH   8   9
ENDBRANCH   1   8
TORSDOF 3
