REMARK  Name = *****
REMARK  3 active torsions:
REMARK  status: ('A' for Active; 'I' for Inactive)
REMARK    1  A    between atoms: C_5  and  N_7
REMARK    2  A    between atoms: N_7  and  N_8
REMARK    3  A    between atoms: N_8  and  C_10
REMARK                            x       y       z     vdW  Elec       q    Type
REMARK                         _______ _______ _______ _____ _____    ______ ____
ROOT
ATOM      1  N   UNL     1      -1.088   0.335   1.037  0.00  0.00    +0.000 NA
ATOM      2  O   UNL     1      -0.427  -0.234   2.148  0.00  0.00    +0.000 OA
ENDROOT
BRANCH   1   7
ATOM      3  C   UNL     1       1.167  -1.557  -1.538  0.00  0.00    +0.000 C 
ATOM      4  C   UNL     1       0.649  -0.944  -2.831  0.00  0.00    +0.000 C 
ATOM      5  C   UNL     1       0.218   0.506  -2.629  0.00  0.00    +0.000 C 
ATOM      6  C   UNL     1      -0.776   0.680  -1.472  0.00  0.00    +0.000 C 
ATOM      7  C   UNL     1      -0.185   0.109  -0.139  0.00  0.00    +0.000 C 
ATOM      8  C   UNL     1       0.190  -1.388  -0.372  0.00  0.00    +0.000 C 
ATOM      9 CL   UNL     1      -2.350  -0.079  -1.942  0.00  0.00    +0.000 Cl
ENDBRANCH   1   7
BRANCH   1  10
ATOM     10  N   UNL     1      -1.445   1.750   1.317  0.00  0.00    +0.000 NA
ATOM     11  O   UNL     1      -0.777   2.630   0.783  0.00  0.00    +0.000 OA
BRANCH  10  12
ATOM     12  C   UNL     1      -2.607   2.188   2.146  0.00  0.00    +0.000 C 
ATOM     13  C   UNL     1      -2.725   1.441   3.478  0.00  0.00    +0.000 C 
ATOM     14  C   UNL     1      -3.478   0.106   3.428  0.00  0.00    +0.000 C 
ATOM     15  C   UNL     1      -4.759   0.165   2.606  0.00  0.00    +0.000 C 
ATOM     16  C   UNL     1      -4.512   0.748   1.217  0.00  0.00    +0.000 C 
ATOM     17  C   UNL     1      -3.903   2.143   1.337  0.00  0.00    +0.000 C 
ATOM     18 CL   UNL     1      -3.826   2.952  -0.256  0.00  0.00    +0.000 Cl
ENDBRANCH  10  12
ENDBRANCH   1  10
TORSDOF 3
