MODEL 1
REMARK VINA RESULT:      -4.4      0.000      0.000
REMARK  Name = *****
REMARK  2 active torsions:
REMARK  status: ('A' for Active; 'I' for Inactive)
REMARK    1  A    between atoms: C_4  and  S_7
REMARK    2  A    between atoms: S_7  and  C_8
REMARK                            x       y       z     vdW  Elec       q    Type
REMARK                         _______ _______ _______ _____ _____    ______ ____
ROOT
ATOM      1  C   UNL     1      89.066  64.499  86.356  0.00  0.00    +0.000 A 
ATOM      2  C   UNL     1      89.198  65.893  86.484  0.00  0.00    +0.000 A 
ATOM      3  C   UNL     1      88.425  66.975  86.994  0.00  0.00    +0.000 A 
ATOM      4  C   UNL     1      89.170  68.113  86.794  0.00  0.00    +0.000 A 
ATOM      5  O   UNL     1      90.350  67.814  86.194  0.00  0.00    +0.000 OA
ATOM      6  C   UNL     1      90.376  66.464  86.003  0.00  0.00    +0.000 A 
ATOM      7  N   UNL     1      91.413  65.829  85.429  0.00  0.00    +0.000 NA
ATOM      8  C   UNL     1      91.239  64.495  85.344  0.00  0.00    +0.000 A 
ATOM      9  C   UNL     1      90.125  63.794  85.779  0.00  0.00    +0.000 A 
ENDROOT
BRANCH   1  10
ATOM     10  S   UNL     1      87.594  63.722  86.961  0.00  0.00    +0.000 S 
BRANCH  10  14
ATOM     11  C   UNL     1      87.963  64.282  91.495  0.00  0.00    +0.000 A 
ATOM     12  C   UNL     1      86.758  64.552  90.846  0.00  0.00    +0.000 A 
ATOM     13  C   UNL     1      86.653  64.378  89.465  0.00  0.00    +0.000 A 
ATOM     14  C   UNL     1      87.755  63.939  88.723  0.00  0.00    +0.000 A 
ATOM     15  C   UNL     1      88.957  63.656  89.382  0.00  0.00    +0.000 A 
ATOM     16  C   UNL     1      89.061  63.832  90.764  0.00  0.00    +0.000 A 
ENDBRANCH  10  14
ENDBRANCH   1  10
TORSDOF 2
ENDMDL
