MODEL 1
REMARK VINA RESULT:      -4.5      0.000      0.000
REMARK  Name = *****
REMARK  4 active torsions:
REMARK  status: ('A' for Active; 'I' for Inactive)
REMARK    1  A    between atoms: C_1  and  C_2
REMARK    2  A    between atoms: C_5  and  S_8
REMARK    3  A    between atoms: S_8  and  N_9
REMARK    4  A    between atoms: N_9  and  C_10
REMARK                            x       y       z     vdW  Elec       q    Type
REMARK                         _______ _______ _______ _____ _____    ______ ____
ROOT
ATOM      1  S   UNL     1      88.908  64.191  86.479  0.00  0.00    +0.000 S 
ENDROOT
BRANCH   1   6
ATOM      2  C   UNL     1      89.018  70.255  87.124  0.00  0.00    +0.000 C 
ATOM      3  C   UNL     1      88.983  68.767  86.935  0.00  0.00    +0.000 A 
ATOM      4  C   UNL     1      87.918  68.014  87.441  0.00  0.00    +0.000 A 
ATOM      5  C   UNL     1      87.901  66.624  87.297  0.00  0.00    +0.000 A 
ATOM      6  C   UNL     1      88.951  65.969  86.648  0.00  0.00    +0.000 A 
ATOM      7  C   UNL     1      90.027  66.717  86.162  0.00  0.00    +0.000 A 
ATOM      8  C   UNL     1      90.045  68.107  86.307  0.00  0.00    +0.000 A 
ENDBRANCH   1   6
BRANCH   1   9
ATOM      9  N   UNL     1      89.182  63.757  88.066  0.00  0.00    +0.000 N 
ATOM     10  H   UNL     1      90.109  63.743  88.398  0.00  0.00    +0.000 HD
BRANCH   9  11
ATOM     11  C   UNL     1      88.137  63.406  88.953  0.00  0.00    +0.000 A 
ATOM     12  C   UNL     1      87.117  62.499  88.635  0.00  0.00    +0.000 A 
ATOM     13  C   UNL     1      86.072  62.242  89.530  0.00  0.00    +0.000 A 
ATOM     14  C   UNL     1      86.016  62.910  90.750  0.00  0.00    +0.000 A 
ATOM     15  C   UNL     1      86.996  63.843  91.070  0.00  0.00    +0.000 A 
ATOM     16  C   UNL     1      88.039  64.096  90.173  0.00  0.00    +0.000 A 
ENDBRANCH   9  11
ENDBRANCH   1   9
TORSDOF 3
ENDMDL
