MODEL 1
REMARK VINA RESULT:      -4.3      0.000      0.000
REMARK  Name = *****
REMARK  5 active torsions:
REMARK  status: ('A' for Active; 'I' for Inactive)
REMARK    1  A    between atoms: C_1  and  O_2
REMARK    2  A    between atoms: O_2  and  C_3
REMARK    3  A    between atoms: C_3  and  C_4
REMARK    4  A    between atoms: C_3  and  C_11
REMARK    5  A    between atoms: C_4  and  C_5
REMARK                            x       y       z     vdW  Elec       q    Type
REMARK                         _______ _______ _______ _____ _____    ______ ____
ROOT
ATOM      1  C   UNL     1      88.350  70.427  85.769  0.00  0.00    +0.000 C 
ENDROOT
BRANCH   1   2
ATOM      2  C   UNL     1      87.113  71.015  86.433  0.00  0.00    +0.000 A 
ATOM      3  C   UNL     1      87.005  71.012  87.834  0.00  0.00    +0.000 A 
ATOM      4  C   UNL     1      85.893  71.575  88.464  0.00  0.00    +0.000 A 
ATOM      5  C   UNL     1      84.876  72.149  87.705  0.00  0.00    +0.000 A 
ATOM      6  C   UNL     1      84.970  72.162  86.315  0.00  0.00    +0.000 A 
ATOM      7  C   UNL     1      86.082  71.600  85.683  0.00  0.00    +0.000 A 
ENDBRANCH   1   2
BRANCH   1   9
ATOM      8  C   UNL     1      90.357  71.044  84.632  0.00  0.00    +0.000 C 
ATOM      9  O   UNL     1      89.076  71.458  85.084  0.00  0.00    +0.000 OA
ENDBRANCH   1   9
BRANCH   1  10
ATOM     10  C   UNL     1      89.236  69.645  86.772  0.00  0.00    +0.000 C 
BRANCH  10  11
ATOM     11  C   UNL     1      89.154  68.130  86.701  0.00  0.00    +0.000 C 
ATOM     12  C   UNL     1      90.124  67.398  86.122  0.00  0.00    +0.000 C 
ATOM     13  C   UNL     1      90.083  65.902  85.995  0.00  0.00    +0.000 C 
ATOM     14  C   UNL     1      88.719  65.303  86.337  0.00  0.00    +0.000 C 
ATOM     15  C   UNL     1      88.118  65.976  87.565  0.00  0.00    +0.000 C 
ATOM     16  C   UNL     1      87.947  67.480  87.337  0.00  0.00    +0.000 C 
ENDBRANCH  10  11
ENDBRANCH   1  10
TORSDOF 4
ENDMDL
