MODEL 1
REMARK VINA RESULT:      -4.6      0.000      0.000
REMARK  Name = *****
REMARK  4 active torsions:
REMARK  status: ('A' for Active; 'I' for Inactive)
REMARK    1  A    between atoms: C_1  and  S_2
REMARK    2  A    between atoms: S_2  and  C_4
REMARK    3  A    between atoms: C_9  and  C_10
REMARK    4  A    between atoms: C_11  and  C_12
REMARK                            x       y       z     vdW  Elec       q    Type
REMARK                         _______ _______ _______ _____ _____    ______ ____
ROOT
ATOM      1  C   UNL     1     101.292 128.225  83.379  0.00  0.00    +0.000 A 
ATOM      2  C   UNL     1     100.219 128.937  83.935  0.00  0.00    +0.000 A 
ATOM      3  C   UNL     1      98.902 128.551  83.682  0.00  0.00    +0.000 A 
ATOM      4  C   UNL     1      98.643 127.445  82.875  0.00  0.00    +0.000 A 
ATOM      5  C   UNL     1      99.702 126.723  82.324  0.00  0.00    +0.000 A 
ATOM      6  C   UNL     1     101.027 127.103  82.573  0.00  0.00    +0.000 A 
ENDROOT
BRANCH   1   8
ATOM      7  C   UNL     1     102.571 130.305  84.567  0.00  0.00    +0.000 C 
ATOM      8  S   UNL     1     102.993 128.757  83.726  0.00  0.00    +0.000 S 
ATOM      9  O   UNL     1     103.517 127.814  84.771  0.00  0.00    +0.000 OA
ENDBRANCH   1   8
BRANCH   6  10
ATOM     10  C   UNL     1     102.077 126.319  81.991  0.00  0.00    +0.000 C 
ATOM     11  C   UNL     1     102.952 125.664  81.492  0.00  0.00    +0.000 C 
BRANCH  11  12
ATOM     12  C   UNL     1     103.992 124.893  80.887  0.00  0.00    +0.000 A 
ATOM     13  C   UNL     1     104.278 123.610  81.360  0.00  0.00    +0.000 A 
ATOM     14  C   UNL     1     105.293 122.856  80.766  0.00  0.00    +0.000 A 
ATOM     15  C   UNL     1     106.020 123.383  79.699  0.00  0.00    +0.000 A 
ATOM     16  C   UNL     1     105.737 124.664  79.226  0.00  0.00    +0.000 A 
ATOM     17  C   UNL     1     104.722 125.419  79.819  0.00  0.00    +0.000 A 
ENDBRANCH  11  12
ENDBRANCH   6  10
TORSDOF 3
ENDMDL
