REMARK  Name = *****
REMARK  5 active torsions:
REMARK  status: ('A' for Active; 'I' for Inactive)
REMARK    1  A    between atoms: C_1  and  C_2
REMARK    2  A    between atoms: C_4  and  C_8
REMARK    3  A    between atoms: C_8  and  C_9
REMARK    4  A    between atoms: C_9  and  C_10
REMARK    5  A    between atoms: C_10  and  C_12
REMARK                            x       y       z     vdW  Elec       q    Type
REMARK                         _______ _______ _______ _____ _____    ______ ____
ROOT
ATOM      1  C   UNL     1      -0.949   3.666  -0.391  0.00  0.00    +0.000 C 
ENDROOT
BRANCH   1   2
ATOM      2  C   UNL     1      -1.729   4.960  -0.528  0.00  0.00    +0.000 C 
ATOM      3  O   UNL     1      -2.952   5.006  -0.403  0.00  0.00    +0.000 OA
BRANCH   2   4
ATOM      4  C   UNL     1      -0.981   6.220  -0.826  0.00  0.00    +0.000 A 
ATOM      5  C   UNL     1      -1.712   7.407  -0.994  0.00  0.00    +0.000 A 
ATOM      6  C   UNL     1      -1.058   8.610  -1.276  0.00  0.00    +0.000 A 
ATOM      7  C   UNL     1       0.329   8.632  -1.391  0.00  0.00    +0.000 A 
ATOM      8  C   UNL     1       1.068   7.461  -1.225  0.00  0.00    +0.000 A 
ATOM      9  C   UNL     1       0.415   6.255  -0.943  0.00  0.00    +0.000 A 
ATOM     10 CL   UNL     1       1.137  10.110  -1.738  0.00  0.00    +0.000 Cl
ENDBRANCH   2   4
ENDBRANCH   1   2
BRANCH   1  11
ATOM     11  C   UNL     1      -1.870   2.474  -0.135  0.00  0.00    +0.000 C 
BRANCH  11  15
ATOM     12  C   UNL     1       0.285  -1.549  -2.282  0.00  0.00    +0.000 C 
ATOM     13  C   UNL     1      -0.008  -0.732  -1.059  0.00  0.00    +0.000 A 
ATOM     14  C   UNL     1      -0.769   0.441  -1.156  0.00  0.00    +0.000 A 
ATOM     15  C   UNL     1      -1.081   1.193  -0.014  0.00  0.00    +0.000 A 
ATOM     16  C   UNL     1      -0.626   0.755   1.235  0.00  0.00    +0.000 A 
ATOM     17  C   UNL     1       0.118  -0.420   1.342  0.00  0.00    +0.000 A 
ATOM     18  C   UNL     1       0.421  -1.163   0.201  0.00  0.00    +0.000 A 
ENDBRANCH  11  15
ENDBRANCH   1  11
TORSDOF 4
