MODEL 1
REMARK VINA RESULT:      -4.4      0.000      0.000
REMARK  Name = *****
REMARK  4 active torsions:
REMARK  status: ('A' for Active; 'I' for Inactive)
REMARK    1  A    between atoms: C_1  and  C_2
REMARK    2  A    between atoms: C_7  and  C_8
REMARK    3  A    between atoms: C_8  and  O_10
REMARK    4  A    between atoms: O_10  and  C_11
REMARK                            x       y       z     vdW  Elec       q    Type
REMARK                         _______ _______ _______ _____ _____    ______ ____
ROOT
ATOM      1  C   UNL     1      88.602  70.529  85.678  0.00  0.00    +0.000 C 
ATOM      2  O   UNL     1      89.716  71.014  85.806  0.00  0.00    +0.000 OA
ENDROOT
BRANCH   1   9
ATOM      3  C   UNL     1      88.369  70.314  88.709  0.00  0.00    +0.000 C 
ATOM      4  C   UNL     1      87.305  70.920  87.838  0.00  0.00    +0.000 A 
ATOM      5  C   UNL     1      86.149  71.437  88.447  0.00  0.00    +0.000 A 
ATOM      6  C   UNL     1      85.119  71.989  87.683  0.00  0.00    +0.000 A 
ATOM      7  C   UNL     1      85.225  72.033  86.296  0.00  0.00    +0.000 A 
ATOM      8  C   UNL     1      86.369  71.540  85.673  0.00  0.00    +0.000 A 
ATOM      9  C   UNL     1      87.419  71.005  86.436  0.00  0.00    +0.000 A 
ENDBRANCH   1   9
BRANCH   1  10
ATOM     10  O   UNL     1      88.236  69.423  84.938  0.00  0.00    +0.000 OA
BRANCH  10  11
ATOM     11  C   UNL     1      88.353  68.220  85.638  0.00  0.00    +0.000 A 
ATOM     12  C   UNL     1      89.613  67.692  85.918  0.00  0.00    +0.000 A 
ATOM     13  C   UNL     1      89.709  66.516  86.664  0.00  0.00    +0.000 A 
ATOM     14  C   UNL     1      88.549  65.897  87.133  0.00  0.00    +0.000 A 
ATOM     15  C   UNL     1      87.292  66.443  86.866  0.00  0.00    +0.000 A 
ATOM     16  C   UNL     1      87.191  67.618  86.118  0.00  0.00    +0.000 A 
ATOM     17 CL   UNL     1      88.669  64.450  88.057  0.00  0.00    +0.000 Cl
ENDBRANCH  10  11
ENDBRANCH   1  10
TORSDOF 3
ENDMDL
