MODEL 1
REMARK VINA RESULT:      -4.5      0.000      0.000
REMARK  Name = *****
REMARK  5 active torsions:
REMARK  status: ('A' for Active; 'I' for Inactive)
REMARK    1  A    between atoms: C_1  and  C_2
REMARK    2  A    between atoms: C_3  and  O_9
REMARK    3  A    between atoms: C_4  and  C_8
REMARK    4  A    between atoms: O_9  and  C_10
REMARK    5  A    between atoms: C_10  and  C_12
REMARK                            x       y       z     vdW  Elec       q    Type
REMARK                         _______ _______ _______ _____ _____    ______ ____
ROOT
ATOM      1  O   UNL     1     101.674 127.055  82.347  0.00  0.00    +0.000 OA
ENDROOT
BRANCH   1   4
ATOM      2  C   UNL     1     103.385 128.935  83.687  0.00  0.00    +0.000 C 
ATOM      3  C   UNL     1     101.889 129.000  83.770  0.00  0.00    +0.000 A 
ATOM      4  C   UNL     1     101.074 128.047  83.136  0.00  0.00    +0.000 A 
ATOM      5  C   UNL     1      99.673 128.109  83.196  0.00  0.00    +0.000 A 
ATOM      6  C   UNL     1      99.086 129.118  83.967  0.00  0.00    +0.000 A 
ATOM      7  C   UNL     1      99.879 130.054  84.633  0.00  0.00    +0.000 A 
ATOM      8  C   UNL     1     101.270 129.995  84.535  0.00  0.00    +0.000 A 
ATOM      9  C   UNL     1      98.814 127.096  82.497  0.00  0.00    +0.000 C 
ENDBRANCH   1   4
BRANCH   1  10
ATOM     10  C   UNL     1     102.067 125.941  83.064  0.00  0.00    +0.000 C 
ATOM     11  O   UNL     1     101.681 125.595  84.170  0.00  0.00    +0.000 OA
BRANCH  10  12
ATOM     12  C   UNL     1     103.086 125.181  82.285  0.00  0.00    +0.000 A 
ATOM     13  C   UNL     1     103.265 125.515  80.936  0.00  0.00    +0.000 A 
ATOM     14  C   UNL     1     104.206 124.836  80.160  0.00  0.00    +0.000 A 
ATOM     15  C   UNL     1     104.976 123.822  80.727  0.00  0.00    +0.000 A 
ATOM     16  C   UNL     1     104.807 123.484  82.070  0.00  0.00    +0.000 A 
ATOM     17  C   UNL     1     103.865 124.161  82.850  0.00  0.00    +0.000 A 
ENDBRANCH  10  12
ENDBRANCH   1  10
TORSDOF 3
ENDMDL
