MODEL 1
REMARK VINA RESULT:      -3.8      0.000      0.000
REMARK  Name = *****
REMARK  3 active torsions:
REMARK  status: ('A' for Active; 'I' for Inactive)
REMARK    1  A    between atoms: C_4  and  C_7
REMARK    2  A    between atoms: C_7  and  C_8
REMARK    3  A    between atoms: C_8  and  P_9
REMARK                            x       y       z     vdW  Elec       q    Type
REMARK                         _______ _______ _______ _____ _____    ______ ____
ROOT
ATOM      1  C   UNL     1     102.789 128.019  83.484  0.00  0.00    +0.000 C 
ENDROOT
BRANCH   1   5
ATOM      2  C   UNL     1      98.547 127.821  82.730  0.00  0.00    +0.000 A 
ATOM      3  C   UNL     1      99.092 128.937  83.362  0.00  0.00    +0.000 A 
ATOM      4  C   UNL     1     100.465 129.004  83.601  0.00  0.00    +0.000 A 
ATOM      5  C   UNL     1     101.306 127.955  83.206  0.00  0.00    +0.000 A 
ATOM      6  C   UNL     1     100.748 126.835  82.577  0.00  0.00    +0.000 A 
ATOM      7  C   UNL     1      99.374 126.771  82.338  0.00  0.00    +0.000 A 
ENDBRANCH   1   5
BRANCH   1   8
ATOM      8  C   UNL     1     103.368 126.630  83.760  0.00  0.00    +0.000 C 
BRANCH   8   9
ATOM      9  P   UNL     1     104.685 126.176  82.540  0.00  0.00    +0.000 P 
ATOM     10  C   UNL     1     104.351 127.401  81.225  0.00  0.00    +0.000 A 
ATOM     11  C   UNL     1     103.748 126.802  80.186  0.00  0.00    +0.000 A 
ATOM     12  C   UNL     1     103.457 125.402  80.373  0.00  0.00    +0.000 A 
ATOM     13  C   UNL     1     103.827 124.895  81.558  0.00  0.00    +0.000 A 
ENDBRANCH   8   9
ENDBRANCH   1   8
TORSDOF 3
ENDMDL
