MODEL 1
REMARK VINA RESULT:      -4.7      0.000      0.000
REMARK  Name = *****
REMARK  2 active torsions:
REMARK  status: ('A' for Active; 'I' for Inactive)
REMARK    1  A    between atoms: C_4  and  C_7
REMARK    2  A    between atoms: C_7  and  C_8
REMARK                            x       y       z     vdW  Elec       q    Type
REMARK                         _______ _______ _______ _____ _____    ______ ____
ROOT
ATOM      1  C   UNL     1     101.528 125.996  82.233  0.00  0.00    +0.000 C 
ENDROOT
BRANCH   1   2
ATOM      2  C   UNL     1     102.868 125.977  82.307  0.00  0.00    +0.000 C 
ATOM      3  C   UNL     1     103.509 125.449  81.031  0.00  0.00    +0.000 A 
ATOM      4  C   UNL     1     104.242 124.666  80.175  0.00  0.00    +0.000 A 
ATOM      5  C   UNL     1     104.947 123.473  80.507  0.00  0.00    +0.000 A 
ATOM      6  C   UNL     1     104.928 122.991  81.811  0.00  0.00    +0.000 A 
ATOM      7  C   UNL     1     104.219 123.709  82.745  0.00  0.00    +0.000 A 
ATOM      8  C   UNL     1     103.617 124.838  82.245  0.00  0.00    +0.000 A 
ENDBRANCH   1   2
BRANCH   1  12
ATOM      9  C   UNL     1      99.272 129.364  83.624  0.00  0.00    +0.000 A 
ATOM     10  C   UNL     1      98.614 128.321  82.978  0.00  0.00    +0.000 A 
ATOM     11  C   UNL     1      99.335 127.212  82.523  0.00  0.00    +0.000 A 
ATOM     12  C   UNL     1     100.722 127.133  82.709  0.00  0.00    +0.000 A 
ATOM     13  C   UNL     1     101.371 128.196  83.356  0.00  0.00    +0.000 A 
ATOM     14  C   UNL     1     100.650 129.304  83.813  0.00  0.00    +0.000 A 
ENDBRANCH   1  12
TORSDOF 2
ENDMDL
