MODEL 1
REMARK VINA RESULT:      -5.6      0.000      0.000
REMARK  Name = *****
REMARK  3 active torsions:
REMARK  status: ('A' for Active; 'I' for Inactive)
REMARK    1  A    between atoms: C_4  and  O_20
REMARK    2  A    between atoms: C_5  and  C_7
REMARK    3  A    between atoms: C_8  and  C_9
REMARK                            x       y       z     vdW  Elec       q    Type
REMARK                         _______ _______ _______ _____ _____    ______ ____
ROOT
ATOM      1  C   UNL     1     103.766 125.007  81.634  0.00  0.00    +0.000 A 
ATOM      2  C   UNL     1     104.350 125.122  80.363  0.00  0.00    +0.000 A 
ATOM      3  C   UNL     1     105.213 124.144  79.872  0.00  0.00    +0.000 A 
ATOM      4  C   UNL     1     105.520 123.037  80.646  0.00  0.00    +0.000 A 
ATOM      5  C   UNL     1     104.972 122.909  81.913  0.00  0.00    +0.000 A 
ATOM      6  C   UNL     1     104.109 123.887  82.405  0.00  0.00    +0.000 A 
ATOM      7  F   UNL     1     103.625 123.737  83.649  0.00  0.00    +0.000 F 
ATOM      8  F   UNL     1     105.281 121.847  82.670  0.00  0.00    +0.000 F 
ATOM      9  F   UNL     1     106.351 122.097  80.175  0.00  0.00    +0.000 F 
ATOM     10  F   UNL     1     105.749 124.278  78.651  0.00  0.00    +0.000 F 
ATOM     11  F   UNL     1     104.081 126.187  79.593  0.00  0.00    +0.000 F 
ENDROOT
BRANCH   1  13
ATOM     12  C   UNL     1     101.544 125.997  82.198  0.00  0.00    +0.000 C 
ATOM     13  C   UNL     1     102.881 126.084  82.108  0.00  0.00    +0.000 C 
BRANCH  12  18
ATOM     14  C   UNL     1     100.585 129.243  83.828  0.00  0.00    +0.000 A 
ATOM     15  C   UNL     1      99.200 129.262  83.679  0.00  0.00    +0.000 A 
ATOM     16  C   UNL     1      98.553 128.205  83.040  0.00  0.00    +0.000 A 
ATOM     17  C   UNL     1      99.298 127.131  82.546  0.00  0.00    +0.000 A 
ATOM     18  C   UNL     1     100.696 127.103  82.673  0.00  0.00    +0.000 A 
ATOM     19  C   UNL     1     101.327 128.169  83.332  0.00  0.00    +0.000 A 
BRANCH  17  20
ATOM     20  O   UNL     1      98.648 126.086  81.945  0.00  0.00    +0.000 OA
ATOM     21  H   UNL     1      99.054 125.628  81.236  0.00  0.00    +0.000 HD
ENDBRANCH  17  20
ENDBRANCH  12  18
ENDBRANCH   1  13
TORSDOF 3
ENDMDL
