MODEL 1
REMARK VINA RESULT:      -4.1      0.000      0.000
REMARK  Name = *****
REMARK  3 active torsions:
REMARK  status: ('A' for Active; 'I' for Inactive)
REMARK    1  A    between atoms: C_3  and  C_6
REMARK    2  A    between atoms: C_6  and  C_7
REMARK    3  A    between atoms: C_7  and  C_8
REMARK                            x       y       z     vdW  Elec       q    Type
REMARK                         _______ _______ _______ _____ _____    ______ ____
ROOT
ATOM      1  C   UNL     1     103.005 126.214  82.447  0.00  0.00    +0.000 C 
ATOM      2 CL   UNL     1     102.994 127.235  80.964  0.00  0.00    +0.000 Cl
ENDROOT
BRANCH   1   3
ATOM      3  C   UNL     1     103.716 124.908  82.144  0.00  0.00    +0.000 A 
ATOM      4  C   UNL     1     104.120 124.567  80.842  0.00  0.00    +0.000 A 
ATOM      5  C   UNL     1     104.757 123.351  80.587  0.00  0.00    +0.000 A 
ATOM      6  C   UNL     1     104.995 122.461  81.632  0.00  0.00    +0.000 A 
ATOM      7  C   UNL     1     104.600 122.778  82.928  0.00  0.00    +0.000 A 
ATOM      8  C   UNL     1     103.964 123.996  83.183  0.00  0.00    +0.000 A 
ATOM      9 CL   UNL     1     105.775 120.961  81.317  0.00  0.00    +0.000 Cl
ENDBRANCH   1   3
BRANCH   1  10
ATOM     10  C   UNL     1     101.565 126.038  82.950  0.00  0.00    +0.000 C 
BRANCH  10  13
ATOM     11  C   UNL     1      99.051 128.762  83.170  0.00  0.00    +0.000 C 
ATOM     12  C   UNL     1     100.367 128.180  83.620  0.00  0.00    +0.000 C 
ATOM     13  C   UNL     1     100.649 127.178  82.510  0.00  0.00    +0.000 C 
ATOM     14  O   UNL     1      99.367 126.663  82.112  0.00  0.00    +0.000 OA
ATOM     15  C   UNL     1      98.347 127.547  82.604  0.00  0.00    +0.000 C 
ENDBRANCH  10  13
ENDBRANCH   1  10
TORSDOF 3
ENDMDL
