MODEL 1
REMARK VINA RESULT:      -4.2      0.000      0.000
REMARK  Name = *****
REMARK  4 active torsions:
REMARK  status: ('A' for Active; 'I' for Inactive)
REMARK    1  A    between atoms: C_4  and  N_7
REMARK    2  A    between atoms: N_7  and  P_8
REMARK    3  A    between atoms: P_8  and  N_9
REMARK    4  A    between atoms: N_9  and  C_10
REMARK                            x       y       z     vdW  Elec       q    Type
REMARK                         _______ _______ _______ _____ _____    ______ ____
ROOT
ATOM      1  N   UNL     1      89.333  64.917  87.217  0.00  0.00    +0.000 N 
ATOM      2  H   UNL     1      90.094  64.293  87.253  0.00  0.00    +0.000 HD
ENDROOT
BRANCH   1   6
ATOM      3  C   UNL     1      86.713  64.622  90.526  0.00  0.00    +0.000 A 
ATOM      4  C   UNL     1      86.502  65.617  89.575  0.00  0.00    +0.000 A 
ATOM      5  C   UNL     1      87.361  65.731  88.476  0.00  0.00    +0.000 A 
ATOM      6  C   UNL     1      88.448  64.863  88.305  0.00  0.00    +0.000 A 
ATOM      7  C   UNL     1      88.634  63.862  89.274  0.00  0.00    +0.000 A 
ATOM      8  C   UNL     1      87.780  63.741  90.375  0.00  0.00    +0.000 A 
ENDBRANCH   1   6
BRANCH   1   9
ATOM      9  P   UNL     1      89.267  65.906  85.861  0.00  0.00    +0.000 P 
BRANCH   9  10
ATOM     10  N   UNL     1      90.157  66.965  86.519  0.00  0.00    +0.000 NA
BRANCH  10  11
ATOM     11  C   UNL     1      89.903  68.240  86.142  0.00  0.00    +0.000 A 
ATOM     12  C   UNL     1      89.646  69.258  87.081  0.00  0.00    +0.000 A 
ATOM     13  C   UNL     1      89.456  70.589  86.692  0.00  0.00    +0.000 A 
ATOM     14  C   UNL     1      89.541  70.940  85.348  0.00  0.00    +0.000 A 
ATOM     15  C   UNL     1      89.820  69.962  84.398  0.00  0.00    +0.000 A 
ATOM     16  C   UNL     1      90.008  68.633  84.794  0.00  0.00    +0.000 A 
ENDBRANCH  10  11
ENDBRANCH   9  10
ENDBRANCH   1   9
TORSDOF 4
ENDMDL
