MODEL 1
REMARK VINA RESULT:      -4.1      0.000      0.000
REMARK  Name = *****
REMARK  4 active torsions:
REMARK  status: ('A' for Active; 'I' for Inactive)
REMARK    1  A    between atoms: C_4  and  C_7
REMARK    2  A    between atoms: C_7  and  C_8
REMARK    3  A    between atoms: C_8  and  O_9
REMARK    4  A    between atoms: O_9  and  C_10
REMARK                            x       y       z     vdW  Elec       q    Type
REMARK                         _______ _______ _______ _____ _____    ______ ____
ROOT
ATOM      1  C   UNL     1      89.279  69.835  87.335  0.00  0.00    +0.000 C 
ENDROOT
BRANCH   1   5
ATOM      2  C   UNL     1      85.479  71.868  87.250  0.00  0.00    +0.000 A 
ATOM      3  C   UNL     1      86.053  71.512  88.470  0.00  0.00    +0.000 A 
ATOM      4  C   UNL     1      87.287  70.860  88.499  0.00  0.00    +0.000 A 
ATOM      5  C   UNL     1      87.959  70.563  87.306  0.00  0.00    +0.000 A 
ATOM      6  C   UNL     1      87.373  70.920  86.085  0.00  0.00    +0.000 A 
ATOM      7  C   UNL     1      86.139  71.572  86.059  0.00  0.00    +0.000 A 
ENDBRANCH   1   5
BRANCH   1   8
ATOM      8  C   UNL     1      89.416  68.856  86.170  0.00  0.00    +0.000 C 
BRANCH   8   9
ATOM      9  O   UNL     1      90.407  67.889  86.515  0.00  0.00    +0.000 OA
BRANCH   9  10
ATOM     10  C   UNL     1      90.064  66.601  86.376  0.00  0.00    +0.000 A 
ATOM     11  C   UNL     1      89.044  65.859  86.945  0.00  0.00    +0.000 A 
ATOM     12  C   UNL     1      89.037  64.499  86.517  0.00  0.00    +0.000 A 
ATOM     13  C   UNL     1      90.054  64.236  85.630  0.00  0.00    +0.000 A 
ATOM     14  S   UNL     1      91.003  65.622  85.323  0.00  0.00    +0.000 S 
ENDBRANCH   9  10
ENDBRANCH   8   9
ENDBRANCH   1   8
TORSDOF 4
ENDMDL
