MODEL 1
REMARK VINA RESULT:      -4.3      0.000      0.000
REMARK  Name = *****
REMARK  4 active torsions:
REMARK  status: ('A' for Active; 'I' for Inactive)
REMARK    1  A    between atoms: C_1  and  C_2
REMARK    2  A    between atoms: C_6  and  C_8
REMARK    3  A    between atoms: C_8  and  C_9
REMARK    4  A    between atoms: C_9  and  C_10
REMARK                            x       y       z     vdW  Elec       q    Type
REMARK                         _______ _______ _______ _____ _____    ______ ____
ROOT
ATOM      1  C   UNL     1     103.421 126.699  83.423  0.00  0.00    +0.000 C 
ENDROOT
BRANCH   1   7
ATOM      2  C   UNL     1     104.662 123.367  80.711  0.00  0.00    +0.000 C 
ATOM      3  C   UNL     1     104.456 124.837  80.937  0.00  0.00    +0.000 C 
ATOM      4  C   UNL     1     103.668 125.580  80.139  0.00  0.00    +0.000 C 
ATOM      5  C   UNL     1     103.470 127.058  80.307  0.00  0.00    +0.000 C 
ATOM      6  C   UNL     1     104.469 127.688  81.280  0.00  0.00    +0.000 C 
ATOM      7  C   UNL     1     104.682 126.829  82.537  0.00  0.00    +0.000 C 
ATOM      8  C   UNL     1     105.196 125.436  82.112  0.00  0.00    +0.000 C 
ENDBRANCH   1   7
BRANCH   1   9
ATOM      9  C   UNL     1     102.727 128.038  83.690  0.00  0.00    +0.000 C 
BRANCH   9  10
ATOM     10  C   UNL     1     101.262 127.987  83.328  0.00  0.00    +0.000 A 
ATOM     11  C   UNL     1     100.414 129.060  83.634  0.00  0.00    +0.000 A 
ATOM     12  C   UNL     1      99.058 129.002  83.310  0.00  0.00    +0.000 A 
ATOM     13  C   UNL     1      98.536 127.871  82.683  0.00  0.00    +0.000 A 
ATOM     14  C   UNL     1      99.369 126.797  82.381  0.00  0.00    +0.000 A 
ATOM     15  C   UNL     1     100.726 126.852  82.705  0.00  0.00    +0.000 A 
ENDBRANCH   9  10
ENDBRANCH   1   9
TORSDOF 3
ENDMDL
