MODEL 1
REMARK VINA RESULT:      -4.1      0.000      0.000
REMARK  Name = *****
REMARK  5 active torsions:
REMARK  status: ('A' for Active; 'I' for Inactive)
REMARK    1  A    between atoms: C_1  and  C_2
REMARK    2  A    between atoms: C_2  and  C_18
REMARK    3  A    between atoms: C_8  and  C_9
REMARK    4  A    between atoms: C_9  and  S_11
REMARK    5  A    between atoms: S_11  and  C_12
REMARK                            x       y       z     vdW  Elec       q    Type
REMARK                         _______ _______ _______ _____ _____    ______ ____
ROOT
ATOM      1  C   UNL     1      86.921  65.287  84.548  0.00  0.00    +0.000 C 
ATOM      2  C   UNL     1      88.367  65.723  84.901  0.00  0.00    +0.000 C 
ATOM      3  C   UNL     1      89.114  64.529  85.553  0.00  0.00    +0.000 C 
ATOM      4  C   UNL     1      88.606  64.182  86.957  0.00  0.00    +0.000 C 
ATOM      5  C   UNL     1      88.570  65.396  87.882  0.00  0.00    +0.000 C 
ATOM      6  C   UNL     1      87.823  66.544  87.246  0.00  0.00    +0.000 C 
ATOM      7  C   UNL     1      86.777  67.135  87.849  0.00  0.00    +0.000 C 
ATOM      8  C   UNL     1      88.310  66.956  85.863  0.00  0.00    +0.000 C 
ATOM      9  C   UNL     1      89.054  66.086  83.568  0.00  0.00    +0.000 C 
ENDROOT
BRANCH   8  10
ATOM     10  C   UNL     1      89.654  67.689  86.033  0.00  0.00    +0.000 C 
ATOM     11  O   UNL     1      90.660  67.199  86.536  0.00  0.00    +0.000 OA
BRANCH  10  12
ATOM     12  S   UNL     1      89.656  69.363  85.455  0.00  0.00    +0.000 S 
BRANCH  12  13
ATOM     13  C   UNL     1      88.586  70.118  86.666  0.00  0.00    +0.000 A 
ATOM     14  C   UNL     1      87.344  70.653  86.310  0.00  0.00    +0.000 A 
ATOM     15  C   UNL     1      86.520  71.232  87.277  0.00  0.00    +0.000 A 
ATOM     16  C   UNL     1      86.926  71.269  88.609  0.00  0.00    +0.000 A 
ATOM     17  C   UNL     1      88.156  70.725  88.976  0.00  0.00    +0.000 A 
ATOM     18  C   UNL     1      88.983  70.149  88.008  0.00  0.00    +0.000 A 
ENDBRANCH  12  13
ENDBRANCH  10  12
ENDBRANCH   8  10
TORSDOF 3
ENDMDL
