REMARK  Name = *****
REMARK  3 active torsions:
REMARK  status: ('A' for Active; 'I' for Inactive)
REMARK    1  A    between atoms: C_1  and  C_2
REMARK    2  A    between atoms: C_4  and  C_17
REMARK    3  A    between atoms: C_9  and  C_11
REMARK                            x       y       z     vdW  Elec       q    Type
REMARK                         _______ _______ _______ _____ _____    ______ ____
ROOT
ATOM      1  C   UNL     1       1.064  -0.081  -0.049  0.00  0.00    +0.000 C 
ATOM      2  C   UNL     1       2.566  -0.043  -0.007  0.00  0.00    +0.000 A 
ATOM      3  C   UNL     1       3.234   1.194   0.071  0.00  0.00    +0.000 A 
ATOM      4  C   UNL     1       4.643   1.290   0.145  0.00  0.00    +0.000 A 
ATOM      5  C   UNL     1       5.361   0.082   0.149  0.00  0.00    +0.000 A 
ATOM      6  C   UNL     1       4.673  -1.118   0.087  0.00  0.00    +0.000 A 
ATOM      7  C   UNL     1       3.292  -1.243   0.014  0.00  0.00    +0.000 A 
ATOM      8  O   UNL     1       5.588  -2.129   0.113  0.00  0.00    +0.000 OA
ATOM      9  C   UNL     1       6.797  -1.483   0.188  0.00  0.00    +0.000 A 
ATOM     10  N   UNL     1       6.711  -0.165   0.213  0.00  0.00    +0.000 NA
ATOM     11  C   UNL     1       5.296   2.638   0.217  0.00  0.00    +0.000 C 
ENDROOT
BRANCH   9  12
ATOM     12  C   UNL     1       7.990  -2.326   0.231  0.00  0.00    +0.000 A 
ATOM     13  C   UNL     1       7.913  -3.727   0.200  0.00  0.00    +0.000 A 
ATOM     14  C   UNL     1       9.072  -4.508   0.242  0.00  0.00    +0.000 A 
ATOM     15  C   UNL     1      10.322  -3.898   0.316  0.00  0.00    +0.000 A 
ATOM     16  C   UNL     1      10.416  -2.508   0.348  0.00  0.00    +0.000 A 
ATOM     17  C   UNL     1       9.258  -1.729   0.306  0.00  0.00    +0.000 A 
ENDBRANCH   9  12
TORSDOF 1
