MODEL 1
REMARK VINA RESULT:      -4.3      0.000      0.000
REMARK  Name = *****
REMARK  6 active torsions:
REMARK  status: ('A' for Active; 'I' for Inactive)
REMARK    1  A    between atoms: C_1  and  C_2
REMARK    2  A    between atoms: C_5  and  N_8
REMARK    3  A    between atoms: N_8  and  C_9
REMARK    4  A    between atoms: N_8  and  C_10
REMARK    5  A    between atoms: C_10  and  C_11
REMARK    6  A    between atoms: C_10  and  C_12
REMARK                            x       y       z     vdW  Elec       q    Type
REMARK                         _______ _______ _______ _____ _____    ______ ____
ROOT
ATOM      1  N   UNL     1     101.561 126.285  83.179  0.00  0.00    +0.000 N 
ATOM      2  C   UNL     1     101.823 125.879  84.555  0.00  0.00    +0.000 C 
ENDROOT
BRANCH   1   7
ATOM      3  C   UNL     1     105.625 125.129  79.281  0.00  0.00    +0.000 C 
ATOM      4  C   UNL     1     104.542 125.420  80.277  0.00  0.00    +0.000 A 
ATOM      5  C   UNL     1     104.273 124.531  81.317  0.00  0.00    +0.000 A 
ATOM      6  C   UNL     1     103.284 124.827  82.264  0.00  0.00    +0.000 A 
ATOM      7  C   UNL     1     102.534 126.014  82.212  0.00  0.00    +0.000 A 
ATOM      8  C   UNL     1     102.844 126.906  81.175  0.00  0.00    +0.000 A 
ATOM      9  C   UNL     1     103.829 126.617  80.222  0.00  0.00    +0.000 A 
ENDBRANCH   1   7
BRANCH   1  10
ATOM     10  C   UNL     1     100.608 127.396  82.912  0.00  0.00    +0.000 C 
ATOM     11  C   UNL     1      99.284 126.819  82.396  0.00  0.00    +0.000 C 
BRANCH  10  12
ATOM     12  C   UNL     1     100.390 128.410  84.079  0.00  0.00    +0.000 C 
ATOM     13  C   UNL     1      99.127 129.235  83.983  0.00  0.00    +0.000 C 
ATOM     14  C   UNL     1      99.415 130.537  84.135  0.00  0.00    +0.000 C 
ATOM     15  C   UNL     1     100.834 130.695  84.330  0.00  0.00    +0.000 C 
ATOM     16  C   UNL     1     101.428 129.493  84.291  0.00  0.00    +0.000 C 
ENDBRANCH  10  12
ENDBRANCH   1  10
TORSDOF 3
ENDMDL
