MODEL 1
REMARK VINA RESULT:      -4.5      0.000      0.000
REMARK  Name = *****
REMARK  3 active torsions:
REMARK  status: ('A' for Active; 'I' for Inactive)
REMARK    1  A    between atoms: C_3  and  O_8
REMARK    2  A    between atoms: O_8  and  C_9
REMARK    3  A    between atoms: C_9  and  C_10
REMARK                            x       y       z     vdW  Elec       q    Type
REMARK                         _______ _______ _______ _____ _____    ______ ____
ROOT
ATOM      1  O   UNL     1     102.527 127.042  83.150  0.00  0.00    +0.000 OA
ENDROOT
BRANCH   1   4
ATOM      2  C   UNL     1      98.969 127.049  82.427  0.00  0.00    +0.000 A 
ATOM      3  C   UNL     1     100.311 126.675  82.535  0.00  0.00    +0.000 A 
ATOM      4  C   UNL     1     101.253 127.538  83.108  0.00  0.00    +0.000 A 
ATOM      5  C   UNL     1     100.841 128.783  83.577  0.00  0.00    +0.000 A 
ATOM      6  C   UNL     1      99.501 129.147  83.465  0.00  0.00    +0.000 A 
ATOM      7  C   UNL     1      98.562 128.295  82.896  0.00  0.00    +0.000 A 
ATOM      8  F   UNL     1      99.108 130.345  83.920  0.00  0.00    +0.000 F 
ENDBRANCH   1   4
BRANCH   1   9
ATOM      9  C   UNL     1     102.693 125.712  83.644  0.00  0.00    +0.000 C 
BRANCH   9  10
ATOM     10  C   UNL     1     103.471 124.884  82.644  0.00  0.00    +0.000 A 
ATOM     11  C   UNL     1     104.083 123.675  83.020  0.00  0.00    +0.000 A 
ATOM     12  C   UNL     1     104.765 122.902  82.079  0.00  0.00    +0.000 A 
ATOM     13  C   UNL     1     104.826 123.326  80.759  0.00  0.00    +0.000 A 
ATOM     14  C   UNL     1     104.214 124.508  80.359  0.00  0.00    +0.000 A 
ATOM     15  C   UNL     1     103.533 125.285  81.299  0.00  0.00    +0.000 A 
ATOM     16  F   UNL     1     105.478 122.583  79.855  0.00  0.00    +0.000 F 
ENDBRANCH   9  10
ENDBRANCH   1   9
TORSDOF 3
ENDMDL
