REMARK  Name = *****
REMARK  2 active torsions:
REMARK  status: ('A' for Active; 'I' for Inactive)
REMARK    1  A    between atoms: C_3  and  C_8
REMARK    2  A    between atoms: N_10  and  C_11
REMARK                            x       y       z     vdW  Elec       q    Type
REMARK                         _______ _______ _______ _____ _____    ______ ____
ROOT
ATOM      1  C   UNL     1       2.677   2.421  -0.157  0.00  0.00    +0.000 C 
ATOM      2  O   UNL     1       3.843   2.255  -0.493  0.00  0.00    +0.000 OA
ATOM      3  N   UNL     1       2.076   3.616   0.195  0.00  0.00    +0.000 N 
ATOM      4  H   UNL     1       1.144   3.562   0.507  0.00  0.00    +0.000 HD
ENDROOT
BRANCH   1   7
ATOM      5  C   UNL     1       1.572  -1.136   0.454  0.00  0.00    +0.000 A 
ATOM      6  C   UNL     1       2.363   0.010   0.355  0.00  0.00    +0.000 A 
ATOM      7  C   UNL     1       1.797   1.223  -0.062  0.00  0.00    +0.000 A 
ATOM      8  C   UNL     1       0.442   1.279  -0.408  0.00  0.00    +0.000 A 
ATOM      9  C   UNL     1      -0.339   0.128  -0.306  0.00  0.00    +0.000 A 
ATOM     10  C   UNL     1       0.217  -1.076   0.128  0.00  0.00    +0.000 A 
ATOM     11 CL   UNL     1      -2.007   0.194  -0.724  0.00  0.00    +0.000 Cl
ENDBRANCH   1   7
BRANCH   3  12
ATOM     12  C   UNL     1       2.651   4.905   0.156  0.00  0.00    +0.000 A 
ATOM     13  C   UNL     1       3.923   5.179  -0.351  0.00  0.00    +0.000 A 
ATOM     14  C   UNL     1       4.407   6.489  -0.355  0.00  0.00    +0.000 A 
ATOM     15  C   UNL     1       3.634   7.537   0.141  0.00  0.00    +0.000 A 
ATOM     16  C   UNL     1       2.363   7.273   0.645  0.00  0.00    +0.000 A 
ATOM     17  C   UNL     1       1.875   5.964   0.651  0.00  0.00    +0.000 A 
ATOM     18 CL   UNL     1       5.975   6.821  -0.984  0.00  0.00    +0.000 Cl
ENDBRANCH   3  12
TORSDOF 2
