REMARK  Name = *****
REMARK  5 active torsions:
REMARK  status: ('A' for Active; 'I' for Inactive)
REMARK    1  A    between atoms: C_4  and  C_7
REMARK    2  A    between atoms: N_8  and  C_9
REMARK    3  A    between atoms: C_12  and  C_15
REMARK    4  A    between atoms: C_15  and  S_18
REMARK    5  A    between atoms: C_16  and  S_17
REMARK                            x       y       z     vdW  Elec       q    Type
REMARK                         _______ _______ _______ _____ _____    ______ ____
ROOT
ATOM      1  C   UNL     1      -5.061  -0.453  -0.936  0.00  0.00    +0.000 A 
ATOM      2  C   UNL     1      -5.608   0.146  -2.073  0.00  0.00    +0.000 A 
ATOM      3  C   UNL     1      -6.974   0.433  -2.135  0.00  0.00    +0.000 A 
ATOM      4  C   UNL     1      -7.811   0.116  -1.057  0.00  0.00    +0.000 A 
ATOM      5  C   UNL     1      -7.264  -0.503   0.076  0.00  0.00    +0.000 A 
ATOM      6  C   UNL     1      -5.897  -0.787   0.131  0.00  0.00    +0.000 A 
ENDROOT
BRANCH   1   8
ATOM      7  C   UNL     1      -2.916   0.196  -0.479  0.00  0.00    +0.000 C 
ATOM      8  N   UNL     1      -3.695  -0.758  -0.880  0.00  0.00    +0.000 NA
BRANCH   7  12
ATOM      9  C   UNL     1       1.310  -0.267  -0.154  0.00  0.00    +0.000 A 
ATOM     10  C   UNL     1       0.530  -1.342  -0.580  0.00  0.00    +0.000 A 
ATOM     11  C   UNL     1      -0.854  -1.201  -0.690  0.00  0.00    +0.000 A 
ATOM     12  C   UNL     1      -1.454   0.021  -0.371  0.00  0.00    +0.000 A 
ATOM     13  C   UNL     1      -0.675   1.099   0.056  0.00  0.00    +0.000 A 
ATOM     14  C   UNL     1       0.709   0.953   0.163  0.00  0.00    +0.000 A 
ENDBRANCH   7  12
ENDBRANCH   1   8
BRANCH   4  15
ATOM     15  C   UNL     1      -9.252   0.402  -1.126  0.00  0.00    +0.000 C 
ATOM     16  C   UNL     1     -10.070  -0.498  -1.699  0.00  0.00    +0.000 C 
BRANCH  16  17
ATOM     17  S   UNL     1     -11.787  -0.340  -1.876  0.00  0.00    +0.000 S 
ATOM     18  H   UNL     1     -12.191   0.843  -1.342  0.00  0.00    +0.000 HD
ENDBRANCH  16  17
BRANCH  15  19
ATOM     19  S   UNL     1      -9.747   1.916  -0.438  0.00  0.00    +0.000 S 
ATOM     20  H   UNL     1      -8.659   2.569   0.051  0.00  0.00    +0.000 HD
ENDBRANCH  15  19
ENDBRANCH   4  15
TORSDOF 5
