REMARK  Name = *****
REMARK  4 active torsions:
REMARK  status: ('A' for Active; 'I' for Inactive)
REMARK    1  A    between atoms: C_4  and  N_7
REMARK    2  A    between atoms: N_7  and  N_8
REMARK    3  A    between atoms: N_8  and  C_10
REMARK    4  A    between atoms: C_13  and  C_16
REMARK                            x       y       z     vdW  Elec       q    Type
REMARK                         _______ _______ _______ _____ _____    ______ ____
ROOT
ATOM      1  N   UNL     1      -3.745  -0.910  -0.387  0.00  0.00    +0.000 N 
ATOM      2  O   UNL     1      -3.464  -2.089  -0.303  0.00  0.00    +0.000 OA
ENDROOT
BRANCH   1   3
ATOM      3  C   UNL     1      -5.135  -0.557  -0.599  0.00  0.00    +0.000 A 
ATOM      4  C   UNL     1      -5.471   0.496  -1.456  0.00  0.00    +0.000 A 
ATOM      5  C   UNL     1      -6.815   0.827  -1.646  0.00  0.00    +0.000 A 
ATOM      6  C   UNL     1      -7.829   0.114  -0.984  0.00  0.00    +0.000 A 
ATOM      7  C   UNL     1      -7.475  -0.953  -0.142  0.00  0.00    +0.000 A 
ATOM      8  C   UNL     1      -6.134  -1.289   0.051  0.00  0.00    +0.000 A 
BRANCH   6   9
ATOM      9  C   UNL     1      -9.283   0.456  -1.209  0.00  0.00    +0.000 C 
ATOM     10  F   UNL     1      -9.475   1.755  -1.574  0.00  0.00    +0.000 F 
ATOM     11  F   UNL     1      -9.847  -0.297  -2.193  0.00  0.00    +0.000 F 
ATOM     12  F   UNL     1     -10.052   0.265  -0.101  0.00  0.00    +0.000 F 
ENDBRANCH   6   9
ENDBRANCH   1   3
BRANCH   1  13
ATOM     13  N   UNL     1      -2.776   0.116  -0.238  0.00  0.00    +0.000 N 
ATOM     14  H   UNL     1      -3.133   1.032  -0.307  0.00  0.00    +0.000 HD
BRANCH  13  18
ATOM     15  C   UNL     1       1.397   0.022   0.423  0.00  0.00    +0.000 A 
ATOM     16  C   UNL     1       0.708  -1.170   0.227  0.00  0.00    +0.000 A 
ATOM     17  C   UNL     1      -0.675  -1.158   0.010  0.00  0.00    +0.000 A 
ATOM     18  C   UNL     1      -1.393   0.041  -0.009  0.00  0.00    +0.000 A 
ATOM     19  C   UNL     1      -0.677   1.234   0.181  0.00  0.00    +0.000 A 
ATOM     20  C   UNL     1       0.704   1.228   0.398  0.00  0.00    +0.000 A 
ENDBRANCH  13  18
ENDBRANCH   1  13
TORSDOF 4
