REMARK  Name = *****
REMARK  2 active torsions:
REMARK  status: ('A' for Active; 'I' for Inactive)
REMARK    1  A    between atoms: C_4  and  S_7
REMARK    2  A    between atoms: S_7  and  C_8
REMARK                            x       y       z     vdW  Elec       q    Type
REMARK                         _______ _______ _______ _____ _____    ______ ____
ROOT
ATOM      1  C   UNL     1      -4.887  -1.815  -1.295  0.00  0.00    +0.000 A 
ATOM      2  C   UNL     1      -6.258  -1.723  -1.281  0.00  0.00    +0.000 A 
ATOM      3  C   UNL     1      -7.170  -2.650  -1.788  0.00  0.00    +0.000 A 
ATOM      4  C   UNL     1      -8.500  -2.223  -1.595  0.00  0.00    +0.000 A 
ATOM      5  C   UNL     1      -8.858  -0.995  -0.959  0.00  0.00    +0.000 A 
ATOM      6  C   UNL     1      -7.913  -0.074  -0.454  0.00  0.00    +0.000 A 
ATOM      7  C   UNL     1      -6.577  -0.474  -0.633  0.00  0.00    +0.000 A 
ATOM      8  N   UNL     1      -5.438   0.142  -0.284  0.00  0.00    +0.000 NA
ATOM      9  O   UNL     1      -4.405  -0.681  -0.694  0.00  0.00    +0.000 OA
ENDROOT
BRANCH   1  10
ATOM     10  S   UNL     1      -3.856  -3.077  -1.934  0.00  0.00    +0.000 S 
BRANCH  10  14
ATOM     11  C   UNL     1       0.224  -1.602  -0.466  0.00  0.00    +0.000 A 
ATOM     12  C   UNL     1      -0.189  -1.331  -1.769  0.00  0.00    +0.000 A 
ATOM     13  C   UNL     1      -1.435  -1.777  -2.215  0.00  0.00    +0.000 A 
ATOM     14  C   UNL     1      -2.276  -2.492  -1.355  0.00  0.00    +0.000 A 
ATOM     15  C   UNL     1      -1.852  -2.769  -0.051  0.00  0.00    +0.000 A 
ATOM     16  C   UNL     1      -0.606  -2.321   0.393  0.00  0.00    +0.000 A 
ENDBRANCH  10  14
ENDBRANCH   1  10
TORSDOF 2
