MODEL 1
REMARK VINA RESULT:      -4.8      0.000      0.000
REMARK  Name = *****
REMARK  5 active torsions:
REMARK  status: ('A' for Active; 'I' for Inactive)
REMARK    1  A    between atoms: C_1  and  C_2
REMARK    2  A    between atoms: C_3  and  N_9
REMARK    3  A    between atoms: N_9  and  N_10
REMARK    4  A    between atoms: N_10  and  C_12
REMARK    5  A    between atoms: C_13  and  C_19
REMARK                            x       y       z     vdW  Elec       q    Type
REMARK                         _______ _______ _______ _____ _____    ______ ____
ROOT
ATOM      1  N   UNL     1     102.341 125.742  81.395  0.00  0.00    +0.000 N 
ATOM      2  H   UNL     1     101.605 125.795  80.742  0.00  0.00    +0.000 HD
ENDROOT
BRANCH   1   5
ATOM      3  C   UNL     1     103.933 127.917  80.277  0.00  0.00    +0.000 C 
ATOM      4  C   UNL     1     104.389 126.482  80.283  0.00  0.00    +0.000 A 
ATOM      5  C   UNL     1     103.598 125.445  80.837  0.00  0.00    +0.000 A 
ATOM      6  C   UNL     1     104.094 124.132  80.783  0.00  0.00    +0.000 A 
ATOM      7  C   UNL     1     105.339 123.845  80.218  0.00  0.00    +0.000 A 
ATOM      8  C   UNL     1     106.102 124.873  79.692  0.00  0.00    +0.000 A 
ATOM      9  C   UNL     1     105.642 126.181  79.718  0.00  0.00    +0.000 A 
ATOM     10  F   UNL     1     107.297 124.603  79.149  0.00  0.00    +0.000 F 
ENDBRANCH   1   5
BRANCH   1  11
ATOM     11  N   UNL     1     101.955 125.979  82.737  0.00  0.00    +0.000 N 
ATOM     12  O   UNL     1     102.176 125.198  83.640  0.00  0.00    +0.000 OA
BRANCH  11  13
ATOM     13  C   UNL     1     101.183 127.163  83.042  0.00  0.00    +0.000 A 
ATOM     14  C   UNL     1     101.803 128.307  83.581  0.00  0.00    +0.000 A 
ATOM     15  C   UNL     1     101.008 129.440  83.806  0.00  0.00    +0.000 A 
ATOM     16  C   UNL     1      99.643 129.410  83.526  0.00  0.00    +0.000 A 
ATOM     17  C   UNL     1      99.036 128.268  83.017  0.00  0.00    +0.000 A 
ATOM     18  C   UNL     1      99.807 127.134  82.771  0.00  0.00    +0.000 A 
ATOM     19  F   UNL     1      98.903 130.502  83.755  0.00  0.00    +0.000 F 
ATOM     20  C   UNL     1     103.269 128.353  83.902  0.00  0.00    +0.000 C 
ENDBRANCH  11  13
ENDBRANCH   1  11
TORSDOF 3
ENDMDL
