MODEL 1
REMARK VINA RESULT:      -4.8      0.000      0.000
REMARK  Name = *****
REMARK  5 active torsions:
REMARK  status: ('A' for Active; 'I' for Inactive)
REMARK    1  A    between atoms: C_1  and  C_2
REMARK    2  A    between atoms: C_4  and  O_9
REMARK    3  A    between atoms: C_5  and  C_8
REMARK    4  A    between atoms: O_9  and  C_10
REMARK    5  A    between atoms: C_10  and  C_12
REMARK                            x       y       z     vdW  Elec       q    Type
REMARK                         _______ _______ _______ _____ _____    ______ ____
ROOT
ATOM      1  O   UNL     1     102.312 125.710  81.351  0.00  0.00    +0.000 OA
ENDROOT
BRANCH   1   5
ATOM      2  C   UNL     1     105.942 122.422  80.497  0.00  0.00    +0.000 C 
ATOM      3  C   UNL     1     105.401 123.821  80.481  0.00  0.00    +0.000 A 
ATOM      4  C   UNL     1     104.110 124.095  80.947  0.00  0.00    +0.000 A 
ATOM      5  C   UNL     1     103.625 125.405  80.931  0.00  0.00    +0.000 A 
ATOM      6  C   UNL     1     104.391 126.457  80.409  0.00  0.00    +0.000 A 
ATOM      7  C   UNL     1     105.669 126.169  79.914  0.00  0.00    +0.000 A 
ATOM      8  C   UNL     1     106.171 124.865  79.955  0.00  0.00    +0.000 A 
ATOM      9  C   UNL     1     103.850 127.853  80.316  0.00  0.00    +0.000 C 
ENDBRANCH   1   5
BRANCH   1  10
ATOM     10  C   UNL     1     102.030 125.842  82.701  0.00  0.00    +0.000 C 
ATOM     11  O   UNL     1     102.500 125.202  83.629  0.00  0.00    +0.000 OA
BRANCH  10  12
ATOM     12  C   UNL     1     101.000 126.897  82.885  0.00  0.00    +0.000 A 
ATOM     13  C   UNL     1      99.676 126.735  82.455  0.00  0.00    +0.000 A 
ATOM     14  C   UNL     1      98.751 127.765  82.638  0.00  0.00    +0.000 A 
ATOM     15  C   UNL     1      99.140 128.956  83.250  0.00  0.00    +0.000 A 
ATOM     16  C   UNL     1     100.457 129.125  83.677  0.00  0.00    +0.000 A 
ATOM     17  C   UNL     1     101.388 128.101  83.491  0.00  0.00    +0.000 A 
ENDBRANCH  10  12
ENDBRANCH   1  10
TORSDOF 3
ENDMDL
