MODEL 1
REMARK VINA RESULT:      -4.4      0.000      0.000
REMARK  Name = *****
REMARK  2 active torsions:
REMARK  status: ('A' for Active; 'I' for Inactive)
REMARK    1  A    between atoms: C_1  and  C_9
REMARK    2  A    between atoms: N_2  and  C_3
REMARK                            x       y       z     vdW  Elec       q    Type
REMARK                         _______ _______ _______ _____ _____    ______ ____
ROOT
ATOM      1  C   UNL     1     102.720 126.199  81.728  0.00  0.00    +0.000 C 
ATOM      2  N   UNL     1     101.590 125.876  82.274  0.00  0.00    +0.000 NA
ENDROOT
BRANCH   2   3
ATOM      3  C   UNL     1     100.767 126.948  82.650  0.00  0.00    +0.000 A 
ATOM      4  C   UNL     1      99.389 126.897  82.426  0.00  0.00    +0.000 A 
ATOM      5  C   UNL     1      98.570 127.960  82.813  0.00  0.00    +0.000 A 
ATOM      6  C   UNL     1      99.127 129.076  83.436  0.00  0.00    +0.000 A 
ATOM      7  C   UNL     1     100.499 129.126  83.679  0.00  0.00    +0.000 A 
ATOM      8  C   UNL     1     101.316 128.062  83.291  0.00  0.00    +0.000 A 
ENDBRANCH   2   3
BRANCH   1   9
ATOM      9  C   UNL     1     103.691 125.183  81.279  0.00  0.00    +0.000 A 
ATOM     10  C   UNL     1     103.983 124.071  82.074  0.00  0.00    +0.000 A 
ATOM     11  C   UNL     1     104.905 123.124  81.628  0.00  0.00    +0.000 A 
ATOM     12  C   UNL     1     105.532 123.287  80.393  0.00  0.00    +0.000 A 
ATOM     13  C   UNL     1     105.239 124.398  79.599  0.00  0.00    +0.000 A 
ATOM     14  C   UNL     1     104.317 125.349  80.041  0.00  0.00    +0.000 A 
ENDBRANCH   1   9
TORSDOF 2
ENDMDL
