MODEL 1
REMARK VINA RESULT:      -4.6      0.000      0.000
REMARK  Name = *****
REMARK  4 active torsions:
REMARK  status: ('A' for Active; 'I' for Inactive)
REMARK    1  A    between atoms: C_1  and  C_2
REMARK    2  A    between atoms: C_2  and  C_4
REMARK    3  A    between atoms: C_4  and  C_12
REMARK    4  A    between atoms: C_5  and  C_6
REMARK                            x       y       z     vdW  Elec       q    Type
REMARK                         _______ _______ _______ _____ _____    ______ ____
ROOT
ATOM      1  C   UNL     1     102.763 126.266  82.238  0.00  0.00    +0.000 C 
ATOM      2  C   UNL     1     102.955 125.807  80.985  0.00  0.00    +0.000 C 
ENDROOT
BRANCH   2   3
ATOM      3  C   UNL     1     104.126 125.065  80.503  0.00  0.00    +0.000 A 
ATOM      4  C   UNL     1     105.128 125.748  79.803  0.00  0.00    +0.000 A 
ATOM      5  C   UNL     1     106.255 125.066  79.342  0.00  0.00    +0.000 A 
ATOM      6  C   UNL     1     106.393 123.701  79.585  0.00  0.00    +0.000 A 
ATOM      7  C   UNL     1     105.406 123.017  80.293  0.00  0.00    +0.000 A 
ATOM      8  C   UNL     1     104.279 123.696  80.755  0.00  0.00    +0.000 A 
ENDBRANCH   2   3
BRANCH   1   9
ATOM      9  C   UNL     1     101.544 127.022  82.588  0.00  0.00    +0.000 A 
ATOM     10  C   UNL     1     100.270 126.521  82.275  0.00  0.00    +0.000 A 
ATOM     11  C   UNL     1      99.119 127.233  82.624  0.00  0.00    +0.000 A 
ATOM     12  C   UNL     1      99.228 128.451  83.291  0.00  0.00    +0.000 A 
ATOM     13  C   UNL     1     100.484 128.957  83.613  0.00  0.00    +0.000 A 
ATOM     14  C   UNL     1     101.636 128.245  83.265  0.00  0.00    +0.000 A 
ENDBRANCH   1   9
BRANCH   1  16
ATOM     15  C   UNL     1     103.578 124.893  84.246  0.00  0.00    +0.000 C 
ATOM     16  C   UNL     1     103.808 126.027  83.282  0.00  0.00    +0.000 C 
ATOM     17  O   UNL     1     104.802 126.750  83.354  0.00  0.00    +0.000 OA
ENDBRANCH   1  16
TORSDOF 3
ENDMDL
