MODEL 1
REMARK VINA RESULT:      -4.6      0.000      0.000
REMARK  Name = *****
REMARK  3 active torsions:
REMARK  status: ('A' for Active; 'I' for Inactive)
REMARK    1  A    between atoms: C_1  and  C_2
REMARK    2  A    between atoms: C_5  and  C_18
REMARK    3  A    between atoms: N_10  and  C_11
REMARK                            x       y       z     vdW  Elec       q    Type
REMARK                         _______ _______ _______ _____ _____    ______ ____
ROOT
ATOM      1  C   UNL     1      86.845  64.965  92.707  0.00  0.00    +0.000 C 
ATOM      2  C   UNL     1      87.157  64.723  91.257  0.00  0.00    +0.000 C 
ATOM      3  C   UNL     1      86.441  65.288  90.268  0.00  0.00    +0.000 C 
ATOM      4  C   UNL     1      86.678  65.037  88.809  0.00  0.00    +0.000 C 
ATOM      5  C   UNL     1      87.704  63.944  88.491  0.00  0.00    +0.000 C 
ATOM      6  C   UNL     1      88.845  63.944  89.536  0.00  0.00    +0.000 C 
ATOM      7  C   UNL     1      88.332  63.821  90.975  0.00  0.00    +0.000 C 
ATOM      8  C   UNL     1      88.221  64.407  87.134  0.00  0.00    +0.000 C 
ATOM      9  C   UNL     1      88.042  65.888  87.218  0.00  0.00    +0.000 C 
ATOM     10  N   UNL     1      88.614  66.715  86.422  0.00  0.00    +0.000 NA
ATOM     11  O   UNL     1      87.192  66.235  88.219  0.00  0.00    +0.000 OA
ATOM     12  C   UNL     1      87.057  62.557  88.399  0.00  0.00    +0.000 C 
ENDROOT
BRANCH  10  13
ATOM     13  C   UNL     1      88.340  68.141  86.635  0.00  0.00    +0.000 C 
ATOM     14  C   UNL     1      87.473  68.674  85.487  0.00  0.00    +0.000 C 
ATOM     15  C   UNL     1      87.289  70.187  85.579  0.00  0.00    +0.000 C 
ATOM     16  C   UNL     1      88.629  70.914  85.637  0.00  0.00    +0.000 C 
ATOM     17  C   UNL     1      89.508  70.385  86.766  0.00  0.00    +0.000 C 
ATOM     18  C   UNL     1      89.688  68.872  86.675  0.00  0.00    +0.000 C 
ENDBRANCH  10  13
TORSDOF 1
ENDMDL
