MODEL 1
REMARK VINA RESULT:      -4.6      0.000      0.000
REMARK  Name = *****
REMARK  5 active torsions:
REMARK  status: ('A' for Active; 'I' for Inactive)
REMARK    1  A    between atoms: C_1  and  C_2
REMARK    2  A    between atoms: C_2  and  C_4
REMARK    3  A    between atoms: C_7  and  S_10
REMARK    4  A    between atoms: S_10  and  C_11
REMARK    5  A    between atoms: C_11  and  C_12
REMARK                            x       y       z     vdW  Elec       q    Type
REMARK                         _______ _______ _______ _____ _____    ______ ____
ROOT
ATOM      1  C   UNL     1      88.763  65.887  87.036  0.00  0.00    +0.000 A 
ATOM      2  C   UNL     1      87.752  66.694  87.573  0.00  0.00    +0.000 A 
ATOM      3  C   UNL     1      87.849  68.088  87.492  0.00  0.00    +0.000 A 
ATOM      4  C   UNL     1      88.955  68.690  86.884  0.00  0.00    +0.000 A 
ATOM      5  C   UNL     1      89.956  67.885  86.338  0.00  0.00    +0.000 A 
ATOM      6  C   UNL     1      89.864  66.492  86.418  0.00  0.00    +0.000 A 
ENDROOT
BRANCH   1   8
ATOM      7  C   UNL     1      88.201  63.733  88.349  0.00  0.00    +0.000 C 
ATOM      8  C   UNL     1      88.709  64.396  87.096  0.00  0.00    +0.000 C 
ATOM      9  O   UNL     1      89.082  63.730  86.131  0.00  0.00    +0.000 OA
ENDBRANCH   1   8
BRANCH   4  10
ATOM     10  S   UNL     1      89.094  70.462  86.757  0.00  0.00    +0.000 S 
BRANCH  10  11
ATOM     11  C   UNL     1      87.802  70.780  85.510  0.00  0.00    +0.000 C 
BRANCH  11  12
ATOM     12  C   UNL     1      86.563  71.371  86.136  0.00  0.00    +0.000 A 
ATOM     13  C   UNL     1      86.394  71.363  87.529  0.00  0.00    +0.000 A 
ATOM     14  C   UNL     1      85.244  71.903  88.106  0.00  0.00    +0.000 A 
ATOM     15  C   UNL     1      84.249  72.451  87.298  0.00  0.00    +0.000 A 
ATOM     16  C   UNL     1      84.401  72.457  85.913  0.00  0.00    +0.000 A 
ATOM     17  C   UNL     1      85.550  71.916  85.334  0.00  0.00    +0.000 A 
ENDBRANCH  11  12
ENDBRANCH  10  11
ENDBRANCH   4  10
TORSDOF 4
ENDMDL
