REMARK  Name = *****
REMARK  6 active torsions:
REMARK  status: ('A' for Active; 'I' for Inactive)
REMARK    1  A    between atoms: C_1  and  C_2
REMARK    2  A    between atoms: C_4  and  C_17
REMARK    3  A    between atoms: C_5  and  C_8
REMARK    4  A    between atoms: C_8  and  O_9
REMARK    5  A    between atoms: O_9  and  C_10
REMARK    6  A    between atoms: C_10  and  C_11
REMARK                            x       y       z     vdW  Elec       q    Type
REMARK                         _______ _______ _______ _____ _____    ______ ____
ROOT
ATOM      1  C   UNL     1      -2.477  -1.821  -0.106  0.00  0.00    +0.000 C 
ENDROOT
BRANCH   1   6
ATOM      2  C   UNL     1       2.529   1.197  -0.018  0.00  0.00    +0.000 C 
ATOM      3  C   UNL     1       1.243   0.429  -0.071  0.00  0.00    +0.000 A 
ATOM      4  C   UNL     1       0.017   1.080   0.109  0.00  0.00    +0.000 A 
ATOM      5  C   UNL     1      -1.196   0.370   0.093  0.00  0.00    +0.000 A 
ATOM      6  C   UNL     1      -1.182  -1.032  -0.083  0.00  0.00    +0.000 A 
ATOM      7  C   UNL     1       0.055  -1.675  -0.255  0.00  0.00    +0.000 A 
ATOM      8  C   UNL     1       1.252  -0.956  -0.242  0.00  0.00    +0.000 A 
ATOM      9  C   UNL     1      -2.483   1.126   0.286  0.00  0.00    +0.000 C 
ENDBRANCH   1   6
BRANCH   1  10
ATOM     10  O   UNL     1      -2.247  -3.229  -0.152  0.00  0.00    +0.000 OA
BRANCH  10  11
ATOM     11  C   UNL     1      -3.471  -3.960  -0.155  0.00  0.00    +0.000 C 
BRANCH  11  12
ATOM     12  C   UNL     1      -3.195  -5.443  -0.201  0.00  0.00    +0.000 A 
ATOM     13  C   UNL     1      -2.112  -6.002   0.494  0.00  0.00    +0.000 A 
ATOM     14  C   UNL     1      -1.890  -7.380   0.476  0.00  0.00    +0.000 A 
ATOM     15  C   UNL     1      -2.754  -8.217  -0.226  0.00  0.00    +0.000 A 
ATOM     16  C   UNL     1      -3.842  -7.678  -0.909  0.00  0.00    +0.000 A 
ATOM     17  C   UNL     1      -4.065  -6.299  -0.893  0.00  0.00    +0.000 A 
ENDBRANCH  11  12
ENDBRANCH  10  11
ENDBRANCH   1  10
TORSDOF 4
