MODEL 1
REMARK VINA RESULT:      -4.0      0.000      0.000
REMARK  Name = *****
REMARK  4 active torsions:
REMARK  status: ('A' for Active; 'I' for Inactive)
REMARK    1  A    between atoms: C_1  and  C_2
REMARK    2  A    between atoms: C_7  and  C_8
REMARK    3  A    between atoms: C_8  and  C_9
REMARK    4  A    between atoms: C_9  and  C_10
REMARK                            x       y       z     vdW  Elec       q    Type
REMARK                         _______ _______ _______ _____ _____    ______ ____
ROOT
ATOM      1  C   UNL     1     102.649 128.740  84.185  0.00  0.00    +0.000 C 
ATOM      2  C   UNL     1     101.350 128.286  83.580  0.00  0.00    +0.000 A 
ATOM      3  C   UNL     1     100.246 129.155  83.612  0.00  0.00    +0.000 A 
ATOM      4  C   UNL     1      99.017 128.775  83.075  0.00  0.00    +0.000 A 
ATOM      5  C   UNL     1      98.871 127.517  82.501  0.00  0.00    +0.000 A 
ATOM      6  C   UNL     1      99.954 126.639  82.468  0.00  0.00    +0.000 A 
ATOM      7  C   UNL     1     101.199 127.005  83.009  0.00  0.00    +0.000 A 
ENDROOT
BRANCH   7   8
ATOM      8  C   UNL     1     102.339 126.012  82.928  0.00  0.00    +0.000 C 
BRANCH   8   9
ATOM      9  C   UNL     1     102.609 125.588  81.477  0.00  0.00    +0.000 C 
BRANCH   9  10
ATOM     10  C   UNL     1     103.850 126.220  80.831  0.00  0.00    +0.000 C 
ATOM     11  C   UNL     1     104.927 126.609  81.815  0.00  0.00    +0.000 C 
ATOM     12  C   UNL     1     105.201 127.918  81.698  0.00  0.00    +0.000 C 
ATOM     13  C   UNL     1     104.369 128.490  80.669  0.00  0.00    +0.000 C 
ATOM     14  C   UNL     1     103.581 127.538  80.149  0.00  0.00    +0.000 C 
ENDBRANCH   9  10
ENDBRANCH   8   9
ENDBRANCH   7   8
TORSDOF 3
ENDMDL
