REMARK  Name = *****
REMARK  4 active torsions:
REMARK  status: ('A' for Active; 'I' for Inactive)
REMARK    1  A    between atoms: N_4  and  C_7
REMARK    2  A    between atoms: C_7  and  C_9
REMARK    3  A    between atoms: C_9  and  C_10
REMARK    4  A    between atoms: C_10  and  C_11
REMARK                            x       y       z     vdW  Elec       q    Type
REMARK                         _______ _______ _______ _____ _____    ______ ____
ROOT
ATOM      1  C   UNL     1       2.715   0.188   1.117  0.00  0.00    +0.000 C 
ATOM      2  S   UNL     1       1.167   0.571   1.677  0.00  0.00    +0.000 S 
ENDROOT
BRANCH   1   6
ATOM      3  C   UNL     1       4.114   1.997  -2.269  0.00  0.00    +0.000 C 
ATOM      4  C   UNL     1       2.887   2.474  -1.489  0.00  0.00    +0.000 C 
ATOM      5  C   UNL     1       3.140   2.420   0.017  0.00  0.00    +0.000 C 
ATOM      6  N   UNL     1       3.551   1.061   0.412  0.00  0.00    +0.000 N 
ATOM      7  C   UNL     1       4.796   0.648  -0.250  0.00  0.00    +0.000 C 
ATOM      8  C   UNL     1       4.603   0.637  -1.766  0.00  0.00    +0.000 C 
ENDBRANCH   1   6
BRANCH   1   9
ATOM      9  C   UNL     1       3.244  -1.210   1.456  0.00  0.00    +0.000 C 
BRANCH   9  10
ATOM     10  C   UNL     1       4.249  -1.160   2.612  0.00  0.00    +0.000 C 
BRANCH  10  11
ATOM     11  C   UNL     1       4.789  -2.543   2.979  0.00  0.00    +0.000 C 
ATOM     12  C   UNL     1       5.769  -2.495   4.150  0.00  0.00    +0.000 C 
ATOM     13  C   UNL     1       6.478  -3.842   4.087  0.00  0.00    +0.000 C 
ATOM     14  C   UNL     1       6.449  -4.262   2.617  0.00  0.00    +0.000 C 
ATOM     15  C   UNL     1       5.628  -3.202   1.886  0.00  0.00    +0.000 C 
ENDBRANCH  10  11
ENDBRANCH   9  10
ENDBRANCH   1   9
TORSDOF 4
