MODEL 1
REMARK VINA RESULT:      -4.5      0.000      0.000
REMARK  Name = *****
REMARK  4 active torsions:
REMARK  status: ('A' for Active; 'I' for Inactive)
REMARK    1  A    between atoms: C_4  and  O_7
REMARK    2  A    between atoms: O_7  and  C_8
REMARK    3  A    between atoms: C_8  and  C_10
REMARK    4  A    between atoms: C_11  and  C_17
REMARK                            x       y       z     vdW  Elec       q    Type
REMARK                         _______ _______ _______ _____ _____    ______ ____
ROOT
ATOM      1  C   UNL     1      87.039  70.921  86.298  0.00  0.00    +0.000 A 
ATOM      2  C   UNL     1      86.881  70.930  87.698  0.00  0.00    +0.000 A 
ATOM      3  C   UNL     1      85.774  71.609  88.243  0.00  0.00    +0.000 A 
ATOM      4  C   UNL     1      84.855  72.240  87.411  0.00  0.00    +0.000 A 
ATOM      5  C   UNL     1      85.007  72.223  86.031  0.00  0.00    +0.000 A 
ATOM      6  C   UNL     1      86.103  71.566  85.470  0.00  0.00    +0.000 A 
ATOM      7  F   UNL     1      83.807  72.875  87.950  0.00  0.00    +0.000 F 
ENDROOT
BRANCH   2   8
ATOM      8  C   UNL     1      87.856  70.233  88.615  0.00  0.00    +0.000 C 
ATOM      9  F   UNL     1      88.049  68.925  88.294  0.00  0.00    +0.000 F 
ATOM     10  F   UNL     1      89.076  70.826  88.650  0.00  0.00    +0.000 F 
ATOM     11  F   UNL     1      87.423  70.217  89.909  0.00  0.00    +0.000 F 
ENDBRANCH   2   8
BRANCH   1  12
ATOM     12  C   UNL     1      88.215  70.271  85.678  0.00  0.00    +0.000 C 
ATOM     13  O   UNL     1      88.173  69.156  85.191  0.00  0.00    +0.000 OA
BRANCH  12  14
ATOM     14  O   UNL     1      89.274  71.154  85.737  0.00  0.00    +0.000 OA
BRANCH  14  18
ATOM     15  C   UNL     1      90.826  72.551  82.121  0.00  0.00    +0.000 A 
ATOM     16  C   UNL     1      89.797  73.262  82.741  0.00  0.00    +0.000 A 
ATOM     17  C   UNL     1      89.256  72.806  83.943  0.00  0.00    +0.000 A 
ATOM     18  C   UNL     1      89.741  71.624  84.503  0.00  0.00    +0.000 A 
ATOM     19  C   UNL     1      90.784  70.919  83.903  0.00  0.00    +0.000 A 
ATOM     20  C   UNL     1      91.322  71.382  82.703  0.00  0.00    +0.000 A 
ENDBRANCH  14  18
ENDBRANCH  12  14
ENDBRANCH   1  12
TORSDOF 4
ENDMDL
