MODEL 1
REMARK VINA RESULT:      -4.7      0.000      0.000
REMARK  Name = *****
REMARK  2 active torsions:
REMARK  status: ('A' for Active; 'I' for Inactive)
REMARK    1  A    between atoms: C_3  and  N_8
REMARK    2  A    between atoms: C_9  and  C_10
REMARK                            x       y       z     vdW  Elec       q    Type
REMARK                         _______ _______ _______ _____ _____    ______ ____
ROOT
ATOM      1  N   UNL     1     101.811 125.920  82.507  0.00  0.00    +0.000 NA
ATOM      2  C   UNL     1     102.664 126.161  81.562  0.00  0.00    +0.000 C 
ENDROOT
BRANCH   1   5
ATOM      3  C   UNL     1      98.634 127.821  82.694  0.00  0.00    +0.000 A 
ATOM      4  C   UNL     1      99.554 126.800  82.436  0.00  0.00    +0.000 A 
ATOM      5  C   UNL     1     100.900 126.947  82.789  0.00  0.00    +0.000 A 
ATOM      6  C   UNL     1     101.327 128.137  83.379  0.00  0.00    +0.000 A 
ATOM      7  C   UNL     1     100.408 129.147  83.632  0.00  0.00    +0.000 A 
ATOM      8  C   UNL     1      99.065 129.000  83.299  0.00  0.00    +0.000 A 
ATOM      9  F   UNL     1     100.820 130.285  84.208  0.00  0.00    +0.000 F 
ENDBRANCH   1   5
BRANCH   2  10
ATOM     10  C   UNL     1     103.680 125.169  81.159  0.00  0.00    +0.000 A 
ATOM     11  C   UNL     1     104.380 125.310  79.955  0.00  0.00    +0.000 A 
ATOM     12  C   UNL     1     105.336 124.360  79.594  0.00  0.00    +0.000 A 
ATOM     13  C   UNL     1     105.581 123.280  80.436  0.00  0.00    +0.000 A 
ATOM     14  C   UNL     1     104.890 123.132  81.635  0.00  0.00    +0.000 A 
ATOM     15  C   UNL     1     103.933 124.080  82.002  0.00  0.00    +0.000 A 
ATOM     16  F   UNL     1     106.498 122.368  80.090  0.00  0.00    +0.000 F 
ENDBRANCH   2  10
TORSDOF 2
ENDMDL
