MODEL 1
REMARK VINA RESULT:      -4.6      0.000      0.000
REMARK  Name = *****
REMARK  4 active torsions:
REMARK  status: ('A' for Active; 'I' for Inactive)
REMARK    1  A    between atoms: C_1  and  C_2
REMARK    2  A    between atoms: C_7  and  O_8
REMARK    3  A    between atoms: O_8  and  C_9
REMARK    4  A    between atoms: C_9  and  C_11
REMARK                            x       y       z     vdW  Elec       q    Type
REMARK                         _______ _______ _______ _____ _____    ______ ____
ROOT
ATOM      1  O   UNL     1     103.406 126.471  82.027  0.00  0.00    +0.000 OA
ENDROOT
BRANCH   1   8
ATOM      2  C   UNL     1     103.483 128.978  83.437  0.00  0.00    +0.000 C 
ATOM      3  C   UNL     1     102.207 128.243  83.160  0.00  0.00    +0.000 A 
ATOM      4  C   UNL     1     100.979 128.766  83.584  0.00  0.00    +0.000 A 
ATOM      5  C   UNL     1      99.787 128.087  83.318  0.00  0.00    +0.000 A 
ATOM      6  C   UNL     1      99.804 126.879  82.621  0.00  0.00    +0.000 A 
ATOM      7  C   UNL     1     101.015 126.348  82.182  0.00  0.00    +0.000 A 
ATOM      8  C   UNL     1     102.199 127.043  82.436  0.00  0.00    +0.000 A 
ENDBRANCH   1   8
BRANCH   1   9
ATOM      9  C   UNL     1     103.624 126.557  80.657  0.00  0.00    +0.000 C 
ATOM     10  O   UNL     1     103.412 127.529  79.942  0.00  0.00    +0.000 OA
BRANCH   9  11
ATOM     11  C   UNL     1     104.188 125.248  80.136  0.00  0.00    +0.000 C 
ATOM     12  C   UNL     1     104.167 124.164  81.219  0.00  0.00    +0.000 C 
ATOM     13  C   UNL     1     104.752 122.851  80.702  0.00  0.00    +0.000 C 
ATOM     14  C   UNL     1     106.151 123.046  80.125  0.00  0.00    +0.000 C 
ATOM     15  C   UNL     1     106.172 124.126  79.046  0.00  0.00    +0.000 C 
ATOM     16  C   UNL     1     105.593 125.443  79.556  0.00  0.00    +0.000 C 
ENDBRANCH   9  11
ENDBRANCH   1   9
TORSDOF 3
ENDMDL
