MODEL 1
REMARK VINA RESULT:      -4.6      0.000      0.000
REMARK  Name = *****
REMARK  3 active torsions:
REMARK  status: ('A' for Active; 'I' for Inactive)
REMARK    1  A    between atoms: C_4  and  C_7
REMARK    2  A    between atoms: C_8  and  C_9
REMARK    3  A    between atoms: C_9  and  C_10
REMARK                            x       y       z     vdW  Elec       q    Type
REMARK                         _______ _______ _______ _____ _____    ______ ____
ROOT
ATOM      1  C   UNL     1      87.037  71.266  85.624  0.00  0.00    +0.000 C 
ATOM      2  C   UNL     1      88.264  70.865  85.999  0.00  0.00    +0.000 C 
ENDROOT
BRANCH   1   6
ATOM      3  C   UNL     1      83.904  72.478  88.276  0.00  0.00    +0.000 A 
ATOM      4  C   UNL     1      85.067  71.918  88.800  0.00  0.00    +0.000 A 
ATOM      5  C   UNL     1      86.096  71.511  87.946  0.00  0.00    +0.000 A 
ATOM      6  C   UNL     1      85.968  71.650  86.558  0.00  0.00    +0.000 A 
ATOM      7  C   UNL     1      84.801  72.231  86.045  0.00  0.00    +0.000 A 
ATOM      8  C   UNL     1      83.772  72.638  86.899  0.00  0.00    +0.000 A 
ENDBRANCH   1   6
BRANCH   2   9
ATOM      9  C   UNL     1      89.340  70.464  85.029  0.00  0.00    +0.000 C 
BRANCH   9  10
ATOM     10  C   UNL     1      89.674  68.999  85.113  0.00  0.00    +0.000 A 
ATOM     11  C   UNL     1      89.839  68.229  83.964  0.00  0.00    +0.000 A 
ATOM     12  N   UNL     1      90.141  66.913  83.967  0.00  0.00    +0.000 NA
ATOM     13  C   UNL     1      90.291  66.338  85.177  0.00  0.00    +0.000 A 
ATOM     14  C   UNL     1      90.154  67.002  86.382  0.00  0.00    +0.000 A 
ATOM     15  C   UNL     1      89.839  68.358  86.346  0.00  0.00    +0.000 A 
ATOM     16 CL   UNL     1      90.676  64.667  85.132  0.00  0.00    +0.000 Cl
ENDBRANCH   9  10
ENDBRANCH   2   9
TORSDOF 3
ENDMDL
