MODEL 1
REMARK VINA RESULT:      -4.0      0.000      0.000
REMARK  Name = *****
REMARK  3 active torsions:
REMARK  status: ('A' for Active; 'I' for Inactive)
REMARK    1  A    between atoms: C_4  and  S_7
REMARK    2  A    between atoms: S_7  and  S_8
REMARK    3  A    between atoms: S_8  and  C_11
REMARK                            x       y       z     vdW  Elec       q    Type
REMARK                         _______ _______ _______ _____ _____    ______ ____
ROOT
ATOM      1  S   UNL     1      89.046  69.017  83.558  0.00  0.00    +0.000 S 
ATOM      2  O   UNL     1      87.704  69.338  83.114  0.00  0.00    +0.000 OA
ATOM      3  O   UNL     1      90.050  68.518  82.638  0.00  0.00    +0.000 OA
ENDROOT
BRANCH   1   4
ATOM      4  C   UNL     1      88.895  67.826  84.875  0.00  0.00    +0.000 A 
ATOM      5  C   UNL     1      90.051  67.264  85.432  0.00  0.00    +0.000 A 
ATOM      6  C   UNL     1      89.932  66.347  86.477  0.00  0.00    +0.000 A 
ATOM      7  C   UNL     1      88.669  66.005  86.963  0.00  0.00    +0.000 A 
ATOM      8  C   UNL     1      87.519  66.578  86.416  0.00  0.00    +0.000 A 
ATOM      9  C   UNL     1      87.629  67.496  85.370  0.00  0.00    +0.000 A 
ATOM     10 CL   UNL     1      88.528  64.874  88.251  0.00  0.00    +0.000 Cl
ENDBRANCH   1   4
BRANCH   1  11
ATOM     11  S   UNL     1      89.830  70.688  84.547  0.00  0.00    +0.000 S 
BRANCH  11  15
ATOM     12  C   UNL     1      87.236  70.846  88.317  0.00  0.00    +0.000 A 
ATOM     13  C   UNL     1      88.572  70.462  88.411  0.00  0.00    +0.000 A 
ATOM     14  C   UNL     1      89.367  70.409  87.264  0.00  0.00    +0.000 A 
ATOM     15  C   UNL     1      88.826  70.731  86.015  0.00  0.00    +0.000 A 
ATOM     16  C   UNL     1      87.487  71.123  85.929  0.00  0.00    +0.000 A 
ATOM     17  C   UNL     1      86.693  71.178  87.077  0.00  0.00    +0.000 A 
ENDBRANCH  11  15
ENDBRANCH   1  11
TORSDOF 3
ENDMDL
