MODEL 1
REMARK VINA RESULT:      -4.8      0.000      0.000
REMARK  Name = *****
REMARK  3 active torsions:
REMARK  status: ('A' for Active; 'I' for Inactive)
REMARK    1  A    between atoms: C_4  and  C_7
REMARK    2  A    between atoms: C_7  and  C_8
REMARK    3  A    between atoms: C_8  and  C_9
REMARK                            x       y       z     vdW  Elec       q    Type
REMARK                         _______ _______ _______ _____ _____    ______ ____
ROOT
ATOM      1  C   UNL     1     103.508 128.159  82.437  0.00  0.00    +0.000 C 
ENDROOT
BRANCH   1   2
ATOM      2  C   UNL     1     103.803 126.790  81.881  0.00  0.00    +0.000 A 
ATOM      3  C   UNL     1     103.682 126.541  80.508  0.00  0.00    +0.000 A 
ATOM      4  C   UNL     1     103.934 125.284  79.973  0.00  0.00    +0.000 A 
ATOM      5  C   UNL     1     104.309 124.256  80.826  0.00  0.00    +0.000 A 
ATOM      6  C   UNL     1     104.432 124.469  82.196  0.00  0.00    +0.000 A 
ATOM      7  C   UNL     1     104.177 125.736  82.727  0.00  0.00    +0.000 A 
ATOM      8  F   UNL     1     104.553 123.039  80.326  0.00  0.00    +0.000 F 
ATOM      9  F   UNL     1     103.310 127.531  79.683  0.00  0.00    +0.000 F 
ENDBRANCH   1   2
BRANCH   1  10
ATOM     10  C   UNL     1     102.645 128.085  83.700  0.00  0.00    +0.000 C 
BRANCH  10  14
ATOM     11  C   UNL     1      98.454 127.923  82.698  0.00  0.00    +0.000 A 
ATOM     12  C   UNL     1      99.279 126.832  82.430  0.00  0.00    +0.000 A 
ATOM     13  C   UNL     1     100.634 126.882  82.760  0.00  0.00    +0.000 A 
ATOM     14  C   UNL     1     101.176 128.023  83.364  0.00  0.00    +0.000 A 
ATOM     15  C   UNL     1     100.340 129.118  83.625  0.00  0.00    +0.000 A 
ATOM     16  C   UNL     1      98.985 129.066  83.294  0.00  0.00    +0.000 A 
ENDBRANCH  10  14
ENDBRANCH   1  10
TORSDOF 3
ENDMDL
