REMARK  Name = *****
REMARK  7 active torsions:
REMARK  status: ('A' for Active; 'I' for Inactive)
REMARK    1  A    between atoms: C_1  and  C_2
REMARK    2  A    between atoms: C_4  and  C_10
REMARK    3  A    between atoms: C_6  and  O_8
REMARK    4  A    between atoms: O_8  and  C_9
REMARK    5  A    between atoms: C_10  and  S_11
REMARK    6  A    between atoms: S_11  and  C_12
REMARK    7  A    between atoms: C_15  and  C_18
REMARK                            x       y       z     vdW  Elec       q    Type
REMARK                         _______ _______ _______ _____ _____    ______ ____
ROOT
ATOM      1  C   UNL     1       2.571  -0.023   0.375  0.00  0.00    +0.000 C 
ATOM      2  C   UNL     1       1.086   0.007   0.149  0.00  0.00    +0.000 C 
ATOM      3  C   UNL     1       0.439   1.147  -0.147  0.00  0.00    +0.000 C 
ATOM      4  C   UNL     1      -1.047   1.231  -0.381  0.00  0.00    +0.000 C 
ATOM      5  C   UNL     1      -1.790  -0.011   0.156  0.00  0.00    +0.000 C 
ATOM      6  C   UNL     1      -1.105  -1.339  -0.167  0.00  0.00    +0.000 C 
ATOM      7  C   UNL     1       0.376  -1.324   0.267  0.00  0.00    +0.000 C 
ENDROOT
BRANCH   6   8
ATOM      8  O   UNL     1      -1.295  -1.597  -1.561  0.00  0.00    +0.000 OA
ATOM      9  C   UNL     1      -1.078  -2.947  -1.942  0.00  0.00    +0.000 C 
ENDBRANCH   6   8
BRANCH   4  10
ATOM     10  C   UNL     1      -1.452   1.630  -1.824  0.00  0.00    +0.000 C 
BRANCH  10  11
ATOM     11  S   UNL     1      -0.395   1.023  -3.195  0.00  0.00    +0.000 S 
BRANCH  11  12
ATOM     12  C   UNL     1      -1.426   1.480  -4.573  0.00  0.00    +0.000 A 
ATOM     13  C   UNL     1      -1.065   2.553  -5.389  0.00  0.00    +0.000 A 
ATOM     14  C   UNL     1      -1.868   2.913  -6.475  0.00  0.00    +0.000 A 
ATOM     15  C   UNL     1      -3.031   2.192  -6.768  0.00  0.00    +0.000 A 
ATOM     16  C   UNL     1      -3.390   1.118  -5.946  0.00  0.00    +0.000 A 
ATOM     17  C   UNL     1      -2.588   0.758  -4.860  0.00  0.00    +0.000 A 
ATOM     18  C   UNL     1      -3.909   2.598  -7.914  0.00  0.00    +0.000 C 
ENDBRANCH  11  12
ENDBRANCH  10  11
ENDBRANCH   4  10
TORSDOF 4
