MODEL 1
REMARK VINA RESULT:      -3.5      0.000      0.000
REMARK  Name = *****
REMARK  2 active torsions:
REMARK  status: ('A' for Active; 'I' for Inactive)
REMARK    1  A    between atoms: P_4  and  S_7
REMARK    2  A    between atoms: S_7  and  C_8
REMARK                            x       y       z     vdW  Elec       q    Type
REMARK                         _______ _______ _______ _____ _____    ______ ____
ROOT
ATOM      1  S   UNL     1     103.087 127.438  83.006  0.00  0.00    +0.000 S 
ENDROOT
BRANCH   1   5
ATOM      2  C   UNL     1     106.365 125.829  80.993  0.00  0.00    +0.000 C 
ATOM      3  C   UNL     1     106.304 125.961  82.511  0.00  0.00    +0.000 C 
ATOM      4  S   UNL     1     105.058 124.899  83.279  0.00  0.00    +0.000 S 
ATOM      5  P   UNL     1     103.162 125.388  82.528  0.00  0.00    +0.000 P 
ATOM      6  S   UNL     1     103.640 125.484  80.487  0.00  0.00    +0.000 S 
ATOM      7  C   UNL     1     105.166 126.433  80.271  0.00  0.00    +0.000 C 
ENDBRANCH   1   5
BRANCH   1   8
ATOM      8  C   UNL     1     101.317 127.644  82.993  0.00  0.00    +0.000 A 
ATOM      9  C   UNL     1     100.739 128.808  83.509  0.00  0.00    +0.000 A 
ATOM     10  C   UNL     1      99.352 128.978  83.484  0.00  0.00    +0.000 A 
ATOM     11  C   UNL     1      98.538 127.988  82.936  0.00  0.00    +0.000 A 
ATOM     12  C   UNL     1      99.109 126.830  82.408  0.00  0.00    +0.000 A 
ATOM     13  C   UNL     1     100.494 126.660  82.432  0.00  0.00    +0.000 A 
ENDBRANCH   1   8
TORSDOF 2
ENDMDL
