REMARK  Name = *****
REMARK  4 active torsions:
REMARK  status: ('A' for Active; 'I' for Inactive)
REMARK    1  A    between atoms: C_1  and  C_2
REMARK    2  A    between atoms: C_3  and  N_9
REMARK    3  A    between atoms: C_4  and  C_8
REMARK    4  A    between atoms: C_10  and  C_11
REMARK                            x       y       z     vdW  Elec       q    Type
REMARK                         _______ _______ _______ _____ _____    ______ ____
ROOT
ATOM      1  N   UNL     1      -0.105   2.264   0.607  0.00  0.00    +0.000 NA
ATOM      2  C   UNL     1      -0.526   3.123  -0.273  0.00  0.00    +0.000 C 
ATOM      3 CL   UNL     1      -0.154   4.774   0.142  0.00  0.00    +0.000 Cl
ENDROOT
BRANCH   1   6
ATOM      4  C   UNL     1       2.121   0.596  -0.041  0.00  0.00    +0.000 C 
ATOM      5  C   UNL     1       0.735   0.038   0.142  0.00  0.00    +0.000 A 
ATOM      6  C   UNL     1      -0.343   0.886   0.475  0.00  0.00    +0.000 A 
ATOM      7  C   UNL     1      -1.608   0.325   0.747  0.00  0.00    +0.000 A 
ATOM      8  C   UNL     1      -1.803  -1.054   0.572  0.00  0.00    +0.000 A 
ATOM      9  C   UNL     1      -0.748  -1.879   0.192  0.00  0.00    +0.000 A 
ATOM     10  C   UNL     1       0.519  -1.339  -0.009  0.00  0.00    +0.000 A 
ATOM     11  C   UNL     1      -2.775   1.162   1.194  0.00  0.00    +0.000 C 
ENDBRANCH   1   6
BRANCH   2  12
ATOM     12  C   UNL     1      -1.269   2.853  -1.533  0.00  0.00    +0.000 A 
ATOM     13  C   UNL     1      -2.452   3.559  -1.786  0.00  0.00    +0.000 A 
ATOM     14  C   UNL     1      -3.159   3.336  -2.969  0.00  0.00    +0.000 A 
ATOM     15  C   UNL     1      -2.682   2.419  -3.904  0.00  0.00    +0.000 A 
ATOM     16  C   UNL     1      -1.495   1.726  -3.662  0.00  0.00    +0.000 A 
ATOM     17  C   UNL     1      -0.785   1.946  -2.481  0.00  0.00    +0.000 A 
ENDBRANCH   2  12
TORSDOF 2
