MODEL 1
REMARK VINA RESULT:      -4.5      0.000      0.000
REMARK  Name = *****
REMARK  3 active torsions:
REMARK  status: ('A' for Active; 'I' for Inactive)
REMARK    1  A    between atoms: C_1  and  C_2
REMARK    2  A    between atoms: C_2  and  C_11
REMARK    3  A    between atoms: N_3  and  C_4
REMARK                            x       y       z     vdW  Elec       q    Type
REMARK                         _______ _______ _______ _____ _____    ______ ____
ROOT
ATOM      1  C   UNL     1     103.341 126.346  80.595  0.00  0.00    +0.000 C 
ATOM      2  C   UNL     1     103.346 125.349  81.740  0.00  0.00    +0.000 C 
ATOM      3  N   UNL     1     102.675 125.505  82.845  0.00  0.00    +0.000 NA
ENDROOT
BRANCH   3   4
ATOM      4  C   UNL     1     101.872 126.634  83.031  0.00  0.00    +0.000 A 
ATOM      5  C   UNL     1     100.513 126.603  82.702  0.00  0.00    +0.000 A 
ATOM      6  C   UNL     1      99.708 127.725  82.914  0.00  0.00    +0.000 A 
ATOM      7  C   UNL     1     100.262 128.876  83.471  0.00  0.00    +0.000 A 
ATOM      8  C   UNL     1     101.610 128.912  83.824  0.00  0.00    +0.000 A 
ATOM      9  C   UNL     1     102.411 127.787  83.609  0.00  0.00    +0.000 A 
ATOM     10 CL   UNL     1      99.274 130.259  83.733  0.00  0.00    +0.000 Cl
ENDBRANCH   3   4
BRANCH   2  11
ATOM     11  C   UNL     1     104.163 124.104  81.582  0.00  0.00    +0.000 A 
ATOM     12  C   UNL     1     104.345 123.267  82.694  0.00  0.00    +0.000 A 
ATOM     13  C   UNL     1     105.096 122.096  82.577  0.00  0.00    +0.000 A 
ATOM     14  C   UNL     1     105.655 121.761  81.349  0.00  0.00    +0.000 A 
ATOM     15  C   UNL     1     105.472 122.574  80.235  0.00  0.00    +0.000 A 
ATOM     16  C   UNL     1     104.722 123.747  80.348  0.00  0.00    +0.000 A 
ATOM     17  F   UNL     1     106.374 120.638  81.235  0.00  0.00    +0.000 F 
ENDBRANCH   2  11
TORSDOF 2
ENDMDL
