MODEL 1
REMARK VINA RESULT:      -4.8      0.000      0.000
REMARK  Name = *****
REMARK  4 active torsions:
REMARK  status: ('A' for Active; 'I' for Inactive)
REMARK    1  A    between atoms: C_1  and  C_2
REMARK    2  A    between atoms: C_2  and  C_9
REMARK    3  A    between atoms: C_9  and  C_10
REMARK    4  A    between atoms: C_11  and  C_12
REMARK                            x       y       z     vdW  Elec       q    Type
REMARK                         _______ _______ _______ _____ _____    ______ ____
ROOT
ATOM      1  C   UNL     1      89.696  66.574  86.452  0.00  0.00    +0.000 C 
ENDROOT
BRANCH   1   3
ATOM      2  C   UNL     1      87.656  67.941  85.799  0.00  0.00    +0.000 C 
ATOM      3  C   UNL     1      89.189  67.953  85.940  0.00  0.00    +0.000 C 
ATOM      4  C   UNL     1      89.656  69.078  86.892  0.00  0.00    +0.000 C 
ATOM      5  C   UNL     1      89.468  70.486  86.328  0.00  0.00    +0.000 C 
ATOM      6  C   UNL     1      90.187  70.633  84.994  0.00  0.00    +0.000 C 
ATOM      7  C   UNL     1      89.703  69.607  83.983  0.00  0.00    +0.000 C 
ATOM      8  C   UNL     1      89.787  68.201  84.543  0.00  0.00    +0.000 C 
ATOM      9  O   UNL     1      90.221  67.285  83.842  0.00  0.00    +0.000 OA
ENDBRANCH   1   3
BRANCH   1  10
ATOM     10  C   UNL     1      88.729  65.817  87.327  0.00  0.00    +0.000 C 
ATOM     11  C   UNL     1      88.763  64.484  87.489  0.00  0.00    +0.000 C 
BRANCH  11  12
ATOM     12  C   UNL     1      87.828  63.724  88.334  0.00  0.00    +0.000 A 
ATOM     13  C   UNL     1      87.108  62.621  87.854  0.00  0.00    +0.000 A 
ATOM     14  C   UNL     1      86.253  61.908  88.699  0.00  0.00    +0.000 A 
ATOM     15  C   UNL     1      86.119  62.280  90.034  0.00  0.00    +0.000 A 
ATOM     16  C   UNL     1      86.843  63.362  90.527  0.00  0.00    +0.000 A 
ATOM     17  C   UNL     1      87.697  64.077  89.682  0.00  0.00    +0.000 A 
ENDBRANCH  11  12
ENDBRANCH   1  10
TORSDOF 3
ENDMDL
