MODEL 1
REMARK VINA RESULT:      -4.7      0.000      0.000
REMARK  Name = *****
REMARK  8 active torsions:
REMARK  status: ('A' for Active; 'I' for Inactive)
REMARK    1  A    between atoms: C_1  and  C_2
REMARK    2  A    between atoms: C_3  and  C_18
REMARK    3  A    between atoms: C_4  and  C_17
REMARK    4  A    between atoms: C_5  and  C_10
REMARK    5  A    between atoms: C_6  and  C_9
REMARK    6  A    between atoms: C_7  and  C_8
REMARK    7  A    between atoms: C_10  and  S_11
REMARK    8  A    between atoms: S_11  and  C_12
REMARK                            x       y       z     vdW  Elec       q    Type
REMARK                         _______ _______ _______ _____ _____    ______ ____
ROOT
ATOM      1  C   UNL     1      85.081  71.984  89.364  0.00  0.00    +0.000 C 
ATOM      2  C   UNL     1      85.941  71.560  88.193  0.00  0.00    +0.000 A 
ATOM      3  C   UNL     1      85.509  71.867  86.876  0.00  0.00    +0.000 A 
ATOM      4  C   UNL     1      86.265  71.427  85.757  0.00  0.00    +0.000 A 
ATOM      5  C   UNL     1      87.533  70.814  85.955  0.00  0.00    +0.000 A 
ATOM      6  C   UNL     1      88.022  70.628  87.281  0.00  0.00    +0.000 A 
ATOM      7  C   UNL     1      87.186  70.913  88.393  0.00  0.00    +0.000 A 
ATOM      8  C   UNL     1      87.627  70.558  89.798  0.00  0.00    +0.000 C 
ATOM      9  C   UNL     1      89.418  70.089  87.514  0.00  0.00    +0.000 C 
ATOM     10  C   UNL     1      85.734  71.698  84.364  0.00  0.00    +0.000 C 
ATOM     11  C   UNL     1      84.207  72.610  86.659  0.00  0.00    +0.000 C 
ENDROOT
BRANCH   5  12
ATOM     12  C   UNL     1      88.374  70.370  84.764  0.00  0.00    +0.000 C 
BRANCH  12  13
ATOM     13  S   UNL     1      87.761  68.817  84.045  0.00  0.00    +0.000 S 
BRANCH  13  14
ATOM     14  C   UNL     1      88.868  67.692  84.758  0.00  0.00    +0.000 C 
ATOM     15  N   UNL     1      90.058  67.456  84.302  0.00  0.00    +0.000 NA
ATOM     16  C   UNL     1      90.605  66.416  85.198  0.00  0.00    +0.000 C 
ATOM     17  C   UNL     1      89.776  66.487  86.468  0.00  0.00    +0.000 C 
ATOM     18  C   UNL     1      88.421  66.920  85.956  0.00  0.00    +0.000 C 
ENDBRANCH  13  14
ENDBRANCH  12  13
ENDBRANCH   5  12
TORSDOF 3
ENDMDL
