MODEL 1
REMARK VINA RESULT:      -3.5      0.000      0.000
REMARK  Name = *****
REMARK  6 active torsions:
REMARK  status: ('A' for Active; 'I' for Inactive)
REMARK    1  A    between atoms: C_1  and  C_2
REMARK    2  A    between atoms: C_2  and  O_3
REMARK    3  A    between atoms: O_3  and  C_4
REMARK    4  A    between atoms: C_7  and  C_9
REMARK    5  A    between atoms: C_9  and  C_10
REMARK    6  A    between atoms: C_10  and  C_11
REMARK                            x       y       z     vdW  Elec       q    Type
REMARK                         _______ _______ _______ _____ _____    ______ ____
ROOT
ATOM      1  C   UNL     1      88.038  71.116  84.772  0.00  0.00    +0.000 C 
ATOM      2  C   UNL     1      89.256  71.661  84.883  0.00  0.00    +0.000 C 
ATOM      3  C   UNL     1      90.324  70.627  84.734  0.00  0.00    +0.000 C 
ATOM      4  C   UNL     1      89.561  69.296  84.892  0.00  0.00    +0.000 C 
ATOM      5  C   UNL     1      88.103  69.640  84.536  0.00  0.00    +0.000 C 
ENDROOT
BRANCH   1   6
ATOM      6  O   UNL     1      86.805  71.693  84.832  0.00  0.00    +0.000 OA
BRANCH   6   8
ATOM      7  C   UNL     1      85.597  71.828  86.884  0.00  0.00    +0.000 C 
ATOM      8  C   UNL     1      85.827  71.017  85.623  0.00  0.00    +0.000 C 
ENDBRANCH   6   8
ENDBRANCH   1   6
BRANCH   4   9
ATOM      9  C   UNL     1      89.712  68.745  86.326  0.00  0.00    +0.000 C 
BRANCH   9  10
ATOM     10  C   UNL     1      88.375  68.305  86.935  0.00  0.00    +0.000 C 
BRANCH  10  11
ATOM     11  C   UNL     1      87.973  69.191  88.089  0.00  0.00    +0.000 A 
ATOM     12  C   UNL     1      88.718  70.338  88.394  0.00  0.00    +0.000 A 
ATOM     13  C   UNL     1      88.358  71.150  89.471  0.00  0.00    +0.000 A 
ATOM     14  C   UNL     1      87.253  70.820  90.254  0.00  0.00    +0.000 A 
ATOM     15  C   UNL     1      86.508  69.679  89.962  0.00  0.00    +0.000 A 
ATOM     16  C   UNL     1      86.868  68.865  88.886  0.00  0.00    +0.000 A 
ENDBRANCH  10  11
ENDBRANCH   9  10
ENDBRANCH   4   9
TORSDOF 5
ENDMDL
