MODEL 1
REMARK VINA RESULT:      -4.8      0.000      0.000
REMARK  Name = *****
REMARK  3 active torsions:
REMARK  status: ('A' for Active; 'I' for Inactive)
REMARK    1  A    between atoms: C_5  and  N_7
REMARK    2  A    between atoms: N_7  and  N_8
REMARK    3  A    between atoms: N_8  and  C_10
REMARK                            x       y       z     vdW  Elec       q    Type
REMARK                         _______ _______ _______ _____ _____    ______ ____
ROOT
ATOM      1  N   UNL     1     101.351 125.900  82.111  0.00  0.00    +0.000 N 
ATOM      2  H   UNL     1     100.856 125.418  81.410  0.00  0.00    +0.000 HD
ENDROOT
BRANCH   1   7
ATOM      3  C   UNL     1     100.588 129.190  83.736  0.00  0.00    +0.000 A 
ATOM      4  C   UNL     1      99.201 129.226  83.599  0.00  0.00    +0.000 A 
ATOM      5  C   UNL     1      98.545 128.171  82.977  0.00  0.00    +0.000 A 
ATOM      6  C   UNL     1      99.285 127.091  82.500  0.00  0.00    +0.000 A 
ATOM      7  C   UNL     1     100.684 127.026  82.624  0.00  0.00    +0.000 A 
ATOM      8  C   UNL     1     101.322 128.098  83.251  0.00  0.00    +0.000 A 
ATOM      9  F   UNL     1      98.634 126.080  81.901  0.00  0.00    +0.000 F 
ENDBRANCH   1   7
BRANCH   1  10
ATOM     10  N   UNL     1     102.611 125.336  82.424  0.00  0.00    +0.000 N 
ATOM     11  O   UNL     1     102.850 124.937  83.549  0.00  0.00    +0.000 OA
BRANCH  10  12
ATOM     12  C   UNL     1     103.664 125.216  81.429  0.00  0.00    +0.000 A 
ATOM     13  C   UNL     1     104.180 123.949  81.114  0.00  0.00    +0.000 A 
ATOM     14  C   UNL     1     105.192 123.822  80.160  0.00  0.00    +0.000 A 
ATOM     15  C   UNL     1     105.695 124.952  79.516  0.00  0.00    +0.000 A 
ATOM     16  C   UNL     1     105.185 126.212  79.826  0.00  0.00    +0.000 A 
ATOM     17  C   UNL     1     104.175 126.337  80.779  0.00  0.00    +0.000 A 
ATOM     18  F   UNL     1     103.712 127.566  81.050  0.00  0.00    +0.000 F 
ENDBRANCH  10  12
ENDBRANCH   1  10
TORSDOF 3
ENDMDL
