MODEL 1
REMARK VINA RESULT:      -4.8      0.000      0.000
REMARK  Name = *****
REMARK  4 active torsions:
REMARK  status: ('A' for Active; 'I' for Inactive)
REMARK    1  A    between atoms: C_4  and  C_7
REMARK    2  A    between atoms: C_7  and  C_9
REMARK    3  A    between atoms: C_9  and  C_10
REMARK    4  A    between atoms: C_10  and  C_11
REMARK                            x       y       z     vdW  Elec       q    Type
REMARK                         _______ _______ _______ _____ _____    ______ ____
ROOT
ATOM      1  C   UNL     1     100.442 126.619  83.315  0.00  0.00    +0.000 C 
ENDROOT
BRANCH   1   2
ATOM      2  C   UNL     1      99.260 127.515  83.011  0.00  0.00    +0.000 C 
ATOM      3  O   UNL     1      98.502 127.305  82.067  0.00  0.00    +0.000 OA
BRANCH   2   7
ATOM      4  C   UNL     1      98.694 131.053  85.382  0.00  0.00    +0.000 A 
ATOM      5  C   UNL     1      98.234 129.827  85.862  0.00  0.00    +0.000 A 
ATOM      6  C   UNL     1      98.409 128.664  85.105  0.00  0.00    +0.000 A 
ATOM      7  C   UNL     1      99.043 128.726  83.859  0.00  0.00    +0.000 A 
ATOM      8  C   UNL     1      99.509 129.961  83.387  0.00  0.00    +0.000 A 
ATOM      9  C   UNL     1      99.333 131.120  84.145  0.00  0.00    +0.000 A 
ENDBRANCH   2   7
ENDBRANCH   1   2
BRANCH   1  10
ATOM     10  C   UNL     1     101.475 126.680  82.192  0.00  0.00    +0.000 C 
ATOM     11  F   UNL     1     101.981 125.410  82.051  0.00  0.00    +0.000 F 
BRANCH  10  12
ATOM     12  C   UNL     1     102.575 127.672  82.519  0.00  0.00    +0.000 A 
ATOM     13  C   UNL     1     102.628 128.235  83.807  0.00  0.00    +0.000 A 
ATOM     14  C   UNL     1     103.616 129.161  84.147  0.00  0.00    +0.000 A 
ATOM     15  C   UNL     1     104.567 129.542  83.204  0.00  0.00    +0.000 A 
ATOM     16  C   UNL     1     104.530 128.995  81.922  0.00  0.00    +0.000 A 
ATOM     17  C   UNL     1     103.541 128.066  81.580  0.00  0.00    +0.000 A 
ATOM     18 CL   UNL     1     103.560 127.438  79.970  0.00  0.00    +0.000 Cl
ENDBRANCH  10  12
ENDBRANCH   1  10
TORSDOF 4
ENDMDL
