REMARK  Name = *****
REMARK  5 active torsions:
REMARK  status: ('A' for Active; 'I' for Inactive)
REMARK    1  A    between atoms: C_1  and  N_2
REMARK    2  A    between atoms: N_2  and  C_3
REMARK    3  A    between atoms: N_2  and  C_4
REMARK    4  A    between atoms: C_7  and  C_10
REMARK    5  A    between atoms: C_11  and  C_12
REMARK                            x       y       z     vdW  Elec       q    Type
REMARK                         _______ _______ _______ _____ _____    ______ ____
ROOT
ATOM      1  C   UNL     1       3.219  -1.246  -0.195  0.00  0.00    +0.000 A 
ATOM      2  C   UNL     1       2.596  -2.336  -0.831  0.00  0.00    +0.000 A 
ATOM      3  C   UNL     1       3.138  -3.630  -0.807  0.00  0.00    +0.000 A 
ATOM      4  C   UNL     1       4.337  -3.872  -0.148  0.00  0.00    +0.000 A 
ATOM      5  C   UNL     1       4.990  -2.818   0.479  0.00  0.00    +0.000 A 
ATOM      6  C   UNL     1       4.439  -1.528   0.448  0.00  0.00    +0.000 A 
ENDROOT
BRANCH   1   8
ATOM      7  C   UNL     1       1.273   0.211  -0.601  0.00  0.00    +0.000 C 
ATOM      8  N   UNL     1       2.680   0.046  -0.238  0.00  0.00    +0.000 N 
ATOM      9  C   UNL     1       3.231   1.078   0.637  0.00  0.00    +0.000 C 
ENDBRANCH   1   8
BRANCH   4  10
ATOM     10  C   UNL     1       4.893  -5.189  -0.121  0.00  0.00    +0.000 C 
ATOM     11  C   UNL     1       5.353  -6.298  -0.102  0.00  0.00    +0.000 C 
BRANCH  11  12
ATOM     12  C   UNL     1       5.900  -7.623  -0.081  0.00  0.00    +0.000 A 
ATOM     13  C   UNL     1       7.289  -7.774  -0.174  0.00  0.00    +0.000 A 
ATOM     14  C   UNL     1       7.866  -9.046  -0.158  0.00  0.00    +0.000 A 
ATOM     15  C   UNL     1       7.058 -10.176  -0.049  0.00  0.00    +0.000 A 
ATOM     16  C   UNL     1       5.672 -10.036   0.043  0.00  0.00    +0.000 A 
ATOM     17  C   UNL     1       5.092  -8.763   0.027  0.00  0.00    +0.000 A 
ATOM     18 CL   UNL     1       3.369  -8.661   0.142  0.00  0.00    +0.000 Cl
ENDBRANCH  11  12
ENDBRANCH   4  10
TORSDOF 3
