MODEL 1
REMARK VINA RESULT:      -5.0      0.000      0.000
REMARK  Name = *****
REMARK  4 active torsions:
REMARK  status: ('A' for Active; 'I' for Inactive)
REMARK    1  A    between atoms: C_1  and  C_2
REMARK    2  A    between atoms: C_2  and  C_4
REMARK    3  A    between atoms: C_7  and  C_10
REMARK    4  A    between atoms: C_11  and  C_12
REMARK                            x       y       z     vdW  Elec       q    Type
REMARK                         _______ _______ _______ _____ _____    ______ ____
ROOT
ATOM      1  C   UNL     1     105.825 122.873  80.933  0.00  0.00    +0.000 A 
ATOM      2  C   UNL     1     105.527 123.758  79.892  0.00  0.00    +0.000 A 
ATOM      3  C   UNL     1     104.535 124.733  80.060  0.00  0.00    +0.000 A 
ATOM      4  C   UNL     1     103.821 124.832  81.260  0.00  0.00    +0.000 A 
ATOM      5  C   UNL     1     104.136 123.955  82.305  0.00  0.00    +0.000 A 
ATOM      6  C   UNL     1     105.126 122.980  82.141  0.00  0.00    +0.000 A 
ENDROOT
BRANCH   1   8
ATOM      7  C   UNL     1     106.807 120.612  81.711  0.00  0.00    +0.000 C 
ATOM      8  C   UNL     1     106.873 121.815  80.808  0.00  0.00    +0.000 C 
ATOM      9  O   UNL     1     107.770 121.937  79.976  0.00  0.00    +0.000 OA
ENDBRANCH   1   8
BRANCH   4  10
ATOM     10  C   UNL     1     102.798 125.863  81.482  0.00  0.00    +0.000 C 
ATOM     11  C   UNL     1     102.066 125.958  82.604  0.00  0.00    +0.000 C 
BRANCH  11  12
ATOM     12  C   UNL     1     101.056 127.001  82.836  0.00  0.00    +0.000 A 
ATOM     13  C   UNL     1      99.700 126.806  82.551  0.00  0.00    +0.000 A 
ATOM     14  C   UNL     1      98.780 127.815  82.820  0.00  0.00    +0.000 A 
ATOM     15  C   UNL     1      99.179 129.022  83.382  0.00  0.00    +0.000 A 
ATOM     16  C   UNL     1     100.524 129.222  83.685  0.00  0.00    +0.000 A 
ATOM     17  C   UNL     1     101.456 128.213  83.419  0.00  0.00    +0.000 A 
ATOM     18  F   UNL     1      97.485 127.617  82.539  0.00  0.00    +0.000 F 
ENDBRANCH  11  12
ENDBRANCH   4  10
TORSDOF 3
ENDMDL
