REMARK  Name = *****
REMARK  5 active torsions:
REMARK  status: ('A' for Active; 'I' for Inactive)
REMARK    1  A    between atoms: C_1  and  C_2
REMARK    2  A    between atoms: C_4  and  C_19
REMARK    3  A    between atoms: C_5  and  N_8
REMARK    4  A    between atoms: C_9  and  C_11
REMARK    5  A    between atoms: C_13  and  C_18
REMARK                            x       y       z     vdW  Elec       q    Type
REMARK                         _______ _______ _______ _____ _____    ______ ____
ROOT
ATOM      1  N   UNL     1      -2.220  -2.139  -0.458  0.00  0.00    +0.000 N 
ATOM      2  C   UNL     1      -2.498  -3.275   0.280  0.00  0.00    +0.000 C 
ATOM      3  O   UNL     1      -1.771  -3.830   1.094  0.00  0.00    +0.000 OA
ATOM      4  H   UNL     1      -2.897  -1.878  -1.124  0.00  0.00    +0.000 HD
ENDROOT
BRANCH   1   9
ATOM      5  C   UNL     1       2.353   1.325  -0.149  0.00  0.00    +0.000 C 
ATOM      6  C   UNL     1       1.177   0.399  -0.242  0.00  0.00    +0.000 A 
ATOM      7  C   UNL     1       0.188   0.599  -1.210  0.00  0.00    +0.000 A 
ATOM      8  C   UNL     1      -0.939  -0.242  -1.290  0.00  0.00    +0.000 A 
ATOM      9  C   UNL     1      -1.078  -1.306  -0.372  0.00  0.00    +0.000 A 
ATOM     10  C   UNL     1      -0.093  -1.486   0.605  0.00  0.00    +0.000 A 
ATOM     11  C   UNL     1       1.020  -0.641   0.672  0.00  0.00    +0.000 A 
ATOM     12  C   UNL     1      -1.954   0.033  -2.367  0.00  0.00    +0.000 C 
ENDBRANCH   1   9
BRANCH   2  13
ATOM     13  C   UNL     1      -3.824  -3.893  -0.008  0.00  0.00    +0.000 A 
ATOM     14  C   UNL     1      -3.929  -5.291   0.003  0.00  0.00    +0.000 A 
ATOM     15  C   UNL     1      -5.155  -5.925  -0.260  0.00  0.00    +0.000 A 
ATOM     16  C   UNL     1      -6.281  -5.128  -0.521  0.00  0.00    +0.000 A 
ATOM     17  C   UNL     1      -6.183  -3.732  -0.512  0.00  0.00    +0.000 A 
ATOM     18  C   UNL     1      -4.959  -3.112  -0.252  0.00  0.00    +0.000 A 
ATOM     19 CL   UNL     1      -7.826  -5.826  -0.851  0.00  0.00    +0.000 Cl
ATOM     20  C   UNL     1      -5.228  -7.426  -0.246  0.00  0.00    +0.000 C 
ENDBRANCH   2  13
TORSDOF 2
