MODEL 1
REMARK VINA RESULT:      -4.8      0.000      0.000
REMARK  Name = *****
REMARK  1 active torsions:
REMARK  status: ('A' for Active; 'I' for Inactive)
REMARK    1  A    between atoms: N_3  and  C_11
REMARK                            x       y       z     vdW  Elec       q    Type
REMARK                         _______ _______ _______ _____ _____    ______ ____
ROOT
ATOM      1  C   UNL     1      87.288  70.952  85.272  0.00  0.00    +0.000 C 
ATOM      2  C   UNL     1      88.694  70.762  85.848  0.00  0.00    +0.000 C 
ATOM      3  N   UNL     1      88.650  69.881  87.017  0.00  0.00    +0.000 N 
ATOM      4  S   UNL     1      87.940  70.553  88.384  0.00  0.00    +0.000 S 
ATOM      5  C   UNL     1      86.476  71.307  87.670  0.00  0.00    +0.000 A 
ATOM      6  C   UNL     1      85.497  71.777  88.556  0.00  0.00    +0.000 A 
ATOM      7  C   UNL     1      84.334  72.383  88.078  0.00  0.00    +0.000 A 
ATOM      8  C   UNL     1      84.138  72.523  86.708  0.00  0.00    +0.000 A 
ATOM      9  C   UNL     1      85.105  72.062  85.815  0.00  0.00    +0.000 A 
ATOM     10  C   UNL     1      86.287  71.462  86.284  0.00  0.00    +0.000 A 
ENDROOT
BRANCH   3  11
ATOM     11  C   UNL     1      88.830  68.486  86.892  0.00  0.00    +0.000 A 
ATOM     12  C   UNL     1      87.864  67.575  87.367  0.00  0.00    +0.000 A 
ATOM     13  C   UNL     1      88.026  66.188  87.262  0.00  0.00    +0.000 A 
ATOM     14  C   UNL     1      89.171  65.664  86.678  0.00  0.00    +0.000 A 
ATOM     15  C   UNL     1      90.149  66.528  86.204  0.00  0.00    +0.000 A 
ATOM     16  C   UNL     1      89.979  67.916  86.314  0.00  0.00    +0.000 A 
ENDBRANCH   3  11
TORSDOF 1
ENDMDL
