MODEL 1
REMARK VINA RESULT:      -3.9      0.000      0.000
REMARK  Name = *****
REMARK  5 active torsions:
REMARK  status: ('A' for Active; 'I' for Inactive)
REMARK    1  A    between atoms: C_1  and  C_2
REMARK    2  A    between atoms: C_5  and  O_8
REMARK    3  A    between atoms: O_8  and  C_9
REMARK    4  A    between atoms: C_9  and  C_11
REMARK    5  A    between atoms: C_11  and  C_12
REMARK                            x       y       z     vdW  Elec       q    Type
REMARK                         _______ _______ _______ _____ _____    ______ ____
ROOT
ATOM      1  C   UNL     1      90.173  69.455  83.968  0.00  0.00    +0.000 C 
ATOM      2  O   UNL     1      90.216  69.347  82.748  0.00  0.00    +0.000 OA
ENDROOT
BRANCH   1   3
ATOM      3  O   UNL     1      90.133  68.416  84.850  0.00  0.00    +0.000 OA
BRANCH   3   8
ATOM      4  C   UNL     1      87.319  66.646  88.120  0.00  0.00    +0.000 C 
ATOM      5  C   UNL     1      87.857  66.402  86.711  0.00  0.00    +0.000 C 
ATOM      6  C   UNL     1      87.425  67.529  85.764  0.00  0.00    +0.000 C 
ATOM      7  C   UNL     1      88.003  67.339  84.360  0.00  0.00    +0.000 C 
ATOM      8  C   UNL     1      89.528  67.197  84.377  0.00  0.00    +0.000 C 
ATOM      9  C   UNL     1      89.956  66.074  85.326  0.00  0.00    +0.000 C 
ATOM     10  C   UNL     1      89.384  66.256  86.734  0.00  0.00    +0.000 C 
ENDBRANCH   3   8
ENDBRANCH   1   3
BRANCH   1  11
ATOM     11  C   UNL     1      90.140  70.771  84.704  0.00  0.00    +0.000 C 
BRANCH  11  12
ATOM     12  C   UNL     1      89.106  70.792  85.801  0.00  0.00    +0.000 A 
ATOM     13  C   UNL     1      89.452  70.440  87.113  0.00  0.00    +0.000 A 
ATOM     14  C   UNL     1      88.485  70.431  88.119  0.00  0.00    +0.000 A 
ATOM     15  C   UNL     1      87.166  70.769  87.824  0.00  0.00    +0.000 A 
ATOM     16  C   UNL     1      86.811  71.112  86.521  0.00  0.00    +0.000 A 
ATOM     17  C   UNL     1      87.774  71.121  85.513  0.00  0.00    +0.000 A 
ENDBRANCH  11  12
ENDBRANCH   1  11
TORSDOF 4
ENDMDL
