MODEL 1
REMARK VINA RESULT:      -4.3      0.000      0.000
REMARK  Name = *****
REMARK  4 active torsions:
REMARK  status: ('A' for Active; 'I' for Inactive)
REMARK    1  A    between atoms: C_4  and  C_7
REMARK    2  A    between atoms: C_7  and  O_9
REMARK    3  A    between atoms: O_9  and  C_10
REMARK    4  A    between atoms: C_10  and  C_11
REMARK                            x       y       z     vdW  Elec       q    Type
REMARK                         _______ _______ _______ _____ _____    ______ ____
ROOT
ATOM      1  O   UNL     1      87.719  62.697  87.142  0.00  0.00    +0.000 OA
ENDROOT
BRANCH   1   2
ATOM      2  C   UNL     1      86.782  62.714  88.120  0.00  0.00    +0.000 C 
ATOM      3  O   UNL     1      85.623  62.344  88.004  0.00  0.00    +0.000 OA
BRANCH   2   7
ATOM      4  C   UNL     1      88.323  64.303  91.791  0.00  0.00    +0.000 A 
ATOM      5  C   UNL     1      89.211  63.950  90.775  0.00  0.00    +0.000 A 
ATOM      6  C   UNL     1      88.729  63.431  89.572  0.00  0.00    +0.000 A 
ATOM      7  C   UNL     1      87.351  63.263  89.379  0.00  0.00    +0.000 A 
ATOM      8  C   UNL     1      86.465  63.619  90.406  0.00  0.00    +0.000 A 
ATOM      9  C   UNL     1      86.951  64.138  91.608  0.00  0.00    +0.000 A 
ENDBRANCH   2   7
ENDBRANCH   1   2
BRANCH   1  10
ATOM     10  C   UNL     1      87.464  63.624  86.083  0.00  0.00    +0.000 C 
BRANCH  10  11
ATOM     11  C   UNL     1      88.717  64.438  85.875  0.00  0.00    +0.000 A 
ATOM     12  C   UNL     1      89.761  63.974  85.052  0.00  0.00    +0.000 A 
ATOM     13  C   UNL     1      90.931  64.723  84.873  0.00  0.00    +0.000 A 
ATOM     14  C   UNL     1      91.089  65.944  85.521  0.00  0.00    +0.000 A 
ATOM     15  C   UNL     1      90.080  66.410  86.359  0.00  0.00    +0.000 A 
ATOM     16  C   UNL     1      88.910  65.663  86.540  0.00  0.00    +0.000 A 
ATOM     17 CL   UNL     1      87.733  66.314  87.629  0.00  0.00    +0.000 Cl
ATOM     18 CL   UNL     1      89.678  62.454  84.229  0.00  0.00    +0.000 Cl
ENDBRANCH  10  11
ENDBRANCH   1  10
TORSDOF 4
ENDMDL
