REMARK  Name = *****
REMARK  4 active torsions:
REMARK  status: ('A' for Active; 'I' for Inactive)
REMARK    1  A    between atoms: C_7  and  C_9
REMARK    2  A    between atoms: C_9  and  O_11
REMARK    3  A    between atoms: O_11  and  C_12
REMARK    4  A    between atoms: C_12  and  C_13
REMARK                            x       y       z     vdW  Elec       q    Type
REMARK                         _______ _______ _______ _____ _____    ______ ____
ROOT
ATOM      1  C   UNL     1       0.556  -0.692   2.839  0.00  0.00    +0.000 C 
ATOM      2  O   UNL     1       1.099   0.262   3.380  0.00  0.00    +0.000 OA
ENDROOT
BRANCH   1   9
ATOM      3  C   UNL     1      -1.082   1.025   0.888  0.00  0.00    +0.000 C 
ATOM      4  C   UNL     1      -0.047   1.768   0.015  0.00  0.00    +0.000 C 
ATOM      5  C   UNL     1       0.832   0.786  -0.778  0.00  0.00    +0.000 C 
ATOM      6  C   UNL     1      -0.057  -0.229  -1.463  0.00  0.00    +0.000 C 
ATOM      7  C   UNL     1      -0.956  -0.866  -0.692  0.00  0.00    +0.000 C 
ATOM      8  C   UNL     1      -0.906  -0.510   0.785  0.00  0.00    +0.000 C 
ATOM      9  C   UNL     1       0.471  -0.955   1.342  0.00  0.00    +0.000 C 
ATOM     10  S   UNL     1       1.867  -0.134   0.433  0.00  0.00    +0.000 S 
ENDBRANCH   1   9
BRANCH   1  11
ATOM     11  O   UNL     1      -0.125  -1.676   3.500  0.00  0.00    +0.000 OA
BRANCH  11  12
ATOM     12  C   UNL     1      -0.219  -1.516   4.920  0.00  0.00    +0.000 C 
BRANCH  12  13
ATOM     13  C   UNL     1      -1.500  -0.801   5.260  0.00  0.00    +0.000 A 
ATOM     14  C   UNL     1      -2.735  -1.453   5.129  0.00  0.00    +0.000 A 
ATOM     15  C   UNL     1      -3.923  -0.786   5.432  0.00  0.00    +0.000 A 
ATOM     16  C   UNL     1      -3.889   0.538   5.863  0.00  0.00    +0.000 A 
ATOM     17  C   UNL     1      -2.668   1.200   5.986  0.00  0.00    +0.000 A 
ATOM     18  C   UNL     1      -1.479   0.535   5.682  0.00  0.00    +0.000 A 
ENDBRANCH  12  13
ENDBRANCH  11  12
ENDBRANCH   1  11
TORSDOF 4
