MODEL 1
REMARK VINA RESULT:      -4.7      0.000      0.000
REMARK  Name = *****
REMARK  4 active torsions:
REMARK  status: ('A' for Active; 'I' for Inactive)
REMARK    1  A    between atoms: C_4  and  O_7
REMARK    2  A    between atoms: O_7  and  C_8
REMARK    3  A    between atoms: C_8  and  C_9
REMARK    4  A    between atoms: C_12  and  C_15
REMARK                            x       y       z     vdW  Elec       q    Type
REMARK                         _______ _______ _______ _____ _____    ______ ____
ROOT
ATOM      1  C   UNL     1     103.692 126.101  81.550  0.00  0.00    +0.000 A 
ATOM      2  C   UNL     1     104.114 125.727  80.267  0.00  0.00    +0.000 A 
ATOM      3  C   UNL     1     104.628 124.446  80.029  0.00  0.00    +0.000 A 
ATOM      4  C   UNL     1     104.719 123.517  81.073  0.00  0.00    +0.000 A 
ATOM      5  C   UNL     1     104.284 123.888  82.355  0.00  0.00    +0.000 A 
ATOM      6  C   UNL     1     103.771 125.166  82.590  0.00  0.00    +0.000 A 
ENDROOT
BRANCH   4   7
ATOM      7  C   UNL     1     105.262 122.134  80.864  0.00  0.00    +0.000 C 
ATOM      8  O   UNL     1     106.413 122.037  80.440  0.00  0.00    +0.000 OA
ATOM      9 CL   UNL     1     104.262 120.740  81.218  0.00  0.00    +0.000 Cl
ENDBRANCH   4   7
BRANCH   1  10
ATOM     10  C   UNL     1     103.118 127.477  81.793  0.00  0.00    +0.000 C 
BRANCH  10  11
ATOM     11  O   UNL     1     102.454 127.457  83.054  0.00  0.00    +0.000 OA
BRANCH  11  15
ATOM     12  C   UNL     1      98.329 128.012  82.922  0.00  0.00    +0.000 A 
ATOM     13  C   UNL     1      99.112 129.015  83.492  0.00  0.00    +0.000 A 
ATOM     14  C   UNL     1     100.502 128.873  83.559  0.00  0.00    +0.000 A 
ATOM     15  C   UNL     1     101.114 127.724  83.054  0.00  0.00    +0.000 A 
ATOM     16  C   UNL     1     100.322 126.723  82.485  0.00  0.00    +0.000 A 
ATOM     17  C   UNL     1      98.935 126.864  82.418  0.00  0.00    +0.000 A 
ENDBRANCH  11  15
ENDBRANCH  10  11
ENDBRANCH   1  10
TORSDOF 4
ENDMDL
