REMARK  Name = *****
REMARK  4 active torsions:
REMARK  status: ('A' for Active; 'I' for Inactive)
REMARK    1  A    between atoms: C_1  and  N_2
REMARK    2  A    between atoms: N_2  and  C_3
REMARK    3  A    between atoms: C_3  and  C_4
REMARK    4  A    between atoms: C_10  and  C_12
REMARK                            x       y       z     vdW  Elec       q    Type
REMARK                         _______ _______ _______ _____ _____    ______ ____
ROOT
ATOM      1  C   UNL     1       1.219  -0.050  -0.364  0.00  0.00    +0.000 C 
ATOM      2  N   UNL     1       2.650  -0.070  -0.110  0.00  0.00    +0.000 N 
ATOM      3  C   UNL     1       3.330  -1.274  -0.287  0.00  0.00    +0.000 C 
ATOM      4  O   UNL     1       2.796  -2.327  -0.626  0.00  0.00    +0.000 OA
ENDROOT
BRANCH   3   5
ATOM      5  C   UNL     1       4.780  -1.316  -0.031  0.00  0.00    +0.000 A 
ATOM      6  C   UNL     1       5.702  -1.256  -1.083  0.00  0.00    +0.000 A 
ATOM      7  C   UNL     1       7.070  -1.300  -0.805  0.00  0.00    +0.000 A 
ATOM      8  C   UNL     1       7.504  -1.427   0.515  0.00  0.00    +0.000 A 
ATOM      9  C   UNL     1       6.587  -1.523   1.562  0.00  0.00    +0.000 A 
ATOM     10  C   UNL     1       5.220  -1.476   1.290  0.00  0.00    +0.000 A 
ATOM     11 CL   UNL     1       9.190  -1.472   0.856  0.00  0.00    +0.000 Cl
ATOM     12 CL   UNL     1       5.217  -1.121  -2.735  0.00  0.00    +0.000 Cl
ENDBRANCH   3   5
BRANCH   2  13
ATOM     13  C   UNL     1       3.225   1.135   0.494  0.00  0.00    +0.000 C 
BRANCH  13  14
ATOM     14  C   UNL     1       4.226   1.852  -0.379  0.00  0.00    +0.000 A 
ATOM     15  C   UNL     1       3.942   2.149  -1.719  0.00  0.00    +0.000 A 
ATOM     16  C   UNL     1       4.876   2.819  -2.511  0.00  0.00    +0.000 A 
ATOM     17  C   UNL     1       6.098   3.213  -1.970  0.00  0.00    +0.000 A 
ATOM     18  C   UNL     1       6.386   2.941  -0.635  0.00  0.00    +0.000 A 
ATOM     19  C   UNL     1       5.454   2.271   0.159  0.00  0.00    +0.000 A 
ENDBRANCH  13  14
ENDBRANCH   2  13
TORSDOF 3
