MODEL 1
REMARK VINA RESULT:      -4.6      0.000      0.000
REMARK  Name = *****
REMARK  6 active torsions:
REMARK  status: ('A' for Active; 'I' for Inactive)
REMARK    1  A    between atoms: C_1  and  O_2
REMARK    2  A    between atoms: O_2  and  N_3
REMARK    3  A    between atoms: N_3  and  C_4
REMARK    4  A    between atoms: N_3  and  C_13
REMARK    5  A    between atoms: C_4  and  C_5
REMARK    6  A    between atoms: C_8  and  C_11
REMARK                            x       y       z     vdW  Elec       q    Type
REMARK                         _______ _______ _______ _____ _____    ______ ____
ROOT
ATOM      1  N   UNL     1     102.559 127.697  83.286  0.00  0.00    +0.000 N 
ENDROOT
BRANCH   1   2
ATOM      2  C   UNL     1     101.148 127.783  83.113  0.00  0.00    +0.000 A 
ATOM      3  C   UNL     1     100.431 128.910  83.544  0.00  0.00    +0.000 A 
ATOM      4  C   UNL     1      99.045 128.992  83.384  0.00  0.00    +0.000 A 
ATOM      5  C   UNL     1      98.348 127.937  82.801  0.00  0.00    +0.000 A 
ATOM      6  C   UNL     1      99.037 126.800  82.387  0.00  0.00    +0.000 A 
ATOM      7  C   UNL     1     100.424 126.723  82.547  0.00  0.00    +0.000 A 
ENDBRANCH   1   2
BRANCH   1   9
ATOM      8  C   UNL     1     104.096 129.376  83.346  0.00  0.00    +0.000 C 
ATOM      9  O   UNL     1     103.164 128.645  84.141  0.00  0.00    +0.000 OA
ENDBRANCH   1   9
BRANCH   1  10
ATOM     10  C   UNL     1     103.294 127.653  82.000  0.00  0.00    +0.000 C 
BRANCH  10  11
ATOM     11  C   UNL     1     103.727 126.252  81.617  0.00  0.00    +0.000 A 
ATOM     12  C   UNL     1     104.096 125.961  80.297  0.00  0.00    +0.000 A 
ATOM     13  C   UNL     1     104.514 124.675  79.941  0.00  0.00    +0.000 A 
ATOM     14  C   UNL     1     104.593 123.657  80.898  0.00  0.00    +0.000 A 
ATOM     15  C   UNL     1     104.221 123.947  82.216  0.00  0.00    +0.000 A 
ATOM     16  C   UNL     1     103.801 125.233  82.574  0.00  0.00    +0.000 A 
BRANCH  14  17
ATOM     17  C   UNL     1     104.994 122.284  80.560  0.00  0.00    +0.000 C 
ATOM     18  C   UNL     1     104.564 121.186  81.195  0.00  0.00    +0.000 C 
ENDBRANCH  14  17
ENDBRANCH  10  11
ENDBRANCH   1  10
TORSDOF 5
ENDMDL
