MODEL 1
REMARK VINA RESULT:      -4.7      0.000      0.000
REMARK  Name = *****
REMARK  3 active torsions:
REMARK  status: ('A' for Active; 'I' for Inactive)
REMARK    1  A    between atoms: C_4  and  C_7
REMARK    2  A    between atoms: C_7  and  C_8
REMARK    3  A    between atoms: C_9  and  C_10
REMARK                            x       y       z     vdW  Elec       q    Type
REMARK                         _______ _______ _______ _____ _____    ______ ____
ROOT
ATOM      1  C   UNL     1     102.972 126.314  81.393  0.00  0.00    +0.000 C 
ATOM      2  C   UNL     1     101.797 126.005  81.963  0.00  0.00    +0.000 C 
ENDROOT
BRANCH   2   3
ATOM      3  C   UNL     1     100.887 127.000  82.548  0.00  0.00    +0.000 A 
ATOM      4  C   UNL     1     101.428 128.102  83.222  0.00  0.00    +0.000 A 
ATOM      5  C   UNL     1     100.594 129.082  83.766  0.00  0.00    +0.000 A 
ATOM      6  C   UNL     1      99.212 128.976  83.632  0.00  0.00    +0.000 A 
ATOM      7  C   UNL     1      98.662 127.892  82.950  0.00  0.00    +0.000 A 
ATOM      8  C   UNL     1      99.495 126.911  82.406  0.00  0.00    +0.000 A 
ENDBRANCH   2   3
BRANCH   1   9
ATOM      9  C   UNL     1     103.852 125.319  80.825  0.00  0.00    +0.000 C 
BRANCH   9  13
ATOM     10  C   UNL     1     104.991 121.546  82.485  0.00  0.00    +0.000 A 
ATOM     11  C   UNL     1     105.037 121.755  81.108  0.00  0.00    +0.000 A 
ATOM     12  C   UNL     1     104.658 122.991  80.576  0.00  0.00    +0.000 A 
ATOM     13  C   UNL     1     104.218 124.024  81.414  0.00  0.00    +0.000 A 
ATOM     14  C   UNL     1     104.190 123.806  82.797  0.00  0.00    +0.000 A 
ATOM     15  C   UNL     1     104.571 122.570  83.329  0.00  0.00    +0.000 A 
ENDBRANCH   9  13
ENDBRANCH   1   9
TORSDOF 3
ENDMDL
