MODEL 1
REMARK VINA RESULT:      -4.1      0.000      0.000
REMARK  Name = *****
REMARK  2 active torsions:
REMARK  status: ('A' for Active; 'I' for Inactive)
REMARK    1  A    between atoms: C_5  and  C_6
REMARK    2  A    between atoms: C_6  and  C_8
REMARK                            x       y       z     vdW  Elec       q    Type
REMARK                         _______ _______ _______ _____ _____    ______ ____
ROOT
ATOM      1  C   UNL     1      88.088  70.367  87.958  0.00  0.00    +0.000 C 
ATOM      2  O   UNL     1      88.488  70.389  89.117  0.00  0.00    +0.000 OA
ENDROOT
BRANCH   1   7
ATOM      3  C   UNL     1      89.305  65.445  86.389  0.00  0.00    +0.000 C 
ATOM      4  C   UNL     1      88.409  66.008  87.488  0.00  0.00    +0.000 C 
ATOM      5  S   UNL     1      87.442  67.440  86.938  0.00  0.00    +0.000 S 
ATOM      6  C   UNL     1      88.732  68.486  86.433  0.00  0.00    +0.000 C 
ATOM      7  C   UNL     1      88.888  69.744  86.875  0.00  0.00    +0.000 C 
ATOM      8  S   UNL     1      89.798  67.916  85.174  0.00  0.00    +0.000 S 
ATOM      9  C   UNL     1      90.415  66.402  85.967  0.00  0.00    +0.000 C 
ENDBRANCH   1   7
BRANCH   1  10
ATOM     10  C   UNL     1      86.842  71.083  87.565  0.00  0.00    +0.000 A 
ATOM     11  C   UNL     1      86.518  71.347  86.228  0.00  0.00    +0.000 A 
ATOM     12  C   UNL     1      85.336  72.024  85.914  0.00  0.00    +0.000 A 
ATOM     13  C   UNL     1      84.473  72.435  86.929  0.00  0.00    +0.000 A 
ATOM     14  C   UNL     1      84.783  72.164  88.260  0.00  0.00    +0.000 A 
ATOM     15  C   UNL     1      85.961  71.486  88.578  0.00  0.00    +0.000 A 
ENDBRANCH   1  10
TORSDOF 2
ENDMDL
