MODEL 1
REMARK VINA RESULT:      -4.4      0.000      0.000
REMARK  Name = *****
REMARK  5 active torsions:
REMARK  status: ('A' for Active; 'I' for Inactive)
REMARK    1  A    between atoms: C_1  and  C_2
REMARK    2  A    between atoms: C_2  and  C_3
REMARK    3  A    between atoms: C_3  and  C_4
REMARK    4  A    between atoms: C_3  and  C_10
REMARK    5  A    between atoms: C_4  and  C_5
REMARK                            x       y       z     vdW  Elec       q    Type
REMARK                         _______ _______ _______ _____ _____    ______ ____
ROOT
ATOM      1  C   UNL     1      87.275  70.884  88.207  0.00  0.00    +0.000 C 
ENDROOT
BRANCH   1   2
ATOM      2  C   UNL     1      86.240  71.465  87.244  0.00  0.00    +0.000 A 
ATOM      3  C   UNL     1      86.411  71.483  85.853  0.00  0.00    +0.000 A 
ATOM      4  C   UNL     1      85.433  72.029  85.016  0.00  0.00    +0.000 A 
ATOM      5  C   UNL     1      84.267  72.564  85.556  0.00  0.00    +0.000 A 
ATOM      6  C   UNL     1      84.077  72.553  86.934  0.00  0.00    +0.000 A 
ATOM      7  C   UNL     1      85.053  72.008  87.771  0.00  0.00    +0.000 A 
ENDBRANCH   1   2
BRANCH   1   9
ATOM      8  C   UNL     1      88.661  71.445  90.295  0.00  0.00    +0.000 C 
ATOM      9  C   UNL     1      87.316  71.578  89.591  0.00  0.00    +0.000 C 
ENDBRANCH   1   9
BRANCH   1  10
ATOM     10  C   UNL     1      87.189  69.338  88.292  0.00  0.00    +0.000 C 
BRANCH  10  11
ATOM     11  C   UNL     1      88.131  68.554  87.433  0.00  0.00    +0.000 C 
ATOM     12  C   UNL     1      88.089  67.235  87.171  0.00  0.00    +0.000 C 
ATOM     13  C   UNL     1      89.233  66.864  86.378  0.00  0.00    +0.000 C 
ATOM     14  C   UNL     1      89.995  67.945  86.164  0.00  0.00    +0.000 C 
ATOM     15  C   UNL     1      89.370  69.148  86.814  0.00  0.00    +0.000 C 
ENDBRANCH  10  11
ENDBRANCH   1  10
TORSDOF 4
ENDMDL
