REMARK  Name = *****
REMARK  4 active torsions:
REMARK  status: ('A' for Active; 'I' for Inactive)
REMARK    1  A    between atoms: C_1  and  O_2
REMARK    2  A    between atoms: O_2  and  C_3
REMARK    3  A    between atoms: C_3  and  C_11
REMARK    4  A    between atoms: C_12  and  C_13
REMARK                            x       y       z     vdW  Elec       q    Type
REMARK                         _______ _______ _______ _____ _____    ______ ____
ROOT
ATOM      1  C   UNL     1       3.091  -0.528   1.708  0.00  0.00    +0.000 C 
ATOM      2  C   UNL     1       4.550  -0.991   1.605  0.00  0.00    +0.000 C 
ATOM      3  C   UNL     1       3.503  -1.643   0.746  0.00  0.00    +0.000 C 
ATOM      4  C   UNL     1       3.452  -1.612  -0.745  0.00  0.00    +0.000 C 
ATOM      5  C   UNL     1       3.807  -0.347  -1.506  0.00  0.00    +0.000 C 
ATOM      6  C   UNL     1       5.255   0.094  -1.365  0.00  0.00    +0.000 C 
ATOM      7  C   UNL     1       5.556   0.775  -0.039  0.00  0.00    +0.000 C 
ATOM      8  C   UNL     1       5.708  -0.176   1.134  0.00  0.00    +0.000 C 
ENDROOT
BRANCH   1  10
ATOM      9  C   UNL     1       1.433   0.997   0.867  0.00  0.00    +0.000 C 
ATOM     10  O   UNL     1       2.810   0.767   1.139  0.00  0.00    +0.000 OA
ENDBRANCH   1  10
BRANCH   1  11
ATOM     11  C   UNL     1       2.430  -0.930   2.975  0.00  0.00    +0.000 C 
ATOM     12  C   UNL     1       1.303  -1.655   3.091  0.00  0.00    +0.000 C 
BRANCH  12  13
ATOM     13  C   UNL     1       0.665  -2.019   4.398  0.00  0.00    +0.000 C 
ATOM     14  C   UNL     1       0.463  -3.507   4.531  0.00  0.00    +0.000 C 
ATOM     15  C   UNL     1      -0.844  -3.783   4.673  0.00  0.00    +0.000 C 
ATOM     16  C   UNL     1      -1.596  -2.553   4.646  0.00  0.00    +0.000 C 
ATOM     17  C   UNL     1      -0.754  -1.520   4.488  0.00  0.00    +0.000 C 
ENDBRANCH  12  13
ENDBRANCH   1  11
TORSDOF 3
