MODEL 1
REMARK VINA RESULT:      -4.2      0.000      0.000
REMARK  Name = *****
REMARK  4 active torsions:
REMARK  status: ('A' for Active; 'I' for Inactive)
REMARK    1  A    between atoms: C_1  and  C_2
REMARK    2  A    between atoms: C_2  and  C_8
REMARK    3  A    between atoms: C_8  and  C_9
REMARK    4  A    between atoms: C_9  and  C_10
REMARK                            x       y       z     vdW  Elec       q    Type
REMARK                         _______ _______ _______ _____ _____    ______ ____
ROOT
ATOM      1  C   UNL     1     103.287 126.375  82.464  0.00  0.00    +0.000 C 
ENDROOT
BRANCH   1   3
ATOM      2  C   UNL     1     103.624 127.363  80.196  0.00  0.00    +0.000 C 
ATOM      3  C   UNL     1     104.232 126.397  81.228  0.00  0.00    +0.000 C 
ATOM      4  S   UNL     1     105.889 126.988  81.761  0.00  0.00    +0.000 S 
ATOM      5  C   UNL     1     106.837 126.851  80.221  0.00  0.00    +0.000 C 
ATOM      6  C   UNL     1     106.878 125.437  79.667  0.00  0.00    +0.000 C 
ATOM      7  C   UNL     1     105.530 124.926  79.187  0.00  0.00    +0.000 C 
ATOM      8  S   UNL     1     104.333 124.698  80.531  0.00  0.00    +0.000 S 
ENDBRANCH   1   3
BRANCH   1   9
ATOM      9  C   UNL     1     101.834 125.926  82.233  0.00  0.00    +0.000 C 
BRANCH   9  10
ATOM     10  C   UNL     1     100.861 127.012  82.635  0.00  0.00    +0.000 A 
ATOM     11  C   UNL     1     101.316 128.163  83.293  0.00  0.00    +0.000 A 
ATOM     12  C   UNL     1     100.415 129.157  83.681  0.00  0.00    +0.000 A 
ATOM     13  C   UNL     1      99.055 129.007  83.418  0.00  0.00    +0.000 A 
ATOM     14  C   UNL     1      98.593 127.863  82.770  0.00  0.00    +0.000 A 
ATOM     15  C   UNL     1      99.491 126.868  82.382  0.00  0.00    +0.000 A 
ENDBRANCH   9  10
ENDBRANCH   1   9
TORSDOF 3
ENDMDL
