REMARK  Name = *****
REMARK  2 active torsions:
REMARK  status: ('A' for Active; 'I' for Inactive)
REMARK    1  A    between atoms: C_8  and  C_9
REMARK    2  A    between atoms: C_10  and  C_11
REMARK                            x       y       z     vdW  Elec       q    Type
REMARK                         _______ _______ _______ _____ _____    ______ ____
ROOT
ATOM      1  C   UNL     1      -0.590  -0.519  -0.544  0.00  0.00    +0.000 C 
ATOM      2  C   UNL     1      -1.341   0.578  -0.359  0.00  0.00    +0.000 C 
ENDROOT
BRANCH   1  10
ATOM      3  C   UNL     1       3.713  -0.685  -0.409  0.00  0.00    +0.000 C 
ATOM      4  C   UNL     1       3.132   0.103   0.782  0.00  0.00    +0.000 C 
ATOM      5  C   UNL     1       3.738  -0.762   1.880  0.00  0.00    +0.000 C 
ATOM      6  C   UNL     1       3.700  -2.035   1.441  0.00  0.00    +0.000 C 
ATOM      7  C   UNL     1       3.070  -2.007   0.054  0.00  0.00    +0.000 C 
ATOM      8  C   UNL     1       1.586  -1.635   0.201  0.00  0.00    +0.000 C 
ATOM      9  C   UNL     1       1.629  -0.203   0.695  0.00  0.00    +0.000 C 
ATOM     10  C   UNL     1       0.879  -0.543  -0.577  0.00  0.00    +0.000 C 
ENDBRANCH   1  10
BRANCH   2  11
ATOM     11  C   UNL     1      -2.810   0.551  -0.320  0.00  0.00    +0.000 A 
ATOM     12  C   UNL     1      -3.512   0.034  -1.422  0.00  0.00    +0.000 A 
ATOM     13  C   UNL     1      -4.909   0.012  -1.436  0.00  0.00    +0.000 A 
ATOM     14  C   UNL     1      -5.624   0.511  -0.351  0.00  0.00    +0.000 A 
ATOM     15  C   UNL     1      -4.945   1.035   0.748  0.00  0.00    +0.000 A 
ATOM     16  C   UNL     1      -3.545   1.060   0.764  0.00  0.00    +0.000 A 
ATOM     17 BR   UNL     1      -2.705   1.781   2.311  0.00  0.00    +0.000 Br
ENDBRANCH   2  11
TORSDOF 2
