MODEL 1
REMARK VINA RESULT:      -3.5      0.000      0.000
REMARK  Name = *****
REMARK  5 active torsions:
REMARK  status: ('A' for Active; 'I' for Inactive)
REMARK    1  A    between atoms: C_4  and  C_7
REMARK    2  A    between atoms: C_7  and  C_8
REMARK    3  A    between atoms: C_8  and  C_9
REMARK    4  A    between atoms: C_9  and  O_11
REMARK    5  A    between atoms: O_11  and  C_12
REMARK                            x       y       z     vdW  Elec       q    Type
REMARK                         _______ _______ _______ _____ _____    ______ ____
ROOT
ATOM      1  C   UNL     1      89.442  69.018  82.726  0.00  0.00    +0.000 C 
ATOM      2  O   UNL     1      88.617  69.360  81.890  0.00  0.00    +0.000 OA
ENDROOT
BRANCH   1   3
ATOM      3  C   UNL     1      90.303  69.983  83.504  0.00  0.00    +0.000 C 
BRANCH   3   4
ATOM      4  C   UNL     1      89.526  71.259  83.807  0.00  0.00    +0.000 C 
BRANCH   4   8
ATOM      5  C   UNL     1      87.719  70.110  87.635  0.00  0.00    +0.000 C 
ATOM      6  C   UNL     1      89.210  70.427  87.620  0.00  0.00    +0.000 C 
ATOM      7  C   UNL     1      89.781  70.401  86.203  0.00  0.00    +0.000 C 
ATOM      8  C   UNL     1      89.008  71.334  85.256  0.00  0.00    +0.000 C 
ATOM      9  C   UNL     1      87.505  71.007  85.287  0.00  0.00    +0.000 C 
ATOM     10  C   UNL     1      86.943  71.036  86.706  0.00  0.00    +0.000 C 
ENDBRANCH   4   8
ENDBRANCH   3   4
ENDBRANCH   1   3
BRANCH   1  11
ATOM     11  O   UNL     1      89.777  67.717  83.090  0.00  0.00    +0.000 OA
BRANCH  11  12
ATOM     12  C   UNL     1      89.369  67.338  84.372  0.00  0.00    +0.000 A 
ATOM     13  C   UNL     1      90.285  66.826  85.292  0.00  0.00    +0.000 A 
ATOM     14  C   UNL     1      89.829  66.401  86.540  0.00  0.00    +0.000 A 
ATOM     15  C   UNL     1      88.470  66.474  86.851  0.00  0.00    +0.000 A 
ATOM     16  C   UNL     1      87.559  66.968  85.913  0.00  0.00    +0.000 A 
ATOM     17  C   UNL     1      88.008  67.395  84.664  0.00  0.00    +0.000 A 
ENDBRANCH  11  12
ENDBRANCH   1  11
TORSDOF 5
ENDMDL
