MODEL 1
REMARK VINA RESULT:      -4.5      0.000      0.000
REMARK  Name = *****
REMARK  6 active torsions:
REMARK  status: ('A' for Active; 'I' for Inactive)
REMARK    1  A    between atoms: C_1  and  C_2
REMARK    2  A    between atoms: C_3  and  C_9
REMARK    3  A    between atoms: C_4  and  C_8
REMARK    4  A    between atoms: N_10  and  C_11
REMARK    5  A    between atoms: C_12  and  C_18
REMARK    6  A    between atoms: C_16  and  C_17
REMARK                            x       y       z     vdW  Elec       q    Type
REMARK                         _______ _______ _______ _____ _____    ______ ____
ROOT
ATOM      1  C   UNL     1      89.018  67.432  86.958  0.00  0.00    +0.000 C 
ATOM      2  N   UNL     1      87.908  66.764  86.887  0.00  0.00    +0.000 NA
ENDROOT
BRANCH   1   5
ATOM      3  C   UNL     1      89.741  66.861  84.070  0.00  0.00    +0.000 C 
ATOM      4  C   UNL     1      89.729  68.246  84.661  0.00  0.00    +0.000 A 
ATOM      5  C   UNL     1      89.394  68.514  86.008  0.00  0.00    +0.000 A 
ATOM      6  C   UNL     1      89.419  69.846  86.493  0.00  0.00    +0.000 A 
ATOM      7  C   UNL     1      89.782  70.886  85.623  0.00  0.00    +0.000 A 
ATOM      8  C   UNL     1      90.102  70.625  84.295  0.00  0.00    +0.000 A 
ATOM      9  C   UNL     1      90.072  69.319  83.818  0.00  0.00    +0.000 A 
ATOM     10  C   UNL     1      89.065  70.202  87.913  0.00  0.00    +0.000 C 
ENDBRANCH   1   5
BRANCH   2  11
ATOM     11  C   UNL     1      87.712  65.790  87.884  0.00  0.00    +0.000 A 
ATOM     12  C   UNL     1      86.873  66.063  88.984  0.00  0.00    +0.000 A 
ATOM     13  C   UNL     1      86.699  65.091  89.979  0.00  0.00    +0.000 A 
ATOM     14  C   UNL     1      87.327  63.853  89.876  0.00  0.00    +0.000 A 
ATOM     15  C   UNL     1      88.132  63.569  88.776  0.00  0.00    +0.000 A 
ATOM     16  C   UNL     1      88.326  64.527  87.769  0.00  0.00    +0.000 A 
ATOM     17  C   UNL     1      89.189  64.196  86.583  0.00  0.00    +0.000 C 
ATOM     18  C   UNL     1      86.181  67.392  89.111  0.00  0.00    +0.000 C 
ENDBRANCH   2  11
TORSDOF 2
ENDMDL
