MODEL 1
REMARK VINA RESULT:      -4.4      0.000      0.000
REMARK  Name = *****
REMARK  3 active torsions:
REMARK  status: ('A' for Active; 'I' for Inactive)
REMARK    1  A    between atoms: C_4  and  C_7
REMARK    2  A    between atoms: C_7  and  N_8
REMARK    3  A    between atoms: N_8  and  C_9
REMARK                            x       y       z     vdW  Elec       q    Type
REMARK                         _______ _______ _______ _____ _____    ______ ____
ROOT
ATOM      1  N   UNL     1     102.881 125.523  81.683  0.00  0.00    +0.000 NA
ENDROOT
BRANCH   1   2
ATOM      2  C   UNL     1     103.879 124.693  81.200  0.00  0.00    +0.000 A 
ATOM      3  C   UNL     1     104.498 125.014  79.997  0.00  0.00    +0.000 A 
ATOM      4  C   UNL     1     105.498 124.171  79.521  0.00  0.00    +0.000 A 
ATOM      5  C   UNL     1     105.867 123.029  80.236  0.00  0.00    +0.000 A 
ATOM      6  C   UNL     1     105.232 122.724  81.444  0.00  0.00    +0.000 A 
ATOM      7  C   UNL     1     104.230 123.561  81.931  0.00  0.00    +0.000 A 
ATOM      8 CL   UNL     1     106.286 124.536  78.035  0.00  0.00    +0.000 Cl
ENDBRANCH   1   2
BRANCH   1   9
ATOM      9  C   UNL     1     102.077 126.190  82.071  0.00  0.00    +0.000 C 
BRANCH   9  13
ATOM     10  C   UNL     1      99.039 128.730  83.535  0.00  0.00    +0.000 A 
ATOM     11  C   UNL     1     100.379 129.047  83.757  0.00  0.00    +0.000 A 
ATOM     12  C   UNL     1     101.384 128.207  83.274  0.00  0.00    +0.000 A 
ATOM     13  C   UNL     1     101.049 127.049  82.568  0.00  0.00    +0.000 A 
ATOM     14  C   UNL     1      99.706 126.734  82.347  0.00  0.00    +0.000 A 
ATOM     15  C   UNL     1      98.702 127.575  82.831  0.00  0.00    +0.000 A 
ENDBRANCH   9  13
ENDBRANCH   1   9
TORSDOF 3
ENDMDL
