MODEL 1
REMARK VINA RESULT:      -3.7      0.000      0.000
REMARK  Name = *****
REMARK  6 active torsions:
REMARK  status: ('A' for Active; 'I' for Inactive)
REMARK    1  A    between atoms: C_1  and  C_2
REMARK    2  A    between atoms: C_2  and  C_3
REMARK    3  A    between atoms: C_2  and  O_8
REMARK    4  A    between atoms: O_8  and  C_9
REMARK    5  A    between atoms: C_9  and  C_11
REMARK    6  A    between atoms: C_14  and  N_17
REMARK                            x       y       z     vdW  Elec       q    Type
REMARK                         _______ _______ _______ _____ _____    ______ ____
ROOT
ATOM      1  C   UNL     1      89.355  68.298  83.461  0.00  0.00    +0.000 C 
ATOM      2  O   UNL     1      89.678  67.811  82.390  0.00  0.00    +0.000 OA
ENDROOT
BRANCH   1   3
ATOM      3  C   UNL     1      89.109  67.488  84.686  0.00  0.00    +0.000 A 
ATOM      4  C   UNL     1      87.780  67.326  85.115  0.00  0.00    +0.000 A 
ATOM      5  C   UNL     1      87.494  66.573  86.255  0.00  0.00    +0.000 A 
ATOM      6  C   UNL     1      88.542  65.983  86.959  0.00  0.00    +0.000 A 
ATOM      7  C   UNL     1      89.866  66.127  86.549  0.00  0.00    +0.000 A 
ATOM      8  C   UNL     1      90.149  66.881  85.408  0.00  0.00    +0.000 A 
BRANCH   6   9
ATOM      9  N   UNL     1      88.261  65.234  88.093  0.00  0.00    +0.000 NA
ATOM     10  C   UNL     1      88.023  64.600  89.050  0.00  0.00    +0.000 C 
ENDBRANCH   6   9
ENDBRANCH   1   3
BRANCH   1  11
ATOM     11  O   UNL     1      89.153  69.612  83.720  0.00  0.00    +0.000 OA
BRANCH  11  13
ATOM     12  C   UNL     1      90.909  71.223  83.667  0.00  0.00    +0.000 C 
ATOM     13  C   UNL     1      90.126  70.266  84.563  0.00  0.00    +0.000 C 
BRANCH  13  14
ATOM     14  C   UNL     1      89.440  71.007  85.737  0.00  0.00    +0.000 C 
ATOM     15  C   UNL     1      89.568  70.291  87.062  0.00  0.00    +0.000 C 
ATOM     16  C   UNL     1      88.352  70.055  87.579  0.00  0.00    +0.000 C 
ATOM     17  C   UNL     1      87.345  70.576  86.692  0.00  0.00    +0.000 C 
ATOM     18  C   UNL     1      87.936  71.132  85.623  0.00  0.00    +0.000 C 
ENDBRANCH  13  14
ENDBRANCH  11  13
ENDBRANCH   1  11
TORSDOF 5
ENDMDL
