MODEL 1
REMARK VINA RESULT:      -4.6      0.000      0.000
REMARK  Name = *****
REMARK  4 active torsions:
REMARK  status: ('A' for Active; 'I' for Inactive)
REMARK    1  A    between atoms: C_1  and  C_2
REMARK    2  A    between atoms: C_4  and  N_8
REMARK    3  A    between atoms: N_8  and  S_9
REMARK    4  A    between atoms: S_9  and  C_11
REMARK                            x       y       z     vdW  Elec       q    Type
REMARK                         _______ _______ _______ _____ _____    ______ ____
ROOT
ATOM      1  N   UNL     1     102.722 126.945  82.896  0.00  0.00    +0.000 N 
ATOM      2  H   UNL     1     103.330 127.257  82.187  0.00  0.00    +0.000 HD
ENDROOT
BRANCH   1   6
ATOM      3  C   UNL     1      99.356 130.402  84.222  0.00  0.00    +0.000 C 
ATOM      4  C   UNL     1      99.710 129.109  83.548  0.00  0.00    +0.000 A 
ATOM      5  C   UNL     1     101.043 128.668  83.522  0.00  0.00    +0.000 A 
ATOM      6  C   UNL     1     101.404 127.452  82.923  0.00  0.00    +0.000 A 
ATOM      7  C   UNL     1     100.373 126.651  82.406  0.00  0.00    +0.000 A 
ATOM      8  C   UNL     1      99.041 127.070  82.438  0.00  0.00    +0.000 A 
ATOM      9  C   UNL     1      98.710 128.296  83.006  0.00  0.00    +0.000 A 
ENDBRANCH   1   6
BRANCH   1  10
ATOM     10  S   UNL     1     103.298 125.840  84.011  0.00  0.00    +0.000 S 
ATOM     11  O   UNL     1     102.158 125.160  84.708  0.00  0.00    +0.000 OA
BRANCH  10  12
ATOM     12  C   UNL     1     103.885 124.698  82.738  0.00  0.00    +0.000 A 
ATOM     13  C   UNL     1     104.296 123.409  83.103  0.00  0.00    +0.000 A 
ATOM     14  C   UNL     1     104.758 122.519  82.131  0.00  0.00    +0.000 A 
ATOM     15  C   UNL     1     104.808 122.911  80.793  0.00  0.00    +0.000 A 
ATOM     16  C   UNL     1     104.395 124.192  80.425  0.00  0.00    +0.000 A 
ATOM     17  C   UNL     1     103.934 125.083  81.395  0.00  0.00    +0.000 A 
ENDBRANCH  10  12
ENDBRANCH   1  10
TORSDOF 3
ENDMDL
