REMARK  Name = *****
REMARK  3 active torsions:
REMARK  status: ('A' for Active; 'I' for Inactive)
REMARK    1  A    between atoms: C_1  and  C_2
REMARK    2  A    between atoms: C_2  and  C_9
REMARK    3  A    between atoms: C_10  and  C_11
REMARK                            x       y       z     vdW  Elec       q    Type
REMARK                         _______ _______ _______ _____ _____    ______ ____
ROOT
ATOM      1  C   UNL     1       3.039   0.831   1.105  0.00  0.00    +0.000 C 
ATOM      2  C   UNL     1       2.610  -0.049  -0.084  0.00  0.00    +0.000 C 
ATOM      3  C   UNL     1       3.337   0.449  -1.363  0.00  0.00    +0.000 C 
ATOM      4  C   UNL     1       3.073  -0.443  -2.579  0.00  0.00    +0.000 C 
ATOM      5  C   UNL     1       3.461  -1.890  -2.317  0.00  0.00    +0.000 C 
ATOM      6  C   UNL     1       2.868  -2.385  -1.019  0.00  0.00    +0.000 C 
ATOM      7  O   UNL     1       2.382  -3.512  -0.922  0.00  0.00    +0.000 OA
ATOM      8  C   UNL     1       3.058  -1.501   0.194  0.00  0.00    +0.000 C 
ENDROOT
BRANCH   2   9
ATOM      9  C   UNL     1       1.085   0.005  -0.160  0.00  0.00    +0.000 C 
ATOM     10  C   UNL     1       0.345   0.845  -0.905  0.00  0.00    +0.000 C 
BRANCH  10  11
ATOM     11  C   UNL     1      -1.169   0.821  -0.947  0.00  0.00    +0.000 C 
ATOM     12  C   UNL     1      -1.677   0.614  -2.385  0.00  0.00    +0.000 C 
ATOM     13  C   UNL     1      -1.511   1.851  -3.270  0.00  0.00    +0.000 C 
ATOM     14  C   UNL     1      -2.130   3.090  -2.631  0.00  0.00    +0.000 C 
ATOM     15  C   UNL     1      -1.599   3.331  -1.221  0.00  0.00    +0.000 C 
ATOM     16  C   UNL     1      -1.769   2.097  -0.335  0.00  0.00    +0.000 C 
ENDBRANCH  10  11
ENDBRANCH   2   9
TORSDOF 2
