MODEL 1
REMARK VINA RESULT:      -5.2      0.000      0.000
REMARK  Name = *****
REMARK  2 active torsions:
REMARK  status: ('A' for Active; 'I' for Inactive)
REMARK    1  A    between atoms: C_1  and  C_2
REMARK    2  A    between atoms: C_9  and  C_11
REMARK                            x       y       z     vdW  Elec       q    Type
REMARK                         _______ _______ _______ _____ _____    ______ ____
ROOT
ATOM      1  C   UNL     1     104.843 121.964  80.699  0.00  0.00    +0.000 C 
ATOM      2  C   UNL     1     105.384 123.229  81.353  0.00  0.00    +0.000 C 
ATOM      3  C   UNL     1     105.804 123.001  82.821  0.00  0.00    +0.000 C 
ATOM      4  C   UNL     1     104.576 123.312  83.691  0.00  0.00    +0.000 C 
ATOM      5  C   UNL     1     103.871 124.327  82.846  0.00  0.00    +0.000 A 
ATOM      6  C   UNL     1     104.318 124.275  81.524  0.00  0.00    +0.000 A 
ATOM      7  C   UNL     1     103.774 125.104  80.560  0.00  0.00    +0.000 A 
ATOM      8  C   UNL     1     102.766 125.996  80.942  0.00  0.00    +0.000 A 
ATOM      9  C   UNL     1     102.293 126.059  82.273  0.00  0.00    +0.000 A 
ATOM     10  C   UNL     1     102.862 125.199  83.229  0.00  0.00    +0.000 A 
ENDROOT
BRANCH   9  11
ATOM     11  C   UNL     1     101.224 127.002  82.648  0.00  0.00    +0.000 A 
ATOM     12  C   UNL     1     101.521 128.225  83.275  0.00  0.00    +0.000 A 
ATOM     13  C   UNL     1     100.508 129.119  83.630  0.00  0.00    +0.000 A 
ATOM     14  C   UNL     1      99.177 128.806  83.366  0.00  0.00    +0.000 A 
ATOM     15  C   UNL     1      98.859 127.601  82.745  0.00  0.00    +0.000 A 
ATOM     16  C   UNL     1      99.874 126.708  82.390  0.00  0.00    +0.000 A 
ENDBRANCH   9  11
TORSDOF 1
ENDMDL
