REMARK  Name = *****
REMARK  3 active torsions:
REMARK  status: ('A' for Active; 'I' for Inactive)
REMARK    1  A    between atoms: C_1  and  C_2
REMARK    2  A    between atoms: C_9  and  C_17
REMARK    3  A    between atoms: P_10  and  C_11
REMARK                            x       y       z     vdW  Elec       q    Type
REMARK                         _______ _______ _______ _____ _____    ______ ____
ROOT
ATOM      1  C   UNL     1       1.338  -0.060  -0.688  0.00  0.00    +0.000 C 
ATOM      2  C   UNL     1       2.719  -0.008  -0.052  0.00  0.00    +0.000 C 
ATOM      3  C   UNL     1       2.939   1.017   1.023  0.00  0.00    +0.000 A 
ATOM      4  C   UNL     1       2.408   2.312   0.970  0.00  0.00    +0.000 A 
ATOM      5  C   UNL     1       2.685   3.225   1.987  0.00  0.00    +0.000 A 
ATOM      6  C   UNL     1       3.505   2.858   3.052  0.00  0.00    +0.000 A 
ATOM      7  C   UNL     1       4.053   1.576   3.104  0.00  0.00    +0.000 A 
ATOM      8  C   UNL     1       3.766   0.647   2.096  0.00  0.00    +0.000 A 
ATOM      9  C   UNL     1       4.348  -0.737   2.062  0.00  0.00    +0.000 C 
ATOM     10  P   UNL     1       3.219  -1.527   0.849  0.00  0.00    +0.000 P 
ATOM     11  C   UNL     1       4.481  -1.466   3.390  0.00  0.00    +0.000 C 
ENDROOT
BRANCH  10  12
ATOM     12  C   UNL     1       1.760  -2.073   1.787  0.00  0.00    +0.000 A 
ATOM     13  C   UNL     1       1.001  -1.268   2.646  0.00  0.00    +0.000 A 
ATOM     14  C   UNL     1      -0.109  -1.783   3.325  0.00  0.00    +0.000 A 
ATOM     15  C   UNL     1      -0.479  -3.114   3.157  0.00  0.00    +0.000 A 
ATOM     16  C   UNL     1       0.261  -3.931   2.308  0.00  0.00    +0.000 A 
ATOM     17  C   UNL     1       1.369  -3.414   1.631  0.00  0.00    +0.000 A 
ENDBRANCH  10  12
TORSDOF 1
