MODEL 1
REMARK VINA RESULT:      -4.8      0.000      0.000
REMARK  Name = *****
REMARK  2 active torsions:
REMARK  status: ('A' for Active; 'I' for Inactive)
REMARK    1  A    between atoms: C_2  and  C_12
REMARK    2  A    between atoms: C_3  and  N_4
REMARK                            x       y       z     vdW  Elec       q    Type
REMARK                         _______ _______ _______ _____ _____    ______ ____
ROOT
ATOM      1  C   UNL     1      88.504  70.404  88.210  0.00  0.00    +0.000 C 
ATOM      2  C   UNL     1      87.612  70.506  87.000  0.00  0.00    +0.000 C 
ATOM      3  C   UNL     1      87.728  69.196  87.763  0.00  0.00    +0.000 C 
ENDROOT
BRANCH   3   4
ATOM      4  N   UNL     1      88.355  68.055  87.171  0.00  0.00    +0.000 N 
ATOM      5  C   UNL     1      88.011  66.740  87.462  0.00  0.00    +0.000 A 
ATOM      6  O   UNL     1      87.062  66.366  88.139  0.00  0.00    +0.000 OA
ATOM      7  C   UNL     1      88.995  65.821  86.833  0.00  0.00    +0.000 A 
ATOM      8  C   UNL     1      89.975  66.501  86.233  0.00  0.00    +0.000 A 
ATOM      9  S   UNL     1      89.825  68.221  86.336  0.00  0.00    +0.000 S 
ATOM     10 CL   UNL     1      91.303  65.802  85.409  0.00  0.00    +0.000 Cl
ATOM     11 CL   UNL     1      88.818  64.132  86.944  0.00  0.00    +0.000 Cl
ENDBRANCH   3   4
BRANCH   2  12
ATOM     12  C   UNL     1      86.317  71.281  87.055  0.00  0.00    +0.000 A 
ATOM     13  C   UNL     1      85.649  71.689  85.889  0.00  0.00    +0.000 A 
ATOM     14  C   UNL     1      84.445  72.396  85.948  0.00  0.00    +0.000 A 
ATOM     15  C   UNL     1      83.877  72.702  87.183  0.00  0.00    +0.000 A 
ATOM     16  C   UNL     1      84.512  72.297  88.353  0.00  0.00    +0.000 A 
ATOM     17  C   UNL     1      85.716  71.591  88.287  0.00  0.00    +0.000 A 
ENDBRANCH   2  12
TORSDOF 2
ENDMDL
