MODEL 1
REMARK VINA RESULT:      -4.1      0.000      0.000
REMARK  Name = *****
REMARK  5 active torsions:
REMARK  status: ('A' for Active; 'I' for Inactive)
REMARK    1  A    between atoms: C_1  and  C_2
REMARK    2  A    between atoms: C_2  and  C_7
REMARK    3  A    between atoms: C_7  and  O_8
REMARK    4  A    between atoms: O_8  and  C_9
REMARK    5  A    between atoms: C_9  and  C_11
REMARK                            x       y       z     vdW  Elec       q    Type
REMARK                         _______ _______ _______ _____ _____    ______ ____
ROOT
ATOM      1  O   UNL     1     100.121 126.948  82.263  0.00  0.00    +0.000 OA
ENDROOT
BRANCH   1   2
ATOM      2  C   UNL     1      98.863 127.214  82.692  0.00  0.00    +0.000 C 
ATOM      3  O   UNL     1      97.855 126.589  82.404  0.00  0.00    +0.000 OA
BRANCH   2   4
ATOM      4  C   UNL     1      98.861 128.405  83.585  0.00  0.00    +0.000 A 
ATOM      5  C   UNL     1      99.368 129.611  83.081  0.00  0.00    +0.000 A 
ATOM      6  C   UNL     1      99.387 130.756  83.880  0.00  0.00    +0.000 A 
ATOM      7  C   UNL     1      98.903 130.703  85.187  0.00  0.00    +0.000 A 
ATOM      8  C   UNL     1      98.399 129.507  85.697  0.00  0.00    +0.000 A 
ATOM      9  C   UNL     1      98.378 128.359  84.901  0.00  0.00    +0.000 A 
ENDBRANCH   2   4
ENDBRANCH   1   2
BRANCH   1  10
ATOM     10  C   UNL     1     101.023 126.358  83.216  0.00  0.00    +0.000 C 
BRANCH  10  12
ATOM     11  C   UNL     1     103.470 125.846  83.551  0.00  0.00    +0.000 C 
ATOM     12  C   UNL     1     102.459 126.868  82.999  0.00  0.00    +0.000 C 
ATOM     13  C   UNL     1     102.722 127.157  81.513  0.00  0.00    +0.000 C 
ATOM     14  C   UNL     1     103.878 128.155  81.496  0.00  0.00    +0.000 C 
ATOM     15  C   UNL     1     103.870 128.843  82.861  0.00  0.00    +0.000 C 
ATOM     16  C   UNL     1     102.688 128.253  83.625  0.00  0.00    +0.000 C 
ENDBRANCH  10  12
ENDBRANCH   1  10
TORSDOF 4
ENDMDL
