REMARK  Name = *****
REMARK  4 active torsions:
REMARK  status: ('A' for Active; 'I' for Inactive)
REMARK    1  A    between atoms: C_4  and  O_7
REMARK    2  A    between atoms: O_7  and  C_8
REMARK    3  A    between atoms: C_8  and  O_10
REMARK    4  A    between atoms: O_10  and  C_11
REMARK                            x       y       z     vdW  Elec       q    Type
REMARK                         _______ _______ _______ _____ _____    ______ ____
ROOT
ATOM      1  C   UNL     1      -3.376  -0.461  -1.034  0.00  0.00    +0.000 C 
ATOM      2  S   UNL     1      -2.829  -1.749  -1.925  0.00  0.00    +0.000 S 
ENDROOT
BRANCH   1   3
ATOM      3  O   UNL     1      -2.702   0.188   0.001  0.00  0.00    +0.000 OA
BRANCH   3   7
ATOM      4  C   UNL     1       1.132  -0.877   1.258  0.00  0.00    +0.000 A 
ATOM      5  C   UNL     1       0.970   0.086   0.258  0.00  0.00    +0.000 A 
ATOM      6  C   UNL     1      -0.309   0.437  -0.171  0.00  0.00    +0.000 A 
ATOM      7  C   UNL     1      -1.409  -0.197   0.401  0.00  0.00    +0.000 A 
ATOM      8  C   UNL     1      -1.266  -1.141   1.415  0.00  0.00    +0.000 A 
ATOM      9  C   UNL     1       0.016  -1.487   1.837  0.00  0.00    +0.000 A 
ENDBRANCH   3   7
ENDBRANCH   1   3
BRANCH   1  10
ATOM     10  O   UNL     1      -4.638   0.044  -1.321  0.00  0.00    +0.000 OA
BRANCH  10  11
ATOM     11  C   UNL     1      -5.072   1.150  -0.577  0.00  0.00    +0.000 A 
ATOM     12  C   UNL     1      -4.772   2.434  -1.027  0.00  0.00    +0.000 A 
ATOM     13  C   UNL     1      -5.232   3.529  -0.299  0.00  0.00    +0.000 A 
ATOM     14  C   UNL     1      -5.994   3.331   0.856  0.00  0.00    +0.000 A 
ATOM     15  C   UNL     1      -6.304   2.037   1.283  0.00  0.00    +0.000 A 
ATOM     16  C   UNL     1      -5.847   0.936   0.560  0.00  0.00    +0.000 A 
ENDBRANCH  10  11
ENDBRANCH   1  10
TORSDOF 4
