MODEL 1
REMARK VINA RESULT:      -5.3      0.000      0.000
REMARK  Name = *****
REMARK  4 active torsions:
REMARK  status: ('A' for Active; 'I' for Inactive)
REMARK    1  A    between atoms: C_1  and  C_2
REMARK    2  A    between atoms: C_2  and  O_3
REMARK    3  A    between atoms: O_3  and  C_4
REMARK    4  A    between atoms: C_6  and  C_14
REMARK                            x       y       z     vdW  Elec       q    Type
REMARK                         _______ _______ _______ _____ _____    ______ ____
ROOT
ATOM      1  C   UNL     1      99.673 127.467  82.682  0.00  0.00    +0.000 A 
ATOM      2  N   UNL     1     100.579 126.534  82.305  0.00  0.00    +0.000 NA
ATOM      3  C   UNL     1     101.878 126.746  82.622  0.00  0.00    +0.000 A 
ATOM      4  C   UNL     1     102.291 127.891  83.300  0.00  0.00    +0.000 A 
ATOM      5  C   UNL     1     101.348 128.855  83.682  0.00  0.00    +0.000 A 
ATOM      6  C   UNL     1     101.731 130.022  84.367  0.00  0.00    +0.000 A 
ATOM      7  C   UNL     1     100.784 130.975  84.742  0.00  0.00    +0.000 A 
ATOM      8  C   UNL     1      99.441 130.777  84.438  0.00  0.00    +0.000 A 
ATOM      9  C   UNL     1      99.046 129.626  83.758  0.00  0.00    +0.000 A 
ATOM     10  C   UNL     1      99.991 128.649  83.370  0.00  0.00    +0.000 A 
ENDROOT
BRANCH   3  11
ATOM     11  C   UNL     1     102.817 125.690  82.186  0.00  0.00    +0.000 A 
ATOM     12  C   UNL     1     103.357 124.783  83.122  0.00  0.00    +0.000 A 
ATOM     13  C   UNL     1     104.243 123.776  82.732  0.00  0.00    +0.000 A 
ATOM     14  C   UNL     1     104.606 123.665  81.397  0.00  0.00    +0.000 A 
ATOM     15  C   UNL     1     104.103 124.545  80.449  0.00  0.00    +0.000 A 
ATOM     16  C   UNL     1     103.215 125.552  80.843  0.00  0.00    +0.000 A 
ATOM     17  F   UNL     1     105.455 122.702  81.020  0.00  0.00    +0.000 F 
ENDBRANCH   3  11
BRANCH   1  18
ATOM     18  O   UNL     1      98.340 127.258  82.367  0.00  0.00    +0.000 OA
BRANCH  18  20
ATOM     19  C   UNL     1      96.574 126.900  83.926  0.00  0.00    +0.000 C 
ATOM     20  C   UNL     1      97.716 126.250  83.164  0.00  0.00    +0.000 C 
ENDBRANCH  18  20
ENDBRANCH   1  18
TORSDOF 3
ENDMDL
