MODEL 1
REMARK VINA RESULT:      -4.0      0.000      0.000
REMARK  Name = *****
REMARK  3 active torsions:
REMARK  status: ('A' for Active; 'I' for Inactive)
REMARK    1  A    between atoms: C_4  and  C_7
REMARK    2  A    between atoms: C_7  and  S_8
REMARK    3  A    between atoms: S_8  and  C_9
REMARK                            x       y       z     vdW  Elec       q    Type
REMARK                         _______ _______ _______ _____ _____    ______ ____
ROOT
ATOM      1  C   UNL     1     102.823 127.359  83.172  0.00  0.00    +0.000 C 
ENDROOT
BRANCH   1   5
ATOM      2  C   UNL     1      98.573 128.033  82.858  0.00  0.00    +0.000 A 
ATOM      3  C   UNL     1      99.390 128.996  83.450  0.00  0.00    +0.000 A 
ATOM      4  C   UNL     1     100.766 128.780  83.549  0.00  0.00    +0.000 A 
ATOM      5  C   UNL     1     101.339 127.600  83.054  0.00  0.00    +0.000 A 
ATOM      6  C   UNL     1     100.504 126.634  82.469  0.00  0.00    +0.000 A 
ATOM      7  C   UNL     1      99.130 126.853  82.370  0.00  0.00    +0.000 A 
ENDBRANCH   1   5
BRANCH   1   8
ATOM      8  S   UNL     1     103.693 127.811  81.644  0.00  0.00    +0.000 S 
BRANCH   8   9
ATOM      9  C   UNL     1     104.161 126.229  81.063  0.00  0.00    +0.000 A 
ATOM     10  N   UNL     1     104.795 126.059  79.922  0.00  0.00    +0.000 NA
ATOM     11  C   UNL     1     105.028 124.707  79.727  0.00  0.00    +0.000 A 
ATOM     12  C   UNL     1     104.562 123.894  80.729  0.00  0.00    +0.000 A 
ATOM     13  S   UNL     1     103.816 124.797  81.952  0.00  0.00    +0.000 S 
ATOM     14 CL   UNL     1     104.665 122.190  80.833  0.00  0.00    +0.000 Cl
ENDBRANCH   8   9
ENDBRANCH   1   8
TORSDOF 3
ENDMDL
