REMARK  Name = *****
REMARK  4 active torsions:
REMARK  status: ('A' for Active; 'I' for Inactive)
REMARK    1  A    between atoms: C_1  and  O_2
REMARK    2  A    between atoms: O_2  and  C_3
REMARK    3  A    between atoms: C_6  and  C_9
REMARK    4  A    between atoms: C_10  and  C_11
REMARK                            x       y       z     vdW  Elec       q    Type
REMARK                         _______ _______ _______ _____ _____    ______ ____
ROOT
ATOM      1  C   UNL     1       5.157   4.416   1.896  0.00  0.00    +0.000 C 
ATOM      2  C   UNL     1       4.833   5.098   3.007  0.00  0.00    +0.000 C 
ENDROOT
BRANCH   2   3
ATOM      3  C   UNL     1       5.545   6.291   3.498  0.00  0.00    +0.000 A 
ATOM      4  C   UNL     1       6.184   7.196   2.639  0.00  0.00    +0.000 A 
ATOM      5  C   UNL     1       6.823   8.334   3.146  0.00  0.00    +0.000 A 
ATOM      6  C   UNL     1       6.823   8.588   4.517  0.00  0.00    +0.000 A 
ATOM      7  C   UNL     1       6.177   7.709   5.382  0.00  0.00    +0.000 A 
ATOM      8  C   UNL     1       5.542   6.578   4.871  0.00  0.00    +0.000 A 
ATOM      9  F   UNL     1       4.921   5.756   5.732  0.00  0.00    +0.000 F 
ENDBRANCH   2   3
BRANCH   1  13
ATOM     10  C   UNL     1       3.128   0.927   0.437  0.00  0.00    +0.000 A 
ATOM     11  C   UNL     1       2.399   1.944   1.052  0.00  0.00    +0.000 A 
ATOM     12  C   UNL     1       3.052   3.084   1.540  0.00  0.00    +0.000 A 
ATOM     13  C   UNL     1       4.442   3.218   1.431  0.00  0.00    +0.000 A 
ATOM     14  C   UNL     1       5.164   2.201   0.799  0.00  0.00    +0.000 A 
ATOM     15  C   UNL     1       4.512   1.064   0.313  0.00  0.00    +0.000 A 
BRANCH  10  17
ATOM     16  C   UNL     1       1.212  -0.416   0.022  0.00  0.00    +0.000 C 
ATOM     17  O   UNL     1       2.618  -0.230  -0.082  0.00  0.00    +0.000 OA
ENDBRANCH  10  17
ENDBRANCH   1  13
TORSDOF 3
