MODEL 1
REMARK VINA RESULT:      -4.6      0.000      0.000
REMARK  Name = *****
REMARK  5 active torsions:
REMARK  status: ('A' for Active; 'I' for Inactive)
REMARK    1  A    between atoms: C_4  and  C_7
REMARK    2  A    between atoms: C_7  and  C_8
REMARK    3  A    between atoms: C_7  and  S_11
REMARK    4  A    between atoms: C_8  and  C_9
REMARK    5  A    between atoms: S_11  and  C_12
REMARK                            x       y       z     vdW  Elec       q    Type
REMARK                         _______ _______ _______ _____ _____    ______ ____
ROOT
ATOM      1  C   UNL     1      87.627  70.803  85.449  0.00  0.00    +0.000 C 
ENDROOT
BRANCH   1   5
ATOM      2  C   UNL     1      84.276  72.451  87.685  0.00  0.00    +0.000 A 
ATOM      3  C   UNL     1      85.336  71.870  88.374  0.00  0.00    +0.000 A 
ATOM      4  C   UNL     1      86.423  71.332  87.678  0.00  0.00    +0.000 A 
ATOM      5  C   UNL     1      86.470  71.360  86.277  0.00  0.00    +0.000 A 
ATOM      6  C   UNL     1      85.387  71.960  85.600  0.00  0.00    +0.000 A 
ATOM      7  C   UNL     1      84.301  72.496  86.296  0.00  0.00    +0.000 A 
ENDBRANCH   1   5
BRANCH   1   8
ATOM      8  C   UNL     1      88.012  71.575  84.177  0.00  0.00    +0.000 C 
BRANCH   8   9
ATOM      9  C   UNL     1      89.349  72.270  84.231  0.00  0.00    +0.000 C 
ATOM     10  O   UNL     1      89.486  73.467  83.988  0.00  0.00    +0.000 OA
ENDBRANCH   8   9
ENDBRANCH   1   8
BRANCH   1  11
ATOM     11  S   UNL     1      89.089  70.479  86.548  0.00  0.00    +0.000 S 
BRANCH  11  12
ATOM     12  C   UNL     1      89.021  68.704  86.693  0.00  0.00    +0.000 A 
ATOM     13  C   UNL     1      90.078  67.939  86.190  0.00  0.00    +0.000 A 
ATOM     14  C   UNL     1      90.050  66.547  86.286  0.00  0.00    +0.000 A 
ATOM     15  C   UNL     1      88.970  65.912  86.896  0.00  0.00    +0.000 A 
ATOM     16  C   UNL     1      87.922  66.668  87.417  0.00  0.00    +0.000 A 
ATOM     17  C   UNL     1      87.950  68.061  87.322  0.00  0.00    +0.000 A 
ENDBRANCH  11  12
ENDBRANCH   1  11
TORSDOF 5
ENDMDL
