MODEL 1
REMARK VINA RESULT:      -4.5      0.000      0.000
REMARK  Name = *****
REMARK  3 active torsions:
REMARK  status: ('A' for Active; 'I' for Inactive)
REMARK    1  A    between atoms: C_4  and  O_7
REMARK    2  A    between atoms: O_7  and  C_8
REMARK    3  A    between atoms: C_8  and  C_10
REMARK                            x       y       z     vdW  Elec       q    Type
REMARK                         _______ _______ _______ _____ _____    ______ ____
ROOT
ATOM      1  C   UNL     1     103.177 126.625  81.641  0.00  0.00    +0.000 C 
ATOM      2  O   UNL     1     103.177 127.360  80.666  0.00  0.00    +0.000 OA
ENDROOT
BRANCH   1   3
ATOM      3  C   UNL     1     103.748 125.249  81.620  0.00  0.00    +0.000 A 
ATOM      4  C   UNL     1     104.228 124.645  80.448  0.00  0.00    +0.000 A 
ATOM      5  C   UNL     1     104.751 123.347  80.490  0.00  0.00    +0.000 A 
ATOM      6  C   UNL     1     104.796 122.652  81.697  0.00  0.00    +0.000 A 
ATOM      7  C   UNL     1     104.321 123.242  82.867  0.00  0.00    +0.000 A 
ATOM      8  C   UNL     1     103.797 124.537  82.829  0.00  0.00    +0.000 A 
ATOM      9 CL   UNL     1     105.440 121.059  81.742  0.00  0.00    +0.000 Cl
ENDBRANCH   1   3
BRANCH   1  10
ATOM     10  O   UNL     1     102.669 126.896  82.900  0.00  0.00    +0.000 OA
BRANCH  10  14
ATOM     11  C   UNL     1      98.743 128.329  83.001  0.00  0.00    +0.000 A 
ATOM     12  C   UNL     1      99.764 129.118  83.533  0.00  0.00    +0.000 A 
ATOM     13  C   UNL     1     101.081 128.657  83.524  0.00  0.00    +0.000 A 
ATOM     14  C   UNL     1     101.359 127.396  82.996  0.00  0.00    +0.000 A 
ATOM     15  C   UNL     1     100.348 126.611  82.443  0.00  0.00    +0.000 A 
ATOM     16  C   UNL     1      99.034 127.078  82.453  0.00  0.00    +0.000 A 
ENDBRANCH  10  14
ENDBRANCH   1  10
TORSDOF 3
ENDMDL
