MODEL 1
REMARK VINA RESULT:      -4.1      0.000      0.000
REMARK  Name = *****
REMARK  5 active torsions:
REMARK  status: ('A' for Active; 'I' for Inactive)
REMARK    1  A    between atoms: C_1  and  C_2
REMARK    2  A    between atoms: C_5  and  C_8
REMARK    3  A    between atoms: C_8  and  O_9
REMARK    4  A    between atoms: O_9  and  C_10
REMARK    5  A    between atoms: C_10  and  C_11
REMARK                            x       y       z     vdW  Elec       q    Type
REMARK                         _______ _______ _______ _____ _____    ______ ____
ROOT
ATOM      1  C   UNL     1      89.105  70.232  86.896  0.00  0.00    +0.000 C 
ENDROOT
BRANCH   1   6
ATOM      2  C   UNL     1      83.801  72.608  87.340  0.00  0.00    +0.000 C 
ATOM      3  C   UNL     1      85.150  71.964  87.228  0.00  0.00    +0.000 A 
ATOM      4  C   UNL     1      85.851  71.577  88.374  0.00  0.00    +0.000 A 
ATOM      5  C   UNL     1      87.121  71.006  88.269  0.00  0.00    +0.000 A 
ATOM      6  C   UNL     1      87.718  70.809  87.017  0.00  0.00    +0.000 A 
ATOM      7  C   UNL     1      87.024  71.224  85.871  0.00  0.00    +0.000 A 
ATOM      8  C   UNL     1      85.753  71.796  85.976  0.00  0.00    +0.000 A 
ENDBRANCH   1   6
BRANCH   1   9
ATOM      9  O   UNL     1      89.044  68.805  86.952  0.00  0.00    +0.000 OA
BRANCH   9  10
ATOM     10  C   UNL     1      90.008  68.198  86.095  0.00  0.00    +0.000 C 
BRANCH  10  11
ATOM     11  C   UNL     1      90.023  66.679  86.325  0.00  0.00    +0.000 C 
ATOM     12  C   UNL     1      90.528  65.970  85.061  0.00  0.00    +0.000 C 
ATOM     13  S   UNL     1      90.835  64.197  85.324  0.00  0.00    +0.000 S 
ATOM     14  C   UNL     1      89.158  63.689  85.757  0.00  0.00    +0.000 C 
ATOM     15  S   UNL     1      88.593  64.473  87.283  0.00  0.00    +0.000 S 
ATOM     16  C   UNL     1      88.621  66.205  86.730  0.00  0.00    +0.000 C 
ENDBRANCH  10  11
ENDBRANCH   9  10
ENDBRANCH   1   9
TORSDOF 4
ENDMDL
