MODEL 1
REMARK VINA RESULT:      -4.4      0.000      0.000
REMARK  Name = *****
REMARK  3 active torsions:
REMARK  status: ('A' for Active; 'I' for Inactive)
REMARK    1  A    between atoms: C_3  and  C_9
REMARK    2  A    between atoms: C_9  and  O_11
REMARK    3  A    between atoms: O_11  and  C_12
REMARK                            x       y       z     vdW  Elec       q    Type
REMARK                         _______ _______ _______ _____ _____    ______ ____
ROOT
ATOM      1  C   UNL     1      87.313  64.163  86.812  0.00  0.00    +0.000 C 
ATOM      2  O   UNL     1      86.214  64.481  86.380  0.00  0.00    +0.000 OA
ENDROOT
BRANCH   1   5
ATOM      3  C   UNL     1      89.866  66.909  86.491  0.00  0.00    +0.000 A 
ATOM      4  C   UNL     1      88.714  66.198  86.836  0.00  0.00    +0.000 A 
ATOM      5  C   UNL     1      88.551  64.868  86.418  0.00  0.00    +0.000 A 
ATOM      6  C   UNL     1      89.557  64.251  85.675  0.00  0.00    +0.000 A 
ATOM      7  C   UNL     1      90.707  64.964  85.331  0.00  0.00    +0.000 A 
ATOM      8  C   UNL     1      90.861  66.292  85.733  0.00  0.00    +0.000 A 
ATOM      9 CL   UNL     1      91.957  64.217  84.411  0.00  0.00    +0.000 Cl
ATOM     10  F   UNL     1      89.447  62.964  85.309  0.00  0.00    +0.000 F 
ENDBRANCH   1   5
BRANCH   1  11
ATOM     11  O   UNL     1      87.620  63.093  87.627  0.00  0.00    +0.000 OA
BRANCH  11  12
ATOM     12  C   UNL     1      87.744  63.440  88.973  0.00  0.00    +0.000 A 
ATOM     13  C   UNL     1      89.008  63.560  89.549  0.00  0.00    +0.000 A 
ATOM     14  C   UNL     1      89.112  63.957  90.883  0.00  0.00    +0.000 A 
ATOM     15  C   UNL     1      87.957  64.242  91.614  0.00  0.00    +0.000 A 
ATOM     16  C   UNL     1      86.695  64.140  91.022  0.00  0.00    +0.000 A 
ATOM     17  C   UNL     1      86.587  63.743  89.689  0.00  0.00    +0.000 A 
ATOM     18 CL   UNL     1      88.089  64.735  93.257  0.00  0.00    +0.000 Cl
ENDBRANCH  11  12
ENDBRANCH   1  11
TORSDOF 3
ENDMDL
