MODEL 1
REMARK VINA RESULT:      -5.0      0.000      0.000
REMARK  Name = *****
REMARK  5 active torsions:
REMARK  status: ('A' for Active; 'I' for Inactive)
REMARK    1  A    between atoms: C_1  and  C_2
REMARK    2  A    between atoms: C_5  and  N_8
REMARK    3  A    between atoms: N_8  and  C_9
REMARK    4  A    between atoms: C_9  and  C_10
REMARK    5  A    between atoms: C_13  and  C_16
REMARK                            x       y       z     vdW  Elec       q    Type
REMARK                         _______ _______ _______ _____ _____    ______ ____
ROOT
ATOM      1  C   UNL     1      88.577  64.508  86.956  0.00  0.00    +0.000 C 
ENDROOT
BRANCH   1   2
ATOM      2  C   UNL     1      88.682  65.974  86.846  0.00  0.00    +0.000 A 
ATOM      3  C   UNL     1      87.667  66.872  87.179  0.00  0.00    +0.000 A 
ATOM      4  C   UNL     1      87.877  68.250  87.054  0.00  0.00    +0.000 A 
ATOM      5  C   UNL     1      89.108  68.752  86.610  0.00  0.00    +0.000 A 
ATOM      6  C   UNL     1      90.125  67.846  86.281  0.00  0.00    +0.000 A 
ATOM      7  C   UNL     1      89.916  66.469  86.406  0.00  0.00    +0.000 A 
BRANCH   5   8
ATOM      8  C   UNL     1      89.324  70.239  86.453  0.00  0.00    +0.000 C 
ATOM      9  F   UNL     1      88.193  70.912  86.101  0.00  0.00    +0.000 F 
ATOM     10  F   UNL     1      89.769  70.834  87.596  0.00  0.00    +0.000 F 
ATOM     11  F   UNL     1      90.248  70.529  85.497  0.00  0.00    +0.000 F 
ENDBRANCH   5   8
ENDBRANCH   1   2
BRANCH   1  12
ATOM     12  N   UNL     1      87.747  63.841  87.727  0.00  0.00    +0.000 N 
ATOM     13  O   UNL     1      86.849  63.052  87.290  0.00  0.00    +0.000 OA
BRANCH  12  18
ATOM     14  C   UNL     1      88.141  64.648  93.407  0.00  0.00    +0.000 C 
ATOM     15  C   UNL     1      88.039  64.410  91.929  0.00  0.00    +0.000 A 
ATOM     16  C   UNL     1      86.842  64.685  91.251  0.00  0.00    +0.000 A 
ATOM     17  C   UNL     1      86.751  64.492  89.872  0.00  0.00    +0.000 A 
ATOM     18  C   UNL     1      87.868  64.042  89.163  0.00  0.00    +0.000 A 
ATOM     19  C   UNL     1      89.067  63.761  89.826  0.00  0.00    +0.000 A 
ATOM     20  C   UNL     1      89.150  63.956  91.206  0.00  0.00    +0.000 A 
ENDBRANCH  12  18
ENDBRANCH   1  12
TORSDOF 4
ENDMDL
