MODEL 1
REMARK VINA RESULT:      -4.6      0.000      0.000
REMARK  Name = *****
REMARK  5 active torsions:
REMARK  status: ('A' for Active; 'I' for Inactive)
REMARK    1  A    between atoms: C_1  and  C_2
REMARK    2  A    between atoms: N_7  and  C_8
REMARK    3  A    between atoms: C_8  and  C_9
REMARK    4  A    between atoms: C_8  and  C_10
REMARK    5  A    between atoms: C_16  and  C_17
REMARK                            x       y       z     vdW  Elec       q    Type
REMARK                         _______ _______ _______ _____ _____    ______ ____
ROOT
ATOM      1  C   UNL     1      88.260  69.161  83.278  0.00  0.00    +0.000 C 
ATOM      2  C   UNL     1      89.673  68.927  83.828  0.00  0.00    +0.000 C 
ATOM      3  C   UNL     1      89.817  67.495  84.382  0.00  0.00    +0.000 C 
ATOM      4  C   UNL     1      89.066  67.281  85.698  0.00  0.00    +0.000 C 
ATOM      5  C   UNL     1      89.477  68.301  86.754  0.00  0.00    +0.000 C 
ATOM      6  C   UNL     1      89.304  69.696  86.185  0.00  0.00    +0.000 C 
ATOM      7  N   UNL     1      88.572  70.634  86.670  0.00  0.00    +0.000 NA
ATOM      8  C   UNL     1      90.095  69.962  84.898  0.00  0.00    +0.000 C 
ATOM      9  C   UNL     1      90.004  71.405  84.408  0.00  0.00    +0.000 C 
ENDROOT
BRANCH   7  10
ATOM     10  C   UNL     1      87.749  70.465  87.869  0.00  0.00    +0.000 C 
ATOM     11  C   UNL     1      88.515  70.998  89.081  0.00  0.00    +0.000 C 
BRANCH  10  12
ATOM     12  C   UNL     1      86.425  71.205  87.740  0.00  0.00    +0.000 A 
ATOM     13  C   UNL     1      85.710  71.575  88.892  0.00  0.00    +0.000 A 
ATOM     14  C   UNL     1      84.507  72.276  88.790  0.00  0.00    +0.000 A 
ATOM     15  C   UNL     1      84.004  72.621  87.537  0.00  0.00    +0.000 A 
ATOM     16  C   UNL     1      84.704  72.268  86.386  0.00  0.00    +0.000 A 
ATOM     17  C   UNL     1      85.908  71.568  86.487  0.00  0.00    +0.000 A 
ENDBRANCH  10  12
ENDBRANCH   7  10
TORSDOF 2
ENDMDL
