MODEL 1
REMARK VINA RESULT:      -4.7      0.000      0.000
REMARK  Name = *****
REMARK  4 active torsions:
REMARK  status: ('A' for Active; 'I' for Inactive)
REMARK    1  A    between atoms: C_1  and  C_2
REMARK    2  A    between atoms: C_5  and  N_8
REMARK    3  A    between atoms: N_8  and  C_9
REMARK    4  A    between atoms: C_9  and  C_11
REMARK                            x       y       z     vdW  Elec       q    Type
REMARK                         _______ _______ _______ _____ _____    ______ ____
ROOT
ATOM      1  N   UNL     1      89.060  63.857  87.988  0.00  0.00    +0.000 N 
ATOM      2  H   UNL     1      89.966  63.742  88.355  0.00  0.00    +0.000 HD
ENDROOT
BRANCH   1   7
ATOM      3  C   UNL     1      84.783  61.863  91.260  0.00  0.00    +0.000 C 
ATOM      4  C   UNL     1      85.889  62.420  90.416  0.00  0.00    +0.000 A 
ATOM      5  C   UNL     1      86.741  63.408  90.917  0.00  0.00    +0.000 A 
ATOM      6  C   UNL     1      87.798  63.908  90.144  0.00  0.00    +0.000 A 
ATOM      7  C   UNL     1      88.037  63.419  88.862  0.00  0.00    +0.000 A 
ATOM      8  C   UNL     1      87.180  62.428  88.364  0.00  0.00    +0.000 A 
ATOM      9  C   UNL     1      86.124  61.924  89.132  0.00  0.00    +0.000 A 
ENDBRANCH   1   7
BRANCH   1  10
ATOM     10  C   UNL     1      89.043  64.415  86.716  0.00  0.00    +0.000 C 
ATOM     11  S   UNL     1      89.068  63.663  85.218  0.00  0.00    +0.000 S 
BRANCH  10  12
ATOM     12  C   UNL     1      88.951  65.905  86.779  0.00  0.00    +0.000 A 
ATOM     13  C   UNL     1      90.017  66.672  86.287  0.00  0.00    +0.000 A 
ATOM     14  C   UNL     1      89.957  68.064  86.363  0.00  0.00    +0.000 A 
ATOM     15  C   UNL     1      88.841  68.674  86.929  0.00  0.00    +0.000 A 
ATOM     16  C   UNL     1      87.781  67.919  87.424  0.00  0.00    +0.000 A 
ATOM     17  C   UNL     1      87.833  66.527  87.352  0.00  0.00    +0.000 A 
ATOM     18  F   UNL     1      88.788  70.010  87.002  0.00  0.00    +0.000 F 
ENDBRANCH  10  12
ENDBRANCH   1  10
TORSDOF 3
ENDMDL
