MODEL 1
REMARK VINA RESULT:      -5.2      0.000      0.000
REMARK  Name = *****
REMARK  3 active torsions:
REMARK  status: ('A' for Active; 'I' for Inactive)
REMARK    1  A    between atoms: C_1  and  C_2
REMARK    2  A    between atoms: C_5  and  C_18
REMARK    3  A    between atoms: C_6  and  C_12
REMARK                            x       y       z     vdW  Elec       q    Type
REMARK                         _______ _______ _______ _____ _____    ______ ____
ROOT
ATOM      1  C   UNL     1     107.080 124.341  77.931  0.00  0.00    +0.000 C 
ATOM      2  C   UNL     1     106.275 124.257  79.194  0.00  0.00    +0.000 A 
ATOM      3  C   UNL     1     105.333 125.253  79.505  0.00  0.00    +0.000 A 
ATOM      4  C   UNL     1     104.529 125.198  80.670  0.00  0.00    +0.000 A 
ATOM      5  C   UNL     1     103.576 126.191  81.037  0.00  0.00    +0.000 A 
ATOM      6  C   UNL     1     102.799 125.980  82.191  0.00  0.00    +0.000 A 
ATOM      7  N   UNL     1     102.972 124.908  83.003  0.00  0.00    +0.000 NA
ATOM      8  C   UNL     1     103.901 123.997  82.650  0.00  0.00    +0.000 A 
ATOM      9  C   UNL     1     104.693 124.077  81.510  0.00  0.00    +0.000 A 
ATOM     10  C   UNL     1     105.625 123.073  81.196  0.00  0.00    +0.000 A 
ATOM     11  C   UNL     1     106.406 123.161  80.045  0.00  0.00    +0.000 A 
ATOM     12  C   UNL     1     103.393 127.427  80.192  0.00  0.00    +0.000 C 
ENDROOT
BRANCH   6  13
ATOM     13  C   UNL     1     101.724 126.879  82.638  0.00  0.00    +0.000 A 
ATOM     14  C   UNL     1     102.007 128.058  83.351  0.00  0.00    +0.000 A 
ATOM     15  C   UNL     1     100.979 128.907  83.771  0.00  0.00    +0.000 A 
ATOM     16  C   UNL     1      99.654 128.596  83.477  0.00  0.00    +0.000 A 
ATOM     17  C   UNL     1      99.354 127.442  82.757  0.00  0.00    +0.000 A 
ATOM     18  C   UNL     1     100.382 126.594  82.337  0.00  0.00    +0.000 A 
ENDBRANCH   6  13
TORSDOF 1
ENDMDL
