REMARK  Name = *****
REMARK  3 active torsions:
REMARK  status: ('A' for Active; 'I' for Inactive)
REMARK    1  A    between atoms: C_8  and  O_9
REMARK    2  A    between atoms: O_9  and  C_10
REMARK    3  A    between atoms: C_10  and  C_12
REMARK                            x       y       z     vdW  Elec       q    Type
REMARK                         _______ _______ _______ _____ _____    ______ ____
ROOT
ATOM      1  O   UNL     1      -0.548   0.503   2.405  0.00  0.00    +0.000 OA
ENDROOT
BRANCH   1   9
ATOM      2  C   UNL     1       0.736  -1.107  -1.625  0.00  0.00    +0.000 C 
ATOM      3  C   UNL     1       1.365   0.077  -0.868  0.00  0.00    +0.000 C 
ATOM      4  C   UNL     1       1.002  -0.133   0.616  0.00  0.00    +0.000 C 
ATOM      5  C   UNL     1       0.808  -1.653   0.688  0.00  0.00    +0.000 C 
ATOM      6  C   UNL     1      -0.055  -1.877  -0.560  0.00  0.00    +0.000 C 
ATOM      7  C   UNL     1      -1.407  -1.227  -0.373  0.00  0.00    +0.000 C 
ATOM      8  C   UNL     1      -1.529  -0.101   0.352  0.00  0.00    +0.000 C 
ATOM      9  C   UNL     1      -0.332   0.575   0.986  0.00  0.00    +0.000 C 
ENDBRANCH   1   9
BRANCH   1  10
ATOM     10  C   UNL     1       0.091   1.441   3.144  0.00  0.00    +0.000 C 
ATOM     11  O   UNL     1       0.813   2.326   2.713  0.00  0.00    +0.000 OA
BRANCH  10  12
ATOM     12  C   UNL     1      -0.204   1.253   4.591  0.00  0.00    +0.000 A 
ATOM     13  C   UNL     1      -0.994   0.197   5.066  0.00  0.00    +0.000 A 
ATOM     14  C   UNL     1      -1.239   0.065   6.436  0.00  0.00    +0.000 A 
ATOM     15  C   UNL     1      -0.698   0.984   7.334  0.00  0.00    +0.000 A 
ATOM     16  C   UNL     1       0.089   2.037   6.869  0.00  0.00    +0.000 A 
ATOM     17  C   UNL     1       0.337   2.171   5.502  0.00  0.00    +0.000 A 
ENDBRANCH  10  12
ENDBRANCH   1  10
TORSDOF 3
