MODEL 1
REMARK VINA RESULT:      -4.6      0.000      0.000
REMARK  Name = *****
REMARK  3 active torsions:
REMARK  status: ('A' for Active; 'I' for Inactive)
REMARK    1  A    between atoms: C_3  and  C_8
REMARK    2  A    between atoms: C_9  and  O_10
REMARK    3  A    between atoms: O_10  and  C_11
REMARK                            x       y       z     vdW  Elec       q    Type
REMARK                         _______ _______ _______ _____ _____    ______ ____
ROOT
ATOM      1  C   UNL     1      89.861  66.610  86.380  0.00  0.00    +0.000 C 
ATOM      2  C   UNL     1      88.813  65.786  86.499  0.00  0.00    +0.000 C 
ENDROOT
BRANCH   1   5
ATOM      3  C   UNL     1      89.861  69.917  84.578  0.00  0.00    +0.000 A 
ATOM      4  C   UNL     1      89.925  68.546  84.845  0.00  0.00    +0.000 A 
ATOM      5  C   UNL     1      89.760  68.056  86.150  0.00  0.00    +0.000 A 
ATOM      6  C   UNL     1      89.559  68.971  87.190  0.00  0.00    +0.000 A 
ATOM      7  C   UNL     1      89.498  70.334  86.915  0.00  0.00    +0.000 A 
ATOM      8  C   UNL     1      89.644  70.816  85.620  0.00  0.00    +0.000 A 
ATOM      9  F   UNL     1      89.301  71.198  87.919  0.00  0.00    +0.000 F 
ENDBRANCH   1   5
BRANCH   2  10
ATOM     10  O   UNL     1      88.979  64.435  86.709  0.00  0.00    +0.000 OA
BRANCH  10  11
ATOM     11  C   UNL     1      88.293  63.876  87.759  0.00  0.00    +0.000 A 
ATOM     12  C   UNL     1      88.482  64.304  89.077  0.00  0.00    +0.000 A 
ATOM     13  C   UNL     1      87.730  63.732  90.103  0.00  0.00    +0.000 A 
ATOM     14  C   UNL     1      86.790  62.752  89.799  0.00  0.00    +0.000 A 
ATOM     15  C   UNL     1      86.583  62.337  88.487  0.00  0.00    +0.000 A 
ATOM     16  C   UNL     1      87.334  62.907  87.459  0.00  0.00    +0.000 A 
ATOM     17  F   UNL     1      86.067  62.206  90.785  0.00  0.00    +0.000 F 
ENDBRANCH  10  11
ENDBRANCH   2  10
TORSDOF 3
ENDMDL
