MODEL 1
REMARK VINA RESULT:      -4.3      0.000      0.000
REMARK  Name = *****
REMARK  4 active torsions:
REMARK  status: ('A' for Active; 'I' for Inactive)
REMARK    1  A    between atoms: C_4  and  C_7
REMARK    2  A    between atoms: C_7  and  N_9
REMARK    3  A    between atoms: N_9  and  C_10
REMARK    4  A    between atoms: C_10  and  C_11
REMARK                            x       y       z     vdW  Elec       q    Type
REMARK                         _______ _______ _______ _____ _____    ______ ____
ROOT
ATOM      1  N   UNL     1     103.454 125.823  80.022  0.00  0.00    +0.000 N 
ATOM      2  H   UNL     1     102.614 125.552  79.586  0.00  0.00    +0.000 HD
ENDROOT
BRANCH   1   3
ATOM      3  C   UNL     1     104.468 124.891  80.064  0.00  0.00    +0.000 C 
ATOM      4  S   UNL     1     105.886 124.980  79.172  0.00  0.00    +0.000 S 
BRANCH   3   8
ATOM      5  C   UNL     1     105.132 121.613  82.899  0.00  0.00    +0.000 C 
ATOM      6  C   UNL     1     104.420 122.869  83.394  0.00  0.00    +0.000 C 
ATOM      7  C   UNL     1     104.644 124.050  82.452  0.00  0.00    +0.000 C 
ATOM      8  C   UNL     1     104.232 123.705  81.012  0.00  0.00    +0.000 C 
ATOM      9  C   UNL     1     104.960 122.445  80.520  0.00  0.00    +0.000 C 
ATOM     10  C   UNL     1     104.736 121.268  81.466  0.00  0.00    +0.000 C 
ENDBRANCH   3   8
ENDBRANCH   1   3
BRANCH   1  11
ATOM     11  C   UNL     1     103.512 127.172  80.564  0.00  0.00    +0.000 C 
BRANCH  11  12
ATOM     12  C   UNL     1     102.733 127.258  81.850  0.00  0.00    +0.000 A 
ATOM     13  C   UNL     1     101.731 126.319  82.140  0.00  0.00    +0.000 A 
ATOM     14  C   UNL     1     100.987 126.419  83.316  0.00  0.00    +0.000 A 
ATOM     15  C   UNL     1     101.235 127.463  84.206  0.00  0.00    +0.000 A 
ATOM     16  C   UNL     1     102.217 128.409  83.927  0.00  0.00    +0.000 A 
ATOM     17  C   UNL     1     102.962 128.310  82.750  0.00  0.00    +0.000 A 
ATOM     18 CL   UNL     1     100.315 127.587  85.655  0.00  0.00    +0.000 Cl
ENDBRANCH  11  12
ENDBRANCH   1  11
TORSDOF 4
ENDMDL
