MODEL 1
REMARK VINA RESULT:      -4.1      0.000      0.000
REMARK  Name = *****
REMARK  4 active torsions:
REMARK  status: ('A' for Active; 'I' for Inactive)
REMARK    1  A    between atoms: C_1  and  N_2
REMARK    2  A    between atoms: N_2  and  C_3
REMARK    3  A    between atoms: N_2  and  C_9
REMARK    4  A    between atoms: C_3  and  C_4
REMARK                            x       y       z     vdW  Elec       q    Type
REMARK                         _______ _______ _______ _____ _____    ______ ____
ROOT
ATOM      1  C   UNL     1      86.271  68.621  89.209  0.00  0.00    +0.000 C 
ATOM      2  N   UNL     1      87.097  69.211  88.160  0.00  0.00    +0.000 N 
ENDROOT
BRANCH   2   3
ATOM      3  C   UNL     1      88.035  68.439  87.478  0.00  0.00    +0.000 A 
ATOM      4  C   UNL     1      87.962  67.034  87.474  0.00  0.00    +0.000 A 
ATOM      5  C   UNL     1      88.902  66.239  86.806  0.00  0.00    +0.000 A 
ATOM      6  C   UNL     1      89.951  66.840  86.125  0.00  0.00    +0.000 A 
ATOM      7  C   UNL     1      90.067  68.223  86.115  0.00  0.00    +0.000 A 
ATOM      8  C   UNL     1      89.122  69.008  86.791  0.00  0.00    +0.000 A 
ATOM      9 CL   UNL     1      91.109  65.873  85.299  0.00  0.00    +0.000 Cl
ENDBRANCH   2   3
BRANCH   2  10
ATOM     10  C   UNL     1      87.250  70.670  88.211  0.00  0.00    +0.000 C 
BRANCH  10  11
ATOM     11  C   UNL     1      86.185  71.357  87.421  0.00  0.00    +0.000 C 
ATOM     12  C   UNL     1      85.050  71.962  87.818  0.00  0.00    +0.000 C 
ATOM     13  C   UNL     1      84.348  72.475  86.669  0.00  0.00    +0.000 C 
ATOM     14  C   UNL     1      85.043  72.191  85.559  0.00  0.00    +0.000 C 
ATOM     15  C   UNL     1      86.294  71.444  85.922  0.00  0.00    +0.000 C 
ENDBRANCH  10  11
ENDBRANCH   2  10
TORSDOF 3
ENDMDL
