MODEL 1
REMARK VINA RESULT:      -4.3      0.000      0.000
REMARK  Name = *****
REMARK  4 active torsions:
REMARK  status: ('A' for Active; 'I' for Inactive)
REMARK    1  A    between atoms: C_1  and  C_2
REMARK    2  A    between atoms: C_7  and  O_8
REMARK    3  A    between atoms: O_8  and  C_9
REMARK    4  A    between atoms: C_9  and  C_10
REMARK                            x       y       z     vdW  Elec       q    Type
REMARK                         _______ _______ _______ _____ _____    ______ ____
ROOT
ATOM      1  O   UNL     1     103.481 125.008  80.207  0.00  0.00    +0.000 OA
ENDROOT
BRANCH   1   8
ATOM      2  C   UNL     1     101.672 126.024  82.220  0.00  0.00    +0.000 C 
ATOM      3  C   UNL     1     102.866 126.780  81.717  0.00  0.00    +0.000 A 
ATOM      4  C   UNL     1     103.140 128.063  82.212  0.00  0.00    +0.000 A 
ATOM      5  C   UNL     1     104.251 128.779  81.758  0.00  0.00    +0.000 A 
ATOM      6  C   UNL     1     105.101 128.223  80.804  0.00  0.00    +0.000 A 
ATOM      7  C   UNL     1     104.831 126.957  80.292  0.00  0.00    +0.000 A 
ATOM      8  C   UNL     1     103.704 126.255  80.727  0.00  0.00    +0.000 A 
ENDBRANCH   1   8
BRANCH   1   9
ATOM      9  C   UNL     1     104.706 124.266  80.155  0.00  0.00    +0.000 C 
BRANCH   9  10
ATOM     10  C   UNL     1     104.619 123.132  81.147  0.00  0.00    +0.000 A 
ATOM     11  C   UNL     1     104.674 121.803  80.701  0.00  0.00    +0.000 A 
ATOM     12  C   UNL     1     104.595 120.747  81.610  0.00  0.00    +0.000 A 
ATOM     13  C   UNL     1     104.467 121.008  82.973  0.00  0.00    +0.000 A 
ATOM     14  C   UNL     1     104.424 122.325  83.428  0.00  0.00    +0.000 A 
ATOM     15  C   UNL     1     104.502 123.383  82.521  0.00  0.00    +0.000 A 
ENDBRANCH   9  10
ENDBRANCH   1   9
TORSDOF 3
ENDMDL
