MODEL 1
REMARK VINA RESULT:      -4.2      0.000      0.000
REMARK  Name = *****
REMARK  4 active torsions:
REMARK  status: ('A' for Active; 'I' for Inactive)
REMARK    1  A    between atoms: C_1  and  C_2
REMARK    2  A    between atoms: C_2  and  C_16
REMARK    3  A    between atoms: C_6  and  C_8
REMARK    4  A    between atoms: C_9  and  C_10
REMARK                            x       y       z     vdW  Elec       q    Type
REMARK                         _______ _______ _______ _____ _____    ______ ____
ROOT
ATOM      1  C   UNL     1     104.644 128.004  80.431  0.00  0.00    +0.000 C 
ATOM      2  C   UNL     1     105.726 126.935  80.645  0.00  0.00    +0.000 C 
ATOM      3  C   UNL     1     105.469 125.675  79.799  0.00  0.00    +0.000 C 
ATOM      4  C   UNL     1     104.217 124.883  80.142  0.00  0.00    +0.000 C 
ATOM      5  S   UNL     1     104.325 124.089  81.765  0.00  0.00    +0.000 S 
ATOM      6  C   UNL     1     104.474 125.538  82.828  0.00  0.00    +0.000 C 
ATOM      7  S   UNL     1     105.931 126.553  82.434  0.00  0.00    +0.000 S 
ATOM      8  C   UNL     1     107.074 127.543  80.201  0.00  0.00    +0.000 C 
ENDROOT
BRANCH   6   9
ATOM      9  C   UNL     1     103.241 126.384  82.998  0.00  0.00    +0.000 C 
ATOM     10  C   UNL     1     102.021 126.210  82.459  0.00  0.00    +0.000 C 
BRANCH  10  11
ATOM     11  C   UNL     1     100.878 127.096  82.719  0.00  0.00    +0.000 A 
ATOM     12  C   UNL     1      99.565 126.741  82.386  0.00  0.00    +0.000 A 
ATOM     13  C   UNL     1      98.500 127.597  82.681  0.00  0.00    +0.000 A 
ATOM     14  C   UNL     1      98.738 128.813  83.320  0.00  0.00    +0.000 A 
ATOM     15  C   UNL     1     100.038 129.170  83.670  0.00  0.00    +0.000 A 
ATOM     16  C   UNL     1     101.102 128.313  83.376  0.00  0.00    +0.000 A 
ENDBRANCH  10  11
ENDBRANCH   6   9
TORSDOF 2
ENDMDL
