REMARK  Name = *****
REMARK  3 active torsions:
REMARK  status: ('A' for Active; 'I' for Inactive)
REMARK    1  A    between atoms: C_2  and  C_3
REMARK    2  A    between atoms: C_4  and  C_8
REMARK    3  A    between atoms: C_9  and  C_10
REMARK                            x       y       z     vdW  Elec       q    Type
REMARK                         _______ _______ _______ _____ _____    ______ ____
ROOT
ATOM      1  C   UNL     1       3.866   0.067   0.007  0.00  0.00    +0.000 A 
ATOM      2  C   UNL     1       4.604   1.235   0.001  0.00  0.00    +0.000 A 
ATOM      3  S   UNL     1       6.288   0.918   0.000  0.00  0.00    +0.000 S 
ATOM      4  C   UNL     1       6.037  -0.773   0.007  0.00  0.00    +0.000 A 
ATOM      5  C   UNL     1       4.697  -1.094   0.010  0.00  0.00    +0.000 A 
ENDROOT
BRANCH   1   7
ATOM      6  C   UNL     1       1.234  -0.026   0.011  0.00  0.00    +0.000 C 
ATOM      7  C   UNL     1       2.434   0.017   0.009  0.00  0.00    +0.000 C 
ENDBRANCH   1   7
BRANCH   2   8
ATOM      8  C   UNL     1       4.080   2.564  -0.003  0.00  0.00    +0.000 C 
ATOM      9  C   UNL     1       3.638   3.681  -0.005  0.00  0.00    +0.000 C 
BRANCH   9  10
ATOM     10  C   UNL     1       3.093   5.041  -0.008  0.00  0.00    +0.000 C 
ATOM     11  C   UNL     1       4.062   6.063  -0.600  0.00  0.00    +0.000 C 
ATOM     12  C   UNL     1       3.683   7.400   0.038  0.00  0.00    +0.000 C 
ATOM     13  C   UNL     1       2.721   7.077   1.179  0.00  0.00    +0.000 C 
ATOM     14  C   UNL     1       2.854   5.577   1.400  0.00  0.00    +0.000 C 
ENDBRANCH   9  10
ENDBRANCH   2   8
TORSDOF 3
