MODEL 1
REMARK VINA RESULT:      -4.7      0.000      0.000
REMARK  Name = *****
REMARK  4 active torsions:
REMARK  status: ('A' for Active; 'I' for Inactive)
REMARK    1  A    between atoms: C_3  and  C_4
REMARK    2  A    between atoms: C_7  and  O_10
REMARK    3  A    between atoms: O_10  and  C_11
REMARK    4  A    between atoms: C_11  and  C_12
REMARK                            x       y       z     vdW  Elec       q    Type
REMARK                         _______ _______ _______ _____ _____    ______ ____
ROOT
ATOM      1  C   UNL     1     104.642 123.250  81.469  0.00  0.00    +0.000 A 
ATOM      2  C   UNL     1     104.205 123.824  82.671  0.00  0.00    +0.000 A 
ATOM      3  C   UNL     1     103.676 125.117  82.709  0.00  0.00    +0.000 A 
ATOM      4  C   UNL     1     103.575 125.879  81.546  0.00  0.00    +0.000 A 
ATOM      5  C   UNL     1     103.999 125.328  80.339  0.00  0.00    +0.000 A 
ATOM      6  C   UNL     1     104.531 124.032  80.307  0.00  0.00    +0.000 A 
ENDROOT
BRANCH   1   9
ATOM      7  C   UNL     1     104.354 120.654  81.275  0.00  0.00    +0.000 C 
ATOM      8  C   UNL     1     105.026 120.917  82.587  0.00  0.00    +0.000 C 
ATOM      9  C   UNL     1     105.243 121.866  81.432  0.00  0.00    +0.000 C 
ENDBRANCH   1   9
BRANCH   4  10
ATOM     10  O   UNL     1     103.052 127.129  81.724  0.00  0.00    +0.000 OA
BRANCH  10  11
ATOM     11  C   UNL     1     102.615 127.467  83.038  0.00  0.00    +0.000 C 
BRANCH  11  12
ATOM     12  C   UNL     1     101.120 127.674  82.998  0.00  0.00    +0.000 A 
ATOM     13  C   UNL     1     100.546 128.836  83.529  0.00  0.00    +0.000 A 
ATOM     14  C   UNL     1      99.162 129.019  83.503  0.00  0.00    +0.000 A 
ATOM     15  C   UNL     1      98.339 128.037  82.954  0.00  0.00    +0.000 A 
ATOM     16  C   UNL     1      98.898 126.871  82.435  0.00  0.00    +0.000 A 
ATOM     17  C   UNL     1     100.281 126.687  82.460  0.00  0.00    +0.000 A 
ENDBRANCH  11  12
ENDBRANCH  10  11
ENDBRANCH   4  10
TORSDOF 4
ENDMDL
