MODEL 1
REMARK VINA RESULT:      -4.3      0.000      0.000
REMARK  Name = *****
REMARK  4 active torsions:
REMARK  status: ('A' for Active; 'I' for Inactive)
REMARK    1  A    between atoms: C_1  and  C_2
REMARK    2  A    between atoms: C_2  and  C_12
REMARK    3  A    between atoms: C_3  and  C_5
REMARK    4  A    between atoms: C_3  and  C_6
REMARK                            x       y       z     vdW  Elec       q    Type
REMARK                         _______ _______ _______ _____ _____    ______ ____
ROOT
ATOM      1  C   UNL     1     103.502 127.280  80.574  0.00  0.00    +0.000 C 
ATOM      2  C   UNL     1     103.217 126.865  81.995  0.00  0.00    +0.000 C 
ATOM      3  C   UNL     1     103.963 125.675  82.641  0.00  0.00    +0.000 C 
ATOM      4  O   UNL     1     104.361 127.040  82.848  0.00  0.00    +0.000 OA
ATOM      5  C   UNL     1     103.454 125.035  83.907  0.00  0.00    +0.000 C 
ENDROOT
BRANCH   3   6
ATOM      6  C   UNL     1     104.852 124.796  81.784  0.00  0.00    +0.000 A 
ATOM      7  C   UNL     1     106.229 125.050  81.657  0.00  0.00    +0.000 A 
ATOM      8  C   UNL     1     107.050 124.236  80.873  0.00  0.00    +0.000 A 
ATOM      9  C   UNL     1     106.509 123.146  80.197  0.00  0.00    +0.000 A 
ATOM     10  C   UNL     1     105.148 122.870  80.308  0.00  0.00    +0.000 A 
ATOM     11  C   UNL     1     104.332 123.686  81.096  0.00  0.00    +0.000 A 
ENDBRANCH   3   6
BRANCH   2  12
ATOM     12  C   UNL     1     101.861 127.277  82.532  0.00  0.00    +0.000 A 
ATOM     13  C   UNL     1     101.706 128.415  83.340  0.00  0.00    +0.000 A 
ATOM     14  C   UNL     1     100.455 128.799  83.829  0.00  0.00    +0.000 A 
ATOM     15  C   UNL     1      99.326 128.048  83.514  0.00  0.00    +0.000 A 
ATOM     16  C   UNL     1      99.449 126.917  82.711  0.00  0.00    +0.000 A 
ATOM     17  C   UNL     1     100.703 126.539  82.225  0.00  0.00    +0.000 A 
ENDBRANCH   2  12
TORSDOF 2
ENDMDL
