MODEL 1
REMARK VINA RESULT:      -3.9      0.000      0.000
REMARK  Name = *****
REMARK  4 active torsions:
REMARK  status: ('A' for Active; 'I' for Inactive)
REMARK    1  A    between atoms: C_5  and  C_7
REMARK    2  A    between atoms: C_7  and  O_8
REMARK    3  A    between atoms: O_8  and  C_9
REMARK    4  A    between atoms: C_9  and  C_11
REMARK                            x       y       z     vdW  Elec       q    Type
REMARK                         _______ _______ _______ _____ _____    ______ ____
ROOT
ATOM      1  O   UNL     1      87.406  63.112  87.023  0.00  0.00    +0.000 OA
ENDROOT
BRANCH   1   2
ATOM      2  C   UNL     1      86.078  62.901  86.851  0.00  0.00    +0.000 C 
ATOM      3  O   UNL     1      85.451  63.094  85.822  0.00  0.00    +0.000 OA
BRANCH   2   4
ATOM      4  C   UNL     1      85.460  62.402  88.110  0.00  0.00    +0.000 A 
ATOM      5  C   UNL     1      86.129  61.535  88.985  0.00  0.00    +0.000 A 
ATOM      6  C   UNL     1      85.502  61.098  90.155  0.00  0.00    +0.000 A 
ATOM      7  C   UNL     1      84.207  61.520  90.455  0.00  0.00    +0.000 A 
ATOM      8  C   UNL     1      83.535  62.380  89.588  0.00  0.00    +0.000 A 
ATOM      9  C   UNL     1      84.158  62.820  88.418  0.00  0.00    +0.000 A 
ENDBRANCH   2   4
ENDBRANCH   1   2
BRANCH   1  10
ATOM     10  C   UNL     1      87.812  64.492  87.107  0.00  0.00    +0.000 C 
BRANCH  10  15
ATOM     11  C   UNL     1      88.878  63.936  90.789  0.00  0.00    +0.000 C 
ATOM     12  C   UNL     1      87.484  64.140  91.386  0.00  0.00    +0.000 C 
ATOM     13  C   UNL     1      86.617  65.036  90.553  0.00  0.00    +0.000 C 
ATOM     14  C   UNL     1      86.917  65.387  89.292  0.00  0.00    +0.000 C 
ATOM     15  C   UNL     1      88.146  64.891  88.557  0.00  0.00    +0.000 C 
ATOM     16  C   UNL     1      88.804  63.702  89.282  0.00  0.00    +0.000 C 
ENDBRANCH  10  15
ENDBRANCH   1  10
TORSDOF 4
ENDMDL
