REMARK  Name = *****
REMARK  4 active torsions:
REMARK  status: ('A' for Active; 'I' for Inactive)
REMARK    1  A    between atoms: C_2  and  C_3
REMARK    2  A    between atoms: C_2  and  O_10
REMARK    3  A    between atoms: C_3  and  C_4
REMARK    4  A    between atoms: O_10  and  C_11
REMARK                            x       y       z     vdW  Elec       q    Type
REMARK                         _______ _______ _______ _____ _____    ______ ____
ROOT
ATOM      1  C   UNL     1       1.198  -0.389   0.268  0.00  0.00    +0.000 C 
ATOM      2  C   UNL     1       2.503  -0.104   0.123  0.00  0.00    +0.000 C 
ENDROOT
BRANCH   2   3
ATOM      3  C   UNL     1       3.247   0.818   1.057  0.00  0.00    +0.000 C 
BRANCH   3   4
ATOM      4  C   UNL     1       3.530   2.172   0.447  0.00  0.00    +0.000 A 
ATOM      5  C   UNL     1       2.639   3.238   0.634  0.00  0.00    +0.000 A 
ATOM      6  C   UNL     1       2.890   4.481   0.052  0.00  0.00    +0.000 A 
ATOM      7  C   UNL     1       4.029   4.670  -0.728  0.00  0.00    +0.000 A 
ATOM      8  C   UNL     1       4.917   3.615  -0.929  0.00  0.00    +0.000 A 
ATOM      9  C   UNL     1       4.669   2.371  -0.347  0.00  0.00    +0.000 A 
ENDBRANCH   3   4
ENDBRANCH   2   3
BRANCH   2  10
ATOM     10  O   UNL     1       3.313  -0.742  -0.811  0.00  0.00    +0.000 OA
BRANCH  10  11
ATOM     11  C   UNL     1       2.895  -0.791  -2.121  0.00  0.00    +0.000 A 
ATOM     12  C   UNL     1       2.381   0.319  -2.794  0.00  0.00    +0.000 A 
ATOM     13  C   UNL     1       2.014   0.208  -4.136  0.00  0.00    +0.000 A 
ATOM     14  C   UNL     1       2.173  -1.006  -4.806  0.00  0.00    +0.000 A 
ATOM     15  C   UNL     1       2.707  -2.109  -4.138  0.00  0.00    +0.000 A 
ATOM     16  C   UNL     1       3.075  -1.999  -2.796  0.00  0.00    +0.000 A 
ENDBRANCH  10  11
ENDBRANCH   2  10
TORSDOF 4
