REMARK  Name = *****
REMARK  3 active torsions:
REMARK  status: ('A' for Active; 'I' for Inactive)
REMARK    1  A    between atoms: C_4  and  C_7
REMARK    2  A    between atoms: C_7  and  O_8
REMARK    3  A    between atoms: O_8  and  C_9
REMARK                            x       y       z     vdW  Elec       q    Type
REMARK                         _______ _______ _______ _____ _____    ______ ____
ROOT
ATOM      1  O   UNL     1      -3.559  -0.834  -0.341  0.00  0.00    +0.000 OA
ENDROOT
BRANCH   1   2
ATOM      2  C   UNL     1      -4.927  -0.753  -0.488  0.00  0.00    +0.000 A 
ATOM      3  N   UNL     1      -5.527   0.452  -0.558  0.00  0.00    +0.000 NA
ATOM      4  C   UNL     1      -6.866   0.443  -0.703  0.00  0.00    +0.000 A 
ATOM      5  C   UNL     1      -7.645  -0.695  -0.781  0.00  0.00    +0.000 A 
ATOM      6  C   UNL     1      -6.987  -1.915  -0.704  0.00  0.00    +0.000 A 
ATOM      7  C   UNL     1      -5.606  -1.958  -0.556  0.00  0.00    +0.000 A 
ATOM      8  I   UNL     1      -8.070  -3.683  -0.811  0.00  0.00    +0.000 I 
ATOM      9 CL   UNL     1      -7.579   2.001  -0.789  0.00  0.00    +0.000 Cl
ENDBRANCH   1   2
BRANCH   1  10
ATOM     10  C   UNL     1      -2.923   0.443  -0.269  0.00  0.00    +0.000 C 
BRANCH  10  14
ATOM     11  C   UNL     1       1.313  -0.202   0.253  0.00  0.00    +0.000 A 
ATOM     12  C   UNL     1       0.837   0.372  -0.924  0.00  0.00    +0.000 A 
ATOM     13  C   UNL     1      -0.533   0.581  -1.098  0.00  0.00    +0.000 A 
ATOM     14  C   UNL     1      -1.440   0.218  -0.092  0.00  0.00    +0.000 A 
ATOM     15  C   UNL     1      -0.949  -0.362   1.087  0.00  0.00    +0.000 A 
ATOM     16  C   UNL     1       0.421  -0.570   1.259  0.00  0.00    +0.000 A 
ENDBRANCH  10  14
ENDBRANCH   1  10
TORSDOF 3
