MODEL 1
REMARK VINA RESULT:      -4.7      0.000      0.000
REMARK  Name = *****
REMARK  2 active torsions:
REMARK  status: ('A' for Active; 'I' for Inactive)
REMARK    1  A    between atoms: C_4  and  C_7
REMARK    2  A    between atoms: N_8  and  C_9
REMARK                            x       y       z     vdW  Elec       q    Type
REMARK                         _______ _______ _______ _____ _____    ______ ____
ROOT
ATOM      1  C   UNL     1     101.644 125.906  82.361  0.00  0.00    +0.000 C 
ATOM      2  N   UNL     1     102.930 125.930  82.518  0.00  0.00    +0.000 NA
ENDROOT
BRANCH   2   3
ATOM      3  C   UNL     1     103.659 124.795  82.119  0.00  0.00    +0.000 A 
ATOM      4  C   UNL     1     104.046 124.542  80.791  0.00  0.00    +0.000 A 
ATOM      5  C   UNL     1     104.796 123.420  80.453  0.00  0.00    +0.000 A 
ATOM      6  C   UNL     1     105.178 122.542  81.456  0.00  0.00    +0.000 A 
ATOM      7  C   UNL     1     104.825 122.769  82.783  0.00  0.00    +0.000 A 
ATOM      8  C   UNL     1     104.071 123.898  83.111  0.00  0.00    +0.000 A 
ATOM      9  F   UNL     1     105.902 121.459  81.144  0.00  0.00    +0.000 F 
ATOM     10  F   UNL     1     103.687 125.386  79.811  0.00  0.00    +0.000 F 
ENDBRANCH   2   3
BRANCH   1  14
ATOM     11  C   UNL     1      99.220 129.235  83.465  0.00  0.00    +0.000 A 
ATOM     12  C   UNL     1      98.633 128.132  82.844  0.00  0.00    +0.000 A 
ATOM     13  C   UNL     1      99.417 127.037  82.480  0.00  0.00    +0.000 A 
ATOM     14  C   UNL     1     100.790 127.050  82.738  0.00  0.00    +0.000 A 
ATOM     15  C   UNL     1     101.380 128.154  83.361  0.00  0.00    +0.000 A 
ATOM     16  C   UNL     1     100.591 129.247  83.724  0.00  0.00    +0.000 A 
ENDBRANCH   1  14
TORSDOF 2
ENDMDL
