REMARK  Name = *****
REMARK  3 active torsions:
REMARK  status: ('A' for Active; 'I' for Inactive)
REMARK    1  A    between atoms: C_5  and  C_7
REMARK    2  A    between atoms: C_7  and  C_8
REMARK    3  A    between atoms: C_8  and  C_9
REMARK                            x       y       z     vdW  Elec       q    Type
REMARK                         _______ _______ _______ _____ _____    ______ ____
ROOT
ATOM      1  C   UNL     1       4.229   1.266  -2.339  0.00  0.00    +0.000 C 
ENDROOT
BRANCH   1   6
ATOM      2  C   UNL     1       5.163   4.322   1.157  0.00  0.00    +0.000 C 
ATOM      3  C   UNL     1       4.766   3.244   0.474  0.00  0.00    +0.000 C 
ATOM      4  C   UNL     1       3.345   2.790   0.328  0.00  0.00    +0.000 C 
ATOM      5  C   UNL     1       3.435   1.285   0.087  0.00  0.00    +0.000 C 
ATOM      6  C   UNL     1       4.602   1.016  -0.871  0.00  0.00    +0.000 C 
ATOM      7  S   UNL     1       5.905   2.169  -0.285  0.00  0.00    +0.000 S 
ENDBRANCH   1   6
BRANCH   1   8
ATOM      8  C   UNL     1       5.346   0.877  -3.315  0.00  0.00    +0.000 C 
BRANCH   8   9
ATOM      9  C   UNL     1       4.909   1.058  -4.749  0.00  0.00    +0.000 A 
ATOM     10  C   UNL     1       5.059   2.299  -5.382  0.00  0.00    +0.000 A 
ATOM     11  C   UNL     1       4.638   2.475  -6.701  0.00  0.00    +0.000 A 
ATOM     12  C   UNL     1       4.060   1.416  -7.397  0.00  0.00    +0.000 A 
ATOM     13  C   UNL     1       3.900   0.179  -6.774  0.00  0.00    +0.000 A 
ATOM     14  C   UNL     1       4.320   0.000  -5.455  0.00  0.00    +0.000 A 
ENDBRANCH   8   9
ENDBRANCH   1   8
TORSDOF 3
