MODEL 1
REMARK VINA RESULT:      -4.9      0.000      0.000
REMARK  Name = *****
REMARK  2 active torsions:
REMARK  status: ('A' for Active; 'I' for Inactive)
REMARK    1  A    between atoms: C_3  and  C_8
REMARK    2  A    between atoms: C_9  and  C_10
REMARK                            x       y       z     vdW  Elec       q    Type
REMARK                         _______ _______ _______ _____ _____    ______ ____
ROOT
ATOM      1  C   UNL     1     101.991 125.940  82.608  0.00  0.00    +0.000 C 
ATOM      2  C   UNL     1     102.760 125.886  81.509  0.00  0.00    +0.000 C 
ENDROOT
BRANCH   1   5
ATOM      3  C   UNL     1      98.668 127.718  82.603  0.00  0.00    +0.000 A 
ATOM      4  C   UNL     1      99.660 126.748  82.421  0.00  0.00    +0.000 A 
ATOM      5  C   UNL     1     100.977 126.977  82.850  0.00  0.00    +0.000 A 
ATOM      6  C   UNL     1     101.288 128.207  83.441  0.00  0.00    +0.000 A 
ATOM      7  C   UNL     1     100.295 129.165  83.617  0.00  0.00    +0.000 A 
ATOM      8  C   UNL     1      98.988 128.931  83.207  0.00  0.00    +0.000 A 
ATOM      9  F   UNL     1     100.605 130.337  84.188  0.00  0.00    +0.000 F 
ENDBRANCH   1   5
BRANCH   2  10
ATOM     10  C   UNL     1     103.786 124.858  81.278  0.00  0.00    +0.000 A 
ATOM     11  C   UNL     1     104.489 124.761  80.070  0.00  0.00    +0.000 A 
ATOM     12  C   UNL     1     105.480 123.790  79.899  0.00  0.00    +0.000 A 
ATOM     13  C   UNL     1     105.780 122.916  80.941  0.00  0.00    +0.000 A 
ATOM     14  C   UNL     1     105.102 123.009  82.154  0.00  0.00    +0.000 A 
ATOM     15  C   UNL     1     104.111 123.982  82.323  0.00  0.00    +0.000 A 
ATOM     16 CL   UNL     1     106.998 121.720  80.732  0.00  0.00    +0.000 Cl
ENDBRANCH   2  10
TORSDOF 2
ENDMDL
