REMARK  Name = *****
REMARK  4 active torsions:
REMARK  status: ('A' for Active; 'I' for Inactive)
REMARK    1  A    between atoms: C_1  and  C_2
REMARK    2  A    between atoms: C_2  and  C_3
REMARK    3  A    between atoms: C_2  and  N_9
REMARK    4  A    between atoms: C_10  and  C_12
REMARK                            x       y       z     vdW  Elec       q    Type
REMARK                         _______ _______ _______ _____ _____    ______ ____
ROOT
ATOM      1  N   UNL     1       3.100   0.309  -1.289  0.00  0.00    +0.000 NA
ATOM      2  C   UNL     1       4.431   0.855  -1.022  0.00  0.00    +0.000 C 
ATOM      3  O   UNL     1       3.260   1.648  -0.765  0.00  0.00    +0.000 OA
ENDROOT
BRANCH   2   4
ATOM      4  C   UNL     1       5.274   1.229  -2.213  0.00  0.00    +0.000 A 
ATOM      5  C   UNL     1       5.778   2.533  -2.370  0.00  0.00    +0.000 A 
ATOM      6  C   UNL     1       6.578   2.880  -3.463  0.00  0.00    +0.000 A 
ATOM      7  C   UNL     1       6.889   1.922  -4.422  0.00  0.00    +0.000 A 
ATOM      8  C   UNL     1       6.409   0.622  -4.296  0.00  0.00    +0.000 A 
ATOM      9  C   UNL     1       5.611   0.283  -3.199  0.00  0.00    +0.000 A 
ATOM     10 CL   UNL     1       7.873   2.345  -5.768  0.00  0.00    +0.000 Cl
ENDBRANCH   2   4
BRANCH   1  12
ATOM     11  C   UNL     1       2.757  -1.954  -0.455  0.00  0.00    +0.000 C 
ATOM     12  C   UNL     1       2.526  -0.465  -0.173  0.00  0.00    +0.000 C 
BRANCH  12  13
ATOM     13  C   UNL     1       1.033  -0.204   0.000  0.00  0.00    +0.000 A 
ATOM     14  C   UNL     1       0.155  -0.206  -1.096  0.00  0.00    +0.000 A 
ATOM     15  C   UNL     1      -1.212   0.015  -0.916  0.00  0.00    +0.000 A 
ATOM     16  C   UNL     1      -1.720   0.237   0.361  0.00  0.00    +0.000 A 
ATOM     17  C   UNL     1      -0.864   0.239   1.460  0.00  0.00    +0.000 A 
ATOM     18  C   UNL     1       0.504   0.019   1.282  0.00  0.00    +0.000 A 
ENDBRANCH  12  13
ENDBRANCH   1  12
TORSDOF 3
