REMARK  Name = *****
REMARK  6 active torsions:
REMARK  status: ('A' for Active; 'I' for Inactive)
REMARK    1  A    between atoms: C_1  and  O_2
REMARK    2  A    between atoms: O_2  and  N_3
REMARK    3  A    between atoms: N_3  and  C_4
REMARK    4  A    between atoms: C_4  and  C_5
REMARK    5  A    between atoms: C_10  and  C_11
REMARK    6  A    between atoms: C_12  and  C_13
REMARK                            x       y       z     vdW  Elec       q    Type
REMARK                         _______ _______ _______ _____ _____    ______ ____
ROOT
ATOM      1  C   UNL     1       5.090   2.002   1.558  0.00  0.00    +0.000 A 
ATOM      2  C   UNL     1       4.638   2.252   2.863  0.00  0.00    +0.000 A 
ATOM      3  C   UNL     1       5.354   3.102   3.709  0.00  0.00    +0.000 A 
ATOM      4  C   UNL     1       6.524   3.706   3.257  0.00  0.00    +0.000 A 
ATOM      5  C   UNL     1       6.979   3.463   1.960  0.00  0.00    +0.000 A 
ATOM      6  C   UNL     1       6.267   2.613   1.101  0.00  0.00    +0.000 A 
ENDROOT
BRANCH   6   7
ATOM      7  C   UNL     1       6.783   2.421  -0.223  0.00  0.00    +0.000 C 
ATOM      8  C   UNL     1       7.234   2.295  -1.330  0.00  0.00    +0.000 C 
BRANCH   8   9
ATOM      9  C   UNL     1       7.781   2.175  -2.646  0.00  0.00    +0.000 A 
ATOM     10  C   UNL     1       8.976   2.825  -2.965  0.00  0.00    +0.000 A 
ATOM     11  C   UNL     1       9.507   2.721  -4.252  0.00  0.00    +0.000 A 
ATOM     12  C   UNL     1       8.844   1.967  -5.221  0.00  0.00    +0.000 A 
ATOM     13  C   UNL     1       7.652   1.316  -4.903  0.00  0.00    +0.000 A 
ATOM     14  C   UNL     1       7.119   1.419  -3.616  0.00  0.00    +0.000 A 
ENDBRANCH   8   9
ENDBRANCH   6   7
BRANCH   1  15
ATOM     15  C   UNL     1       4.307   1.092   0.692  0.00  0.00    +0.000 C 
BRANCH  15  16
ATOM     16  N   UNL     1       3.203   0.544   1.096  0.00  0.00    +0.000 NA
BRANCH  16  18
ATOM     17  C   UNL     1       1.475  -0.842   0.518  0.00  0.00    +0.000 C 
ATOM     18  O   UNL     1       2.695  -0.265   0.069  0.00  0.00    +0.000 OA
ENDBRANCH  16  18
ENDBRANCH  15  16
ENDBRANCH   1  15
TORSDOF 5
