MODEL 1
REMARK VINA RESULT:      -4.6      0.000      0.000
REMARK  Name = *****
REMARK  5 active torsions:
REMARK  status: ('A' for Active; 'I' for Inactive)
REMARK    1  A    between atoms: C_1  and  C_2
REMARK    2  A    between atoms: C_3  and  C_16
REMARK    3  A    between atoms: N_4  and  C_8
REMARK    4  A    between atoms: C_6  and  C_7
REMARK    5  A    between atoms: C_9  and  C_10
REMARK                            x       y       z     vdW  Elec       q    Type
REMARK                         _______ _______ _______ _____ _____    ______ ____
ROOT
ATOM      1  C   UNL     1     100.474 129.615  84.077  0.00  0.00    +0.000 C 
ATOM      2  C   UNL     1     100.720 128.337  83.366  0.00  0.00    +0.000 A 
ATOM      3  C   UNL     1     101.940 127.764  83.054  0.00  0.00    +0.000 A 
ATOM      4  N   UNL     1     101.684 126.563  82.385  0.00  0.00    +0.000 N 
ATOM      5  N   UNL     1     100.339 126.380  82.269  0.00  0.00    +0.000 NA
ATOM      6  C   UNL     1      99.767 127.432  82.850  0.00  0.00    +0.000 A 
ATOM      7  C   UNL     1      98.287 127.537  82.893  0.00  0.00    +0.000 C 
ATOM      8  C   UNL     1     103.317 128.257  83.338  0.00  0.00    +0.000 C 
ENDROOT
BRANCH   4   9
ATOM      9  C   UNL     1     102.659 125.672  81.903  0.00  0.00    +0.000 C 
ATOM     10  C   UNL     1     103.185 125.704  80.665  0.00  0.00    +0.000 C 
BRANCH  10  11
ATOM     11  C   UNL     1     104.235 124.784  80.081  0.00  0.00    +0.000 C 
ATOM     12  C   UNL     1     104.452 123.587  81.024  0.00  0.00    +0.000 C 
ATOM     13  C   UNL     1     105.460 122.590  80.455  0.00  0.00    +0.000 C 
ATOM     14  C   UNL     1     106.785 123.260  80.107  0.00  0.00    +0.000 C 
ATOM     15  C   UNL     1     106.580 124.446  79.171  0.00  0.00    +0.000 C 
ATOM     16  C   UNL     1     105.581 125.450  79.745  0.00  0.00    +0.000 C 
ENDBRANCH  10  11
ENDBRANCH   4   9
TORSDOF 2
ENDMDL
