MODEL 1
REMARK VINA RESULT:      -4.3      0.000      0.000
REMARK  Name = *****
REMARK  2 active torsions:
REMARK  status: ('A' for Active; 'I' for Inactive)
REMARK    1  A    between atoms: C_4  and  C_7
REMARK    2  A    between atoms: C_8  and  C_11
REMARK                            x       y       z     vdW  Elec       q    Type
REMARK                         _______ _______ _______ _____ _____    ______ ____
ROOT
ATOM      1  C   UNL     1     102.454 125.700  81.609  0.00  0.00    +0.000 C 
ATOM      2  C   UNL     1     102.376 127.034  81.593  0.00  0.00    +0.000 C 
ATOM      3  C   UNL     1     101.583 126.325  82.555  0.00  0.00    +0.000 C 
ATOM      4  F   UNL     1     100.220 126.242  82.343  0.00  0.00    +0.000 F 
ENDROOT
BRANCH   1   8
ATOM      5  C   UNL     1     105.980 123.323  81.667  0.00  0.00    +0.000 A 
ATOM      6  C   UNL     1     105.418 123.692  80.446  0.00  0.00    +0.000 A 
ATOM      7  C   UNL     1     104.261 124.473  80.415  0.00  0.00    +0.000 A 
ATOM      8  C   UNL     1     103.655 124.889  81.607  0.00  0.00    +0.000 A 
ATOM      9  C   UNL     1     104.230 124.518  82.828  0.00  0.00    +0.000 A 
ATOM     10  C   UNL     1     105.387 123.736  82.858  0.00  0.00    +0.000 A 
ENDBRANCH   1   8
BRANCH   2  11
ATOM     11  C   UNL     1     103.494 127.957  81.577  0.00  0.00    +0.000 A 
ATOM     12  C   UNL     1     104.150 128.200  80.365  0.00  0.00    +0.000 A 
ATOM     13  C   UNL     1     105.232 129.082  80.309  0.00  0.00    +0.000 A 
ATOM     14  C   UNL     1     105.663 129.731  81.465  0.00  0.00    +0.000 A 
ATOM     15  C   UNL     1     105.014 129.499  82.675  0.00  0.00    +0.000 A 
ATOM     16  C   UNL     1     103.932 128.617  82.732  0.00  0.00    +0.000 A 
ENDBRANCH   2  11
TORSDOF 2
ENDMDL
