MODEL 1
REMARK VINA RESULT:      -3.9      0.000      0.000
REMARK  Name = *****
REMARK  4 active torsions:
REMARK  status: ('A' for Active; 'I' for Inactive)
REMARK    1  A    between atoms: C_1  and  C_2
REMARK    2  A    between atoms: C_5  and  S_8
REMARK    3  A    between atoms: S_8  and  S_9
REMARK    4  A    between atoms: S_9  and  C_10
REMARK                            x       y       z     vdW  Elec       q    Type
REMARK                         _______ _______ _______ _____ _____    ______ ____
ROOT
ATOM      1  C   UNL     1      83.254  73.023  85.941  0.00  0.00    +0.000 C 
ATOM      2  C   UNL     1      84.434  72.380  86.607  0.00  0.00    +0.000 A 
ATOM      3  C   UNL     1      84.504  72.285  88.002  0.00  0.00    +0.000 A 
ATOM      4  C   UNL     1      85.617  71.707  88.618  0.00  0.00    +0.000 A 
ATOM      5  C   UNL     1      86.676  71.220  87.847  0.00  0.00    +0.000 A 
ATOM      6  C   UNL     1      86.618  71.332  86.455  0.00  0.00    +0.000 A 
ATOM      7  C   UNL     1      85.506  71.912  85.839  0.00  0.00    +0.000 A 
ENDROOT
BRANCH   5   8
ATOM      8  S   UNL     1      88.102  70.468  88.608  0.00  0.00    +0.000 S 
BRANCH   8   9
ATOM      9  S   UNL     1      89.354  70.219  86.992  0.00  0.00    +0.000 S 
BRANCH   9  10
ATOM     10  C   UNL     1      89.285  68.475  86.784  0.00  0.00    +0.000 A 
ATOM     11  N   UNL     1      90.316  67.748  86.406  0.00  0.00    +0.000 NA
ATOM     12  C   UNL     1      89.945  66.419  86.331  0.00  0.00    +0.000 A 
ATOM     13  C   UNL     1      88.638  66.145  86.665  0.00  0.00    +0.000 A 
ATOM     14  S   UNL     1      87.837  67.599  87.091  0.00  0.00    +0.000 S 
ENDBRANCH   9  10
ENDBRANCH   8   9
ENDBRANCH   5   8
TORSDOF 3
ENDMDL
