MODEL 1
REMARK VINA RESULT:      -4.5      0.000      0.000
REMARK  Name = *****
REMARK  4 active torsions:
REMARK  status: ('A' for Active; 'I' for Inactive)
REMARK    1  A    between atoms: C_1  and  C_2
REMARK    2  A    between atoms: C_5  and  S_8
REMARK    3  A    between atoms: S_8  and  C_10
REMARK    4  A    between atoms: C_10  and  C_11
REMARK                            x       y       z     vdW  Elec       q    Type
REMARK                         _______ _______ _______ _____ _____    ______ ____
ROOT
ATOM      1  S   UNL     1      88.729  70.491  86.925  0.00  0.00    +0.000 S 
ATOM      2  O   UNL     1      89.984  70.889  86.200  0.00  0.00    +0.000 OA
ENDROOT
BRANCH   1   7
ATOM      3  C   UNL     1      88.931  64.379  86.995  0.00  0.00    +0.000 C 
ATOM      4  C   UNL     1      88.861  65.877  86.955  0.00  0.00    +0.000 A 
ATOM      5  C   UNL     1      89.898  66.618  86.376  0.00  0.00    +0.000 A 
ATOM      6  C   UNL     1      89.847  68.014  86.360  0.00  0.00    +0.000 A 
ATOM      7  C   UNL     1      88.769  68.685  86.945  0.00  0.00    +0.000 A 
ATOM      8  C   UNL     1      87.729  67.949  87.520  0.00  0.00    +0.000 A 
ATOM      9  C   UNL     1      87.781  66.553  87.535  0.00  0.00    +0.000 A 
ENDBRANCH   1   7
BRANCH   1  10
ATOM     10  C   UNL     1      87.317  70.714  85.756  0.00  0.00    +0.000 C 
ATOM     11 CL   UNL     1      87.732  71.970  84.537  0.00  0.00    +0.000 Cl
BRANCH  10  12
ATOM     12  C   UNL     1      85.984  71.034  86.478  0.00  0.00    +0.000 C 
ATOM     13  C   UNL     1      85.164  72.086  85.702  0.00  0.00    +0.000 C 
ATOM     14  C   UNL     1      83.813  72.349  86.367  0.00  0.00    +0.000 C 
ATOM     15  C   UNL     1      83.976  72.760  87.826  0.00  0.00    +0.000 C 
ATOM     16  C   UNL     1      84.795  71.738  88.607  0.00  0.00    +0.000 C 
ATOM     17  C   UNL     1      86.149  71.473  87.948  0.00  0.00    +0.000 C 
ENDBRANCH  10  12
ENDBRANCH   1  10
TORSDOF 3
ENDMDL
