MODEL 1
REMARK VINA RESULT:      -4.5      0.000      0.000
REMARK  Name = *****
REMARK  4 active torsions:
REMARK  status: ('A' for Active; 'I' for Inactive)
REMARK    1  A    between atoms: C_1  and  C_2
REMARK    2  A    between atoms: C_2  and  C_3
REMARK    3  A    between atoms: C_2  and  O_9
REMARK    4  A    between atoms: O_9  and  C_10
REMARK                            x       y       z     vdW  Elec       q    Type
REMARK                         _______ _______ _______ _____ _____    ______ ____
ROOT
ATOM      1  C   UNL     1     103.380 128.581  83.068  0.00  0.00    +0.000 C 
ATOM      2  C   UNL     1     102.603 127.281  82.857  0.00  0.00    +0.000 C 
ENDROOT
BRANCH   2   3
ATOM      3  C   UNL     1     101.108 127.562  82.937  0.00  0.00    +0.000 A 
ATOM      4  C   UNL     1     100.164 126.673  82.399  0.00  0.00    +0.000 A 
ATOM      5  C   UNL     1      98.798 126.959  82.462  0.00  0.00    +0.000 A 
ATOM      6  C   UNL     1      98.360 128.141  83.055  0.00  0.00    +0.000 A 
ATOM      7  C   UNL     1      99.285 129.038  83.585  0.00  0.00    +0.000 A 
ATOM      8  C   UNL     1     100.650 128.752  83.525  0.00  0.00    +0.000 A 
ENDBRANCH   2   3
BRANCH   2   9
ATOM      9  O   UNL     1     102.899 126.740  81.562  0.00  0.00    +0.000 OA
BRANCH   9  10
ATOM     10  C   UNL     1     103.548 125.544  81.460  0.00  0.00    +0.000 A 
ATOM     11  C   UNL     1     104.089 124.985  80.302  0.00  0.00    +0.000 A 
ATOM     12  C   UNL     1     104.725 123.738  80.352  0.00  0.00    +0.000 A 
ATOM     13  C   UNL     1     104.817 123.049  81.560  0.00  0.00    +0.000 A 
ATOM     14  C   UNL     1     104.276 123.596  82.719  0.00  0.00    +0.000 A 
ATOM     15  C   UNL     1     103.643 124.840  82.665  0.00  0.00    +0.000 A 
ATOM     16 CL   UNL     1     105.598 121.518  81.615  0.00  0.00    +0.000 Cl
ENDBRANCH   9  10
ENDBRANCH   2   9
TORSDOF 3
ENDMDL
