MODEL 1
REMARK VINA RESULT:      -5.1      0.000      0.000
REMARK  Name = *****
REMARK  6 active torsions:
REMARK  status: ('A' for Active; 'I' for Inactive)
REMARK    1  A    between atoms: C_1  and  C_2
REMARK    2  A    between atoms: C_4  and  C_8
REMARK    3  A    between atoms: C_8  and  S_9
REMARK    4  A    between atoms: S_9  and  C_11
REMARK    5  A    between atoms: C_13  and  C_18
REMARK    6  A    between atoms: C_15  and  C_17
REMARK                            x       y       z     vdW  Elec       q    Type
REMARK                         _______ _______ _______ _____ _____    ______ ____
ROOT
ATOM      1  S   UNL     1      88.527  70.232  86.140  0.00  0.00    +0.000 S 
ATOM      2  O   UNL     1      89.906  70.827  86.092  0.00  0.00    +0.000 OA
ENDROOT
BRANCH   1   3
ATOM      3  C   UNL     1      88.772  68.457  86.411  0.00  0.00    +0.000 A 
ATOM      4  C   UNL     1      89.853  67.794  85.819  0.00  0.00    +0.000 A 
ATOM      5  C   UNL     1      90.047  66.420  86.022  0.00  0.00    +0.000 A 
ATOM      6  C   UNL     1      89.171  65.724  86.865  0.00  0.00    +0.000 A 
ATOM      7  C   UNL     1      88.096  66.376  87.480  0.00  0.00    +0.000 A 
ATOM      8  C   UNL     1      87.904  67.743  87.247  0.00  0.00    +0.000 A 
ATOM      9  C   UNL     1      87.167  65.641  88.400  0.00  0.00    +0.000 C 
ATOM     10  C   UNL     1      91.214  65.715  85.399  0.00  0.00    +0.000 C 
ENDBRANCH   1   3
BRANCH   1  11
ATOM     11  C   UNL     1      87.796  70.625  87.766  0.00  0.00    +0.000 C 
BRANCH  11  15
ATOM     12  C   UNL     1      84.145  72.645  84.913  0.00  0.00    +0.000 C 
ATOM     13  C   UNL     1      84.683  72.257  86.258  0.00  0.00    +0.000 A 
ATOM     14  C   UNL     1      85.928  71.623  86.378  0.00  0.00    +0.000 A 
ATOM     15  C   UNL     1      86.455  71.304  87.640  0.00  0.00    +0.000 A 
ATOM     16  C   UNL     1      85.723  71.639  88.787  0.00  0.00    +0.000 A 
ATOM     17  C   UNL     1      84.486  72.272  88.674  0.00  0.00    +0.000 A 
ATOM     18  C   UNL     1      83.970  72.583  87.417  0.00  0.00    +0.000 A 
ENDBRANCH  11  15
ENDBRANCH   1  11
TORSDOF 3
ENDMDL
