MODEL 1
REMARK VINA RESULT:      -4.5      0.000      0.000
REMARK  Name = *****
REMARK  5 active torsions:
REMARK  status: ('A' for Active; 'I' for Inactive)
REMARK    1  A    between atoms: C_1  and  N_2
REMARK    2  A    between atoms: N_2  and  C_3
REMARK    3  A    between atoms: N_2  and  C_4
REMARK    4  A    between atoms: C_7  and  C_10
REMARK    5  A    between atoms: C_11  and  C_12
REMARK                            x       y       z     vdW  Elec       q    Type
REMARK                         _______ _______ _______ _____ _____    ______ ____
ROOT
ATOM      1  C   UNL     1     104.405 124.984  80.440  0.00  0.00    +0.000 A 
ATOM      2  C   UNL     1     103.831 124.552  81.650  0.00  0.00    +0.000 A 
ATOM      3  C   UNL     1     102.958 125.357  82.397  0.00  0.00    +0.000 A 
ATOM      4  C   UNL     1     102.638 126.636  81.957  0.00  0.00    +0.000 A 
ATOM      5  C   UNL     1     103.199 127.105  80.776  0.00  0.00    +0.000 A 
ATOM      6  C   UNL     1     104.071 126.290  80.037  0.00  0.00    +0.000 A 
ENDROOT
BRANCH   1   8
ATOM      7  C   UNL     1     106.170 124.811  78.722  0.00  0.00    +0.000 C 
ATOM      8  N   UNL     1     105.288 124.185  79.705  0.00  0.00    +0.000 N 
ATOM      9  C   UNL     1     105.790 122.951  80.308  0.00  0.00    +0.000 C 
ENDBRANCH   1   8
BRANCH   4  10
ATOM     10  C   UNL     1     101.747 127.460  82.713  0.00  0.00    +0.000 C 
ATOM     11  C   UNL     1     100.996 128.151  83.348  0.00  0.00    +0.000 C 
BRANCH  11  12
ATOM     12  C   UNL     1     100.101 128.970  84.102  0.00  0.00    +0.000 A 
ATOM     13  C   UNL     1      99.109 128.379  84.892  0.00  0.00    +0.000 A 
ATOM     14  C   UNL     1      98.234 129.179  85.633  0.00  0.00    +0.000 A 
ATOM     15  C   UNL     1      98.355 130.567  85.580  0.00  0.00    +0.000 A 
ATOM     16  C   UNL     1      99.341 131.163  84.794  0.00  0.00    +0.000 A 
ATOM     17  C   UNL     1     100.215 130.362  84.054  0.00  0.00    +0.000 A 
ATOM     18 CL   UNL     1      97.278 131.552  86.491  0.00  0.00    +0.000 Cl
ENDBRANCH  11  12
ENDBRANCH   4  10
TORSDOF 3
ENDMDL
