MODEL 1
REMARK VINA RESULT:      -4.6      0.000      0.000
REMARK  Name = *****
REMARK  4 active torsions:
REMARK  status: ('A' for Active; 'I' for Inactive)
REMARK    1  A    between atoms: C_1  and  C_2
REMARK    2  A    between atoms: C_3  and  C_9
REMARK    3  A    between atoms: C_4  and  C_8
REMARK    4  A    between atoms: N_10  and  C_11
REMARK                            x       y       z     vdW  Elec       q    Type
REMARK                         _______ _______ _______ _____ _____    ______ ____
ROOT
ATOM      1  C   UNL     1      98.881 126.757  82.417  0.00  0.00    +0.000 C 
ATOM      2  C   UNL     1      99.588 127.929  83.044  0.00  0.00    +0.000 A 
ATOM      3  C   UNL     1     100.980 127.957  83.294  0.00  0.00    +0.000 A 
ATOM      4  C   UNL     1     101.571 129.106  83.878  0.00  0.00    +0.000 A 
ATOM      5  C   UNL     1     100.761 130.207  84.200  0.00  0.00    +0.000 A 
ATOM      6  C   UNL     1      99.390 130.177  83.961  0.00  0.00    +0.000 A 
ATOM      7  C   UNL     1      98.811 129.048  83.392  0.00  0.00    +0.000 A 
ATOM      8  C   UNL     1     103.044 129.205  84.178  0.00  0.00    +0.000 C 
ENDROOT
BRANCH   3   9
ATOM      9  C   UNL     1     101.870 126.809  82.953  0.00  0.00    +0.000 C 
ATOM     10  N   UNL     1     102.423 126.644  81.792  0.00  0.00    +0.000 NA
BRANCH  10  11
ATOM     11  C   UNL     1     103.223 125.502  81.649  0.00  0.00    +0.000 A 
ATOM     12  C   UNL     1     103.749 125.168  80.399  0.00  0.00    +0.000 A 
ATOM     13  C   UNL     1     104.556 124.038  80.251  0.00  0.00    +0.000 A 
ATOM     14  C   UNL     1     104.849 123.242  81.359  0.00  0.00    +0.000 A 
ATOM     15  C   UNL     1     104.340 123.579  82.613  0.00  0.00    +0.000 A 
ATOM     16  C   UNL     1     103.534 124.710  82.757  0.00  0.00    +0.000 A 
ENDBRANCH  10  11
ENDBRANCH   3   9
TORSDOF 2
ENDMDL
