MODEL 1
REMARK VINA RESULT:      -4.2      0.000      0.000
REMARK  Name = *****
REMARK  3 active torsions:
REMARK  status: ('A' for Active; 'I' for Inactive)
REMARK    1  A    between atoms: C_4  and  C_6
REMARK    2  A    between atoms: C_6  and  C_7
REMARK    3  A    between atoms: C_7  and  C_8
REMARK                            x       y       z     vdW  Elec       q    Type
REMARK                         _______ _______ _______ _____ _____    ______ ____
ROOT
ATOM      1  C   UNL     1     102.645 127.519  82.759  0.00  0.00    +0.000 C 
ENDROOT
BRANCH   1   2
ATOM      2  C   UNL     1     101.146 127.651  82.891  0.00  0.00    +0.000 A 
ATOM      3  C   UNL     1     100.297 126.668  82.366  0.00  0.00    +0.000 A 
ATOM      4  C   UNL     1      98.912 126.801  82.473  0.00  0.00    +0.000 A 
ATOM      5  C   UNL     1      98.363 127.918  83.100  0.00  0.00    +0.000 A 
ATOM      6  C   UNL     1      99.199 128.905  83.621  0.00  0.00    +0.000 A 
ATOM      7  C   UNL     1     100.585 128.774  83.515  0.00  0.00    +0.000 A 
ENDBRANCH   1   2
BRANCH   1   8
ATOM      8  C   UNL     1     103.053 127.059  81.354  0.00  0.00    +0.000 C 
BRANCH   8  12
ATOM      9  C   UNL     1     104.507 123.629  82.082  0.00  0.00    +0.000 C 
ATOM     10  C   UNL     1     104.577 123.644  80.558  0.00  0.00    +0.000 C 
ATOM     11  C   UNL     1     104.170 125.040  80.220  0.00  0.00    +0.000 C 
ATOM     12  C   UNL     1     103.623 125.674  81.266  0.00  0.00    +0.000 C 
ATOM     13  C   UNL     1     103.590 124.785  82.475  0.00  0.00    +0.000 C 
ENDBRANCH   8  12
ENDBRANCH   1   8
TORSDOF 3
ENDMDL
