REMARK  Name = *****
REMARK  3 active torsions:
REMARK  status: ('A' for Active; 'I' for Inactive)
REMARK    1  A    between atoms: C_2  and  C_3
REMARK    2  A    between atoms: C_2  and  C_10
REMARK    3  A    between atoms: C_3  and  C_4
REMARK                            x       y       z     vdW  Elec       q    Type
REMARK                         _______ _______ _______ _____ _____    ______ ____
ROOT
ATOM      1  C   UNL     1       1.887  -1.336   0.051  0.00  0.00    +0.000 C 
ATOM      2  C   UNL     1       2.268  -0.053   0.170  0.00  0.00    +0.000 C 
ENDROOT
BRANCH   2   3
ATOM      3  C   UNL     1       2.018   0.648   1.440  0.00  0.00    +0.000 A 
ATOM      4  C   UNL     1       2.926   0.530   2.500  0.00  0.00    +0.000 A 
ATOM      5  C   UNL     1       2.687   1.188   3.708  0.00  0.00    +0.000 A 
ATOM      6  C   UNL     1       1.539   1.963   3.865  0.00  0.00    +0.000 A 
ATOM      7  C   UNL     1       0.627   2.080   2.816  0.00  0.00    +0.000 A 
ATOM      8  C   UNL     1       0.864   1.422   1.608  0.00  0.00    +0.000 A 
ENDBRANCH   2   3
BRANCH   2   9
ATOM      9  C   UNL     1       3.000   0.709  -0.910  0.00  0.00    +0.000 C 
BRANCH   9  10
ATOM     10  C   UNL     1       2.112   1.682  -1.657  0.00  0.00    +0.000 C 
ATOM     11  C   UNL     1       2.254   3.015  -1.527  0.00  0.00    +0.000 C 
ATOM     12  C   UNL     1       1.383   4.021  -2.221  0.00  0.00    +0.000 C 
ATOM     13  C   UNL     1       0.131   3.405  -2.845  0.00  0.00    +0.000 C 
ATOM     14  C   UNL     1       0.460   2.094  -3.549  0.00  0.00    +0.000 C 
ATOM     15  C   UNL     1       1.072   1.082  -2.576  0.00  0.00    +0.000 C 
ENDBRANCH   9  10
ENDBRANCH   2   9
TORSDOF 3
