MODEL 1
REMARK VINA RESULT:      -4.2      0.000      0.000
REMARK  Name = *****
REMARK  6 active torsions:
REMARK  status: ('A' for Active; 'I' for Inactive)
REMARK    1  A    between atoms: C_1  and  C_2
REMARK    2  A    between atoms: C_2  and  O_3
REMARK    3  A    between atoms: O_3  and  P_4
REMARK    4  A    between atoms: P_4  and  C_6
REMARK    5  A    between atoms: P_4  and  O_12
REMARK    6  A    between atoms: O_12  and  C_13
REMARK                            x       y       z     vdW  Elec       q    Type
REMARK                         _______ _______ _______ _____ _____    ______ ____
ROOT
ATOM      1  P   UNL     1     103.062 127.231  83.389  0.00  0.00    +0.000 P 
ATOM      2  S   UNL     1     103.760 126.928  85.260  0.00  0.00    +0.000 S 
ENDROOT
BRANCH   1   3
ATOM      3  C   UNL     1     101.255 127.614  83.160  0.00  0.00    +0.000 A 
ATOM      4  C   UNL     1     100.747 128.841  83.618  0.00  0.00    +0.000 A 
ATOM      5  C   UNL     1      99.393 129.141  83.462  0.00  0.00    +0.000 A 
ATOM      6  C   UNL     1      98.541 128.222  82.854  0.00  0.00    +0.000 A 
ATOM      7  C   UNL     1      99.036 126.999  82.401  0.00  0.00    +0.000 A 
ATOM      8  C   UNL     1     100.389 126.693  82.552  0.00  0.00    +0.000 A 
ENDBRANCH   1   3
BRANCH   1   9
ATOM      9  O   UNL     1     103.399 128.920  83.556  0.00  0.00    +0.000 OA
BRANCH   9  11
ATOM     10  C   UNL     1     104.457 128.701  81.429  0.00  0.00    +0.000 C 
ATOM     11  C   UNL     1     104.507 129.365  82.789  0.00  0.00    +0.000 C 
ENDBRANCH   9  11
ENDBRANCH   1   9
BRANCH   1  12
ATOM     12  O   UNL     1     102.726 125.543  83.222  0.00  0.00    +0.000 OA
BRANCH  12  13
ATOM     13  C   UNL     1     103.514 124.831  82.357  0.00  0.00    +0.000 A 
ATOM     14  C   UNL     1     103.552 125.260  81.033  0.00  0.00    +0.000 A 
ATOM     15  C   UNL     1     104.340 124.580  80.107  0.00  0.00    +0.000 A 
ATOM     16  C   UNL     1     105.079 123.466  80.507  0.00  0.00    +0.000 A 
ATOM     17  C   UNL     1     105.020 123.026  81.830  0.00  0.00    +0.000 A 
ATOM     18  C   UNL     1     104.232 123.706  82.759  0.00  0.00    +0.000 A 
ENDBRANCH  12  13
ENDBRANCH   1  12
TORSDOF 5
ENDMDL
