MODEL 1
REMARK VINA RESULT:      -4.7      0.000      0.000
REMARK  Name = *****
REMARK  4 active torsions:
REMARK  status: ('A' for Active; 'I' for Inactive)
REMARK    1  A    between atoms: C_1  and  C_2
REMARK    2  A    between atoms: C_5  and  C_8
REMARK    3  A    between atoms: C_8  and  S_11
REMARK    4  A    between atoms: S_11  and  C_12
REMARK                            x       y       z     vdW  Elec       q    Type
REMARK                         _______ _______ _______ _____ _____    ______ ____
ROOT
ATOM      1  C   UNL     1     103.459 126.670  81.846  0.00  0.00    +0.000 C 
ATOM      2  C   UNL     1     103.649 127.495  80.854  0.00  0.00    +0.000 C 
ATOM      3  O   UNL     1     103.836 128.230  79.953  0.00  0.00    +0.000 OA
ENDROOT
BRANCH   1   8
ATOM      4  C   UNL     1     105.202 121.126  81.631  0.00  0.00    +0.000 C 
ATOM      5  C   UNL     1     104.727 122.547  81.681  0.00  0.00    +0.000 A 
ATOM      6  C   UNL     1     104.363 123.132  82.896  0.00  0.00    +0.000 A 
ATOM      7  C   UNL     1     103.947 124.467  82.948  0.00  0.00    +0.000 A 
ATOM      8  C   UNL     1     103.891 125.255  81.786  0.00  0.00    +0.000 A 
ATOM      9  C   UNL     1     104.284 124.663  80.574  0.00  0.00    +0.000 A 
ATOM     10  C   UNL     1     104.700 123.328  80.522  0.00  0.00    +0.000 A 
ENDBRANCH   1   8
BRANCH   1  11
ATOM     11  S   UNL     1     103.049 127.319  83.410  0.00  0.00    +0.000 S 
BRANCH  11  12
ATOM     12  C   UNL     1     101.301 127.600  83.185  0.00  0.00    +0.000 A 
ATOM     13  C   UNL     1     100.709 128.802  83.590  0.00  0.00    +0.000 A 
ATOM     14  C   UNL     1      99.342 129.011  83.396  0.00  0.00    +0.000 A 
ATOM     15  C   UNL     1      98.563 128.025  82.792  0.00  0.00    +0.000 A 
ATOM     16  C   UNL     1      99.150 126.831  82.377  0.00  0.00    +0.000 A 
ATOM     17  C   UNL     1     100.517 126.620  82.570  0.00  0.00    +0.000 A 
ENDBRANCH  11  12
ENDBRANCH   1  11
TORSDOF 3
ENDMDL
