MODEL 1
REMARK VINA RESULT:      -4.6      0.000      0.000
REMARK  Name = *****
REMARK  8 active torsions:
REMARK  status: ('A' for Active; 'I' for Inactive)
REMARK    1  A    between atoms: C_1  and  C_2
REMARK    2  A    between atoms: C_4  and  C_19
REMARK    3  A    between atoms: C_5  and  C_9
REMARK    4  A    between atoms: C_6  and  C_8
REMARK    5  A    between atoms: C_9  and  C_10
REMARK    6  A    between atoms: C_10  and  C_12
REMARK    7  A    between atoms: C_13  and  C_18
REMARK    8  A    between atoms: C_15  and  C_17
REMARK                            x       y       z     vdW  Elec       q    Type
REMARK                         _______ _______ _______ _____ _____    ______ ____
ROOT
ATOM      1  C   UNL     1      89.647  70.276  85.601  0.00  0.00    +0.000 C 
ENDROOT
BRANCH   1   6
ATOM      2  C   UNL     1      84.317  72.310  86.899  0.00  0.00    +0.000 C 
ATOM      3  C   UNL     1      85.675  71.772  86.561  0.00  0.00    +0.000 A 
ATOM      4  C   UNL     1      86.181  71.885  85.265  0.00  0.00    +0.000 A 
ATOM      5  C   UNL     1      87.466  71.420  84.940  0.00  0.00    +0.000 A 
ATOM      6  C   UNL     1      88.265  70.812  85.939  0.00  0.00    +0.000 A 
ATOM      7  C   UNL     1      87.773  70.737  87.264  0.00  0.00    +0.000 A 
ATOM      8  C   UNL     1      86.483  71.212  87.555  0.00  0.00    +0.000 A 
ATOM      9  C   UNL     1      88.583  70.145  88.387  0.00  0.00    +0.000 C 
ATOM     10  C   UNL     1      87.942  71.577  83.519  0.00  0.00    +0.000 C 
ENDBRANCH   1   6
BRANCH   1  11
ATOM     11  C   UNL     1      89.652  68.954  84.838  0.00  0.00    +0.000 C 
ATOM     12  O   UNL     1      90.247  68.820  83.769  0.00  0.00    +0.000 OA
BRANCH  11  13
ATOM     13  C   UNL     1      88.900  67.828  85.436  0.00  0.00    +0.000 A 
ATOM     14  C   UNL     1      87.650  67.409  84.988  0.00  0.00    +0.000 A 
ATOM     15  S   UNL     1      87.047  66.082  85.887  0.00  0.00    +0.000 S 
ATOM     16  C   UNL     1      88.424  66.034  86.887  0.00  0.00    +0.000 A 
ATOM     17  C   UNL     1      89.331  67.013  86.543  0.00  0.00    +0.000 A 
ATOM     18  C   UNL     1      88.523  65.014  87.969  0.00  0.00    +0.000 C 
ATOM     19  C   UNL     1      86.821  67.958  83.868  0.00  0.00    +0.000 C 
ENDBRANCH  11  13
ENDBRANCH   1  11
TORSDOF 3
ENDMDL
