REMARK  Name = *****
REMARK  5 active torsions:
REMARK  status: ('A' for Active; 'I' for Inactive)
REMARK    1  A    between atoms: C_1  and  N_2
REMARK    2  A    between atoms: N_2  and  C_3
REMARK    3  A    between atoms: N_2  and  C_4
REMARK    4  A    between atoms: C_9  and  C_10
REMARK    5  A    between atoms: C_11  and  C_12
REMARK                            x       y       z     vdW  Elec       q    Type
REMARK                         _______ _______ _______ _____ _____    ______ ____
ROOT
ATOM      1  C   UNL     1       3.121   0.546   0.930  0.00  0.00    +0.000 A 
ATOM      2  C   UNL     1       2.751   0.173   2.237  0.00  0.00    +0.000 A 
ATOM      3  C   UNL     1       3.510   0.539   3.355  0.00  0.00    +0.000 A 
ATOM      4  C   UNL     1       4.662   1.299   3.197  0.00  0.00    +0.000 A 
ATOM      5  C   UNL     1       5.051   1.698   1.922  0.00  0.00    +0.000 A 
ATOM      6  C   UNL     1       4.293   1.335   0.797  0.00  0.00    +0.000 A 
ENDROOT
BRANCH   1   8
ATOM      7  C   UNL     1       0.932  -0.112  -0.007  0.00  0.00    +0.000 C 
ATOM      8  N   UNL     1       2.353   0.165  -0.181  0.00  0.00    +0.000 N 
ATOM      9  C   UNL     1       3.040  -0.665  -1.173  0.00  0.00    +0.000 C 
ENDBRANCH   1   8
BRANCH   6  10
ATOM     10  C   UNL     1       4.731   1.839  -0.476  0.00  0.00    +0.000 C 
ATOM     11  C   UNL     1       5.096   2.259  -1.541  0.00  0.00    +0.000 C 
BRANCH  11  12
ATOM     12  C   UNL     1       5.518   2.746  -2.817  0.00  0.00    +0.000 A 
ATOM     13  C   UNL     1       5.509   4.116  -3.080  0.00  0.00    +0.000 A 
ATOM     14  C   UNL     1       5.918   4.572  -4.328  0.00  0.00    +0.000 A 
ATOM     15  C   UNL     1       6.335   3.687  -5.317  0.00  0.00    +0.000 A 
ATOM     16  C   UNL     1       6.345   2.318  -5.055  0.00  0.00    +0.000 A 
ATOM     17  C   UNL     1       5.936   1.848  -3.804  0.00  0.00    +0.000 A 
ATOM     18  F   UNL     1       5.910   5.887  -4.585  0.00  0.00    +0.000 F 
ENDBRANCH  11  12
ENDBRANCH   6  10
TORSDOF 3
