MODEL 1
REMARK VINA RESULT:      -4.6      0.000      0.000
REMARK  Name = *****
REMARK  5 active torsions:
REMARK  status: ('A' for Active; 'I' for Inactive)
REMARK    1  A    between atoms: C_1  and  C_2
REMARK    2  A    between atoms: C_7  and  C_8
REMARK    3  A    between atoms: C_8  and  O_16
REMARK    4  A    between atoms: C_9  and  C_10
REMARK    5  A    between atoms: O_16  and  C_17
REMARK                            x       y       z     vdW  Elec       q    Type
REMARK                         _______ _______ _______ _____ _____    ______ ____
ROOT
ATOM      1  C   UNL     1     102.799 126.230  82.308  0.00  0.00    +0.000 C 
ATOM      2  C   UNL     1     103.033 125.865  81.034  0.00  0.00    +0.000 C 
ENDROOT
BRANCH   1   9
ATOM      3  C   UNL     1     103.028 128.908  83.616  0.00  0.00    +0.000 C 
ATOM      4  C   UNL     1     101.699 128.294  83.267  0.00  0.00    +0.000 A 
ATOM      5  C   UNL     1     100.522 128.990  83.591  0.00  0.00    +0.000 A 
ATOM      6  C   UNL     1      99.269 128.455  83.290  0.00  0.00    +0.000 A 
ATOM      7  C   UNL     1      99.173 127.215  82.669  0.00  0.00    +0.000 A 
ATOM      8  C   UNL     1     100.332 126.506  82.351  0.00  0.00    +0.000 A 
ATOM      9  C   UNL     1     101.602 127.030  82.647  0.00  0.00    +0.000 A 
ENDBRANCH   1   9
BRANCH   2  10
ATOM     10  C   UNL     1     104.197 125.108  80.549  0.00  0.00    +0.000 A 
ATOM     11  C   UNL     1     105.195 125.693  79.761  0.00  0.00    +0.000 A 
ATOM     12  C   UNL     1     106.267 124.932  79.288  0.00  0.00    +0.000 A 
ATOM     13  C   UNL     1     106.344 123.573  79.589  0.00  0.00    +0.000 A 
ATOM     14  C   UNL     1     105.349 122.975  80.358  0.00  0.00    +0.000 A 
ATOM     15  C   UNL     1     104.277 123.738  80.831  0.00  0.00    +0.000 A 
ENDBRANCH   2  10
BRANCH   1  16
ATOM     16  O   UNL     1     103.692 125.968  83.330  0.00  0.00    +0.000 OA
ATOM     17  C   UNL     1     103.177 125.026  84.268  0.00  0.00    +0.000 C 
ENDBRANCH   1  16
TORSDOF 3
ENDMDL
