REMARK  Name = *****
REMARK  3 active torsions:
REMARK  status: ('A' for Active; 'I' for Inactive)
REMARK    1  A    between atoms: C_1  and  C_2
REMARK    2  A    between atoms: C_4  and  S_8
REMARK    3  A    between atoms: S_8  and  C_9
REMARK                            x       y       z     vdW  Elec       q    Type
REMARK                         _______ _______ _______ _____ _____    ______ ____
ROOT
ATOM      1  S   UNL     1      -1.993   5.610   0.335  0.00  0.00    +0.000 S 
ENDROOT
BRANCH   1   5
ATOM      2  C   UNL     1      -5.140   3.456  -3.347  0.00  0.00    +0.000 C 
ATOM      3  C   UNL     1      -4.371   4.645  -2.853  0.00  0.00    +0.000 A 
ATOM      4  C   UNL     1      -3.637   4.568  -1.660  0.00  0.00    +0.000 A 
ATOM      5  C   UNL     1      -2.939   5.680  -1.176  0.00  0.00    +0.000 A 
ATOM      6  C   UNL     1      -3.008   6.888  -1.875  0.00  0.00    +0.000 A 
ATOM      7  C   UNL     1      -3.748   6.980  -3.054  0.00  0.00    +0.000 A 
ATOM      8  C   UNL     1      -4.428   5.863  -3.540  0.00  0.00    +0.000 A 
ENDBRANCH   1   5
BRANCH   1   9
ATOM      9  C   UNL     1      -0.822   4.264  -0.067  0.00  0.00    +0.000 C 
ATOM     10  C   UNL     1       0.119   4.556  -1.278  0.00  0.00    +0.000 C 
ATOM     11  C   UNL     1       1.522   4.260  -0.699  0.00  0.00    +0.000 C 
ATOM     12  C   UNL     1       1.220   3.128   0.287  0.00  0.00    +0.000 C 
ATOM     13  C   UNL     1       0.191   3.955   1.071  0.00  0.00    +0.000 C 
ATOM     14  C   UNL     1       1.056   5.165   1.359  0.00  0.00    +0.000 C 
ATOM     15  C   UNL     1       1.849   5.350   0.292  0.00  0.00    +0.000 C 
ENDBRANCH   1   9
TORSDOF 2
