REMARK  Name = *****
REMARK  3 active torsions:
REMARK  status: ('A' for Active; 'I' for Inactive)
REMARK    1  A    between atoms: C_1  and  C_2
REMARK    2  A    between atoms: C_5  and  C_7
REMARK    3  A    between atoms: C_8  and  C_9
REMARK                            x       y       z     vdW  Elec       q    Type
REMARK                         _______ _______ _______ _____ _____    ______ ____
ROOT
ATOM      1  C   UNL     1      -2.960   0.650   0.067  0.00  0.00    +0.000 C 
ATOM      2  C   UNL     1      -4.104  -0.050  -0.002  0.00  0.00    +0.000 C 
ENDROOT
BRANCH   2   3
ATOM      3  C   UNL     1      -5.437   0.571   0.036  0.00  0.00    +0.000 A 
ATOM      4  C   UNL     1      -5.730   1.753  -0.659  0.00  0.00    +0.000 A 
ATOM      5  C   UNL     1      -7.017   2.297  -0.625  0.00  0.00    +0.000 A 
ATOM      6  C   UNL     1      -8.021   1.654   0.095  0.00  0.00    +0.000 A 
ATOM      7  C   UNL     1      -7.751   0.470   0.777  0.00  0.00    +0.000 A 
ATOM      8  C   UNL     1      -6.463  -0.072   0.742  0.00  0.00    +0.000 A 
ATOM      9 BR   UNL     1      -9.762   2.388   0.140  0.00  0.00    +0.000 Br
ENDBRANCH   2   3
BRANCH   1  14
ATOM     10  C   UNL     1       2.268  -0.073   0.051  0.00  0.00    +0.000 C 
ATOM     11  C   UNL     1       0.796  -0.299   0.026  0.00  0.00    +0.000 A 
ATOM     12  C   UNL     1       0.113  -1.491  -0.066  0.00  0.00    +0.000 A 
ATOM     13  C   UNL     1      -1.300  -1.303  -0.063  0.00  0.00    +0.000 A 
ATOM     14  C   UNL     1      -1.676   0.027   0.032  0.00  0.00    +0.000 A 
ATOM     15  S   UNL     1      -0.272   1.030   0.116  0.00  0.00    +0.000 S 
ENDBRANCH   1  14
TORSDOF 2
