REMARK  Name = *****
REMARK  4 active torsions:
REMARK  status: ('A' for Active; 'I' for Inactive)
REMARK    1  A    between atoms: C_1  and  C_2
REMARK    2  A    between atoms: C_1  and  S_8
REMARK    3  A    between atoms: S_8  and  C_9
REMARK    4  A    between atoms: C_12  and  C_15
REMARK                            x       y       z     vdW  Elec       q    Type
REMARK                         _______ _______ _______ _____ _____    ______ ____
ROOT
ATOM      1  S   UNL     1       2.695   1.304  -1.007  0.00  0.00    +0.000 S 
ENDROOT
BRANCH   1   2
ATOM      2  C   UNL     1       4.449   1.220  -0.703  0.00  0.00    +0.000 A 
ATOM      3  C   UNL     1       5.302   0.803  -1.728  0.00  0.00    +0.000 A 
ATOM      4  C   UNL     1       6.682   0.736  -1.516  0.00  0.00    +0.000 A 
ATOM      5  C   UNL     1       7.226   1.084  -0.275  0.00  0.00    +0.000 A 
ATOM      6  C   UNL     1       6.373   1.530   0.740  0.00  0.00    +0.000 A 
ATOM      7  C   UNL     1       4.993   1.597   0.528  0.00  0.00    +0.000 A 
ATOM      8  C   UNL     1       8.710   1.049  -0.058  0.00  0.00    +0.000 C 
ENDBRANCH   1   2
BRANCH   1   9
ATOM      9  C   UNL     1       2.118   0.089   0.225  0.00  0.00    +0.000 C 
BRANCH   9  10
ATOM     10  C   UNL     1       0.633  -0.145   0.116  0.00  0.00    +0.000 A 
ATOM     11  C   UNL     1       0.129  -1.156  -0.717  0.00  0.00    +0.000 A 
ATOM     12  C   UNL     1      -1.246  -1.366  -0.823  0.00  0.00    +0.000 A 
ATOM     13  C   UNL     1      -2.133  -0.567  -0.104  0.00  0.00    +0.000 A 
ATOM     14  C   UNL     1      -1.646   0.447   0.718  0.00  0.00    +0.000 A 
ATOM     15  C   UNL     1      -0.270   0.659   0.827  0.00  0.00    +0.000 A 
ENDBRANCH   9  10
ENDBRANCH   1   9
TORSDOF 3
