REMARK  Name = *****
REMARK  5 active torsions:
REMARK  status: ('A' for Active; 'I' for Inactive)
REMARK    1  A    between atoms: C_1  and  C_2
REMARK    2  A    between atoms: C_5  and  C_7
REMARK    3  A    between atoms: C_7  and  C_8
REMARK    4  A    between atoms: C_8  and  C_9
REMARK    5  A    between atoms: C_9  and  C_10
REMARK                            x       y       z     vdW  Elec       q    Type
REMARK                         _______ _______ _______ _____ _____    ______ ____
ROOT
ATOM      1  C   UNL     1       5.548   3.098   0.082  0.00  0.00    +0.000 C 
ENDROOT
BRANCH   1   2
ATOM      2  C   UNL     1       5.831   1.593   0.052  0.00  0.00    +0.000 C 
BRANCH   2   7
ATOM      3  C   UNL     1       1.030  -0.138   0.035  0.00  0.00    +0.000 C 
ATOM      4  C   UNL     1       2.514  -0.165   0.027  0.00  0.00    +0.000 C 
ATOM      5  C   UNL     1       3.328  -1.234  -0.001  0.00  0.00    +0.000 C 
ATOM      6  C   UNL     1       4.759  -0.783   0.003  0.00  0.00    +0.000 C 
ATOM      7  C   UNL     1       4.618   0.718   0.038  0.00  0.00    +0.000 C 
ATOM      8  C   UNL     1       3.313   1.040   0.051  0.00  0.00    +0.000 C 
ENDBRANCH   2   7
ENDBRANCH   1   2
BRANCH   1   9
ATOM      9  C   UNL     1       6.850   3.903   0.097  0.00  0.00    +0.000 C 
BRANCH   9  10
ATOM     10  C   UNL     1       6.585   5.388   0.121  0.00  0.00    +0.000 A 
ATOM     11  C   UNL     1       6.429   6.063   1.339  0.00  0.00    +0.000 A 
ATOM     12  C   UNL     1       6.165   7.433   1.359  0.00  0.00    +0.000 A 
ATOM     13  C   UNL     1       6.049   8.140   0.164  0.00  0.00    +0.000 A 
ATOM     14  C   UNL     1       6.196   7.476  -1.053  0.00  0.00    +0.000 A 
ATOM     15  C   UNL     1       6.460   6.106  -1.076  0.00  0.00    +0.000 A 
ENDBRANCH   9  10
ENDBRANCH   1   9
TORSDOF 4
