MODEL 1
REMARK VINA RESULT:      -4.2      0.000      0.000
REMARK  Name = *****
REMARK  4 active torsions:
REMARK  status: ('A' for Active; 'I' for Inactive)
REMARK    1  A    between atoms: C_1  and  C_2
REMARK    2  A    between atoms: C_2  and  C_9
REMARK    3  A    between atoms: C_9  and  S_10
REMARK    4  A    between atoms: S_10  and  C_11
REMARK                            x       y       z     vdW  Elec       q    Type
REMARK                         _______ _______ _______ _____ _____    ______ ____
ROOT
ATOM      1  C   UNL     1      90.121  70.558  84.985  0.00  0.00    +0.000 C 
ATOM      2  C   UNL     1      89.412  69.188  85.086  0.00  0.00    +0.000 C 
ATOM      3  C   UNL     1      89.613  68.671  86.534  0.00  0.00    +0.000 C 
ATOM      4  C   UNL     1      88.955  67.331  86.856  0.00  0.00    +0.000 C 
ATOM      5  C   UNL     1      89.760  66.105  86.434  0.00  0.00    +0.000 C 
ATOM      6  C   UNL     1      90.548  66.222  85.133  0.00  0.00    +0.000 C 
ATOM      7  C   UNL     1      89.826  66.995  84.042  0.00  0.00    +0.000 C 
ATOM      8  O   UNL     1      90.117  68.384  84.119  0.00  0.00    +0.000 OA
ENDROOT
BRANCH   2   9
ATOM      9  C   UNL     1      87.930  69.349  84.643  0.00  0.00    +0.000 C 
BRANCH   9  10
ATOM     10  S   UNL     1      87.453  71.017  84.054  0.00  0.00    +0.000 S 
BRANCH  10  11
ATOM     11  C   UNL     1      86.382  71.500  85.393  0.00  0.00    +0.000 A 
ATOM     12  C   UNL     1      85.171  72.153  85.146  0.00  0.00    +0.000 A 
ATOM     13  C   UNL     1      84.339  72.519  86.205  0.00  0.00    +0.000 A 
ATOM     14  C   UNL     1      84.710  72.227  87.516  0.00  0.00    +0.000 A 
ATOM     15  C   UNL     1      85.911  71.564  87.769  0.00  0.00    +0.000 A 
ATOM     16  C   UNL     1      86.743  71.199  86.709  0.00  0.00    +0.000 A 
ENDBRANCH  10  11
ENDBRANCH   9  10
ENDBRANCH   2   9
TORSDOF 3
ENDMDL
