REMARK  Name = *****
REMARK  3 active torsions:
REMARK  status: ('A' for Active; 'I' for Inactive)
REMARK    1  A    between atoms: C_1  and  C_2
REMARK    2  A    between atoms: C_2  and  C_10
REMARK    3  A    between atoms: N_3  and  C_4
REMARK                            x       y       z     vdW  Elec       q    Type
REMARK                         _______ _______ _______ _____ _____    ______ ____
ROOT
ATOM      1  C   UNL     1       3.136   0.958  -0.761  0.00  0.00    +0.000 A 
ATOM      2  C   UNL     1       4.456   1.333  -0.514  0.00  0.00    +0.000 A 
ATOM      3  C   UNL     1       5.132   2.139  -1.425  0.00  0.00    +0.000 A 
ATOM      4  C   UNL     1       4.497   2.569  -2.582  0.00  0.00    +0.000 A 
ATOM      5  C   UNL     1       3.182   2.198  -2.830  0.00  0.00    +0.000 A 
ATOM      6  C   UNL     1       2.501   1.394  -1.923  0.00  0.00    +0.000 A 
ATOM      7  F   UNL     1       1.235   1.035  -2.184  0.00  0.00    +0.000 F 
ATOM      8  F   UNL     1       2.566   2.616  -3.945  0.00  0.00    +0.000 F 
ATOM      9  F   UNL     1       5.148   3.349  -3.455  0.00  0.00    +0.000 F 
ATOM     10  F   UNL     1       6.396   2.512  -1.178  0.00  0.00    +0.000 F 
ATOM     11  F   UNL     1       5.078   0.962   0.614  0.00  0.00    +0.000 F 
ENDROOT
BRANCH   1  13
ATOM     12  C   UNL     1       1.076   0.533   0.686  0.00  0.00    +0.000 C 
ATOM     13  C   UNL     1       2.428   0.071   0.182  0.00  0.00    +0.000 C 
ATOM     14  N   UNL     1       3.002  -1.048   0.505  0.00  0.00    +0.000 NA
BRANCH  14  15
ATOM     15  C   UNL     1       2.364  -1.925   1.391  0.00  0.00    +0.000 A 
ATOM     16  C   UNL     1       1.453  -2.875   0.920  0.00  0.00    +0.000 A 
ATOM     17  C   UNL     1       0.834  -3.760   1.805  0.00  0.00    +0.000 A 
ATOM     18  C   UNL     1       1.135  -3.708   3.166  0.00  0.00    +0.000 A 
ATOM     19  C   UNL     1       2.059  -2.778   3.640  0.00  0.00    +0.000 A 
ATOM     20  C   UNL     1       2.676  -1.894   2.753  0.00  0.00    +0.000 A 
ENDBRANCH  14  15
ENDBRANCH   1  13
TORSDOF 2
