MODEL 1
REMARK VINA RESULT:      -3.5      0.000      0.000
REMARK  Name = *****
REMARK  5 active torsions:
REMARK  status: ('A' for Active; 'I' for Inactive)
REMARK    1  A    between atoms: C_4  and  C_7
REMARK    2  A    between atoms: C_7  and  C_8
REMARK    3  A    between atoms: C_8  and  C_9
REMARK    4  A    between atoms: C_9  and  O_10
REMARK    5  A    between atoms: O_10  and  C_11
REMARK                            x       y       z     vdW  Elec       q    Type
REMARK                         _______ _______ _______ _____ _____    ______ ____
ROOT
ATOM      1  C   UNL     1      90.497  70.419  83.745  0.00  0.00    +0.000 C 
ENDROOT
BRANCH   1   2
ATOM      2  C   UNL     1      89.616  71.513  84.344  0.00  0.00    +0.000 C 
BRANCH   2   6
ATOM      3  C   UNL     1      87.646  70.162  87.933  0.00  0.00    +0.000 A 
ATOM      4  C   UNL     1      89.037  70.129  87.846  0.00  0.00    +0.000 A 
ATOM      5  C   UNL     1      89.676  70.569  86.685  0.00  0.00    +0.000 A 
ATOM      6  C   UNL     1      88.928  71.052  85.604  0.00  0.00    +0.000 A 
ATOM      7  C   UNL     1      87.530  71.076  85.699  0.00  0.00    +0.000 A 
ATOM      8  C   UNL     1      86.893  70.634  86.860  0.00  0.00    +0.000 A 
ENDBRANCH   2   6
ENDBRANCH   1   2
BRANCH   1   9
ATOM      9  C   UNL     1      89.661  69.374  83.012  0.00  0.00    +0.000 C 
BRANCH   9  10
ATOM     10  O   UNL     1      90.100  68.084  83.438  0.00  0.00    +0.000 OA
BRANCH  10  11
ATOM     11  C   UNL     1      89.528  67.575  84.572  0.00  0.00    +0.000 A 
ATOM     12  C   UNL     1      90.208  67.050  85.671  0.00  0.00    +0.000 A 
ATOM     13  C   UNL     1      89.495  66.560  86.770  0.00  0.00    +0.000 A 
ATOM     14  C   UNL     1      88.101  66.594  86.775  0.00  0.00    +0.000 A 
ATOM     15  C   UNL     1      87.418  67.118  85.681  0.00  0.00    +0.000 A 
ATOM     16  C   UNL     1      88.131  67.606  84.584  0.00  0.00    +0.000 A 
ENDBRANCH  10  11
ENDBRANCH   9  10
ENDBRANCH   1   9
TORSDOF 5
ENDMDL
