REMARK  Name = *****
REMARK  4 active torsions:
REMARK  status: ('A' for Active; 'I' for Inactive)
REMARK    1  A    between atoms: C_1  and  C_2
REMARK    2  A    between atoms: C_5  and  C_8
REMARK    3  A    between atoms: C_8  and  N_10
REMARK    4  A    between atoms: N_10  and  C_11
REMARK                            x       y       z     vdW  Elec       q    Type
REMARK                         _______ _______ _______ _____ _____    ______ ____
ROOT
ATOM      1  C   UNL     1      -3.251  -0.452   0.685  0.00  0.00    +0.000 C 
ATOM      2  S   UNL     1      -3.757  -1.987   1.126  0.00  0.00    +0.000 S 
ENDROOT
BRANCH   1   7
ATOM      3  C   UNL     1       2.360   0.677  -0.210  0.00  0.00    +0.000 C 
ATOM      4  C   UNL     1       0.915   0.356   0.038  0.00  0.00    +0.000 A 
ATOM      5  C   UNL     1       0.233  -0.537  -0.801  0.00  0.00    +0.000 A 
ATOM      6  C   UNL     1      -1.118  -0.818  -0.588  0.00  0.00    +0.000 A 
ATOM      7  C   UNL     1      -1.796  -0.198   0.465  0.00  0.00    +0.000 A 
ATOM      8  C   UNL     1      -1.132   0.711   1.296  0.00  0.00    +0.000 A 
ATOM      9  C   UNL     1       0.220   0.987   1.079  0.00  0.00    +0.000 A 
ENDBRANCH   1   7
BRANCH   1  10
ATOM     10  N   UNL     1      -4.004   0.689   0.434  0.00  0.00    +0.000 N 
ATOM     11  H   UNL     1      -3.477   1.438   0.072  0.00  0.00    +0.000 HD
BRANCH  10  12
ATOM     12  C   UNL     1      -5.377   0.990   0.595  0.00  0.00    +0.000 A 
ATOM     13  C   UNL     1      -6.304   0.210   1.287  0.00  0.00    +0.000 A 
ATOM     14  C   UNL     1      -7.641   0.615   1.395  0.00  0.00    +0.000 A 
ATOM     15  C   UNL     1      -8.050   1.808   0.817  0.00  0.00    +0.000 A 
ATOM     16  C   UNL     1      -7.146   2.609   0.137  0.00  0.00    +0.000 A 
ATOM     17  C   UNL     1      -5.813   2.203   0.031  0.00  0.00    +0.000 A 
ATOM     18  F   UNL     1      -9.328   2.193   0.923  0.00  0.00    +0.000 F 
ENDBRANCH  10  12
ENDBRANCH   1  10
TORSDOF 3
