MODEL 1
REMARK VINA RESULT:      -4.8      0.000      0.000
REMARK  Name = *****
REMARK  3 active torsions:
REMARK  status: ('A' for Active; 'I' for Inactive)
REMARK    1  A    between atoms: C_4  and  C_7
REMARK    2  A    between atoms: C_8  and  C_9
REMARK    3  A    between atoms: C_8  and  C_11
REMARK                            x       y       z     vdW  Elec       q    Type
REMARK                         _______ _______ _______ _____ _____    ______ ____
ROOT
ATOM      1  C   UNL     1     101.994 125.803  82.610  0.00  0.00    +0.000 C 
ATOM      2  C   UNL     1     102.984 125.765  81.694  0.00  0.00    +0.000 C 
ENDROOT
BRANCH   1   6
ATOM      3  C   UNL     1      99.301 129.039  83.319  0.00  0.00    +0.000 A 
ATOM      4  C   UNL     1      98.846 127.897  82.664  0.00  0.00    +0.000 A 
ATOM      5  C   UNL     1      99.719 126.833  82.422  0.00  0.00    +0.000 A 
ATOM      6  C   UNL     1     101.057 126.913  82.828  0.00  0.00    +0.000 A 
ATOM      7  C   UNL     1     101.502 128.059  83.496  0.00  0.00    +0.000 A 
ATOM      8  C   UNL     1     100.627 129.120  83.737  0.00  0.00    +0.000 A 
ENDBRANCH   1   6
BRANCH   2   9
ATOM      9  C   UNL     1     103.847 124.565  81.636  0.00  0.00    +0.000 A 
ATOM     10  C   UNL     1     104.440 124.165  80.429  0.00  0.00    +0.000 A 
ATOM     11  C   UNL     1     105.257 123.032  80.381  0.00  0.00    +0.000 A 
ATOM     12  C   UNL     1     105.490 122.292  81.537  0.00  0.00    +0.000 A 
ATOM     13  C   UNL     1     104.911 122.681  82.742  0.00  0.00    +0.000 A 
ATOM     14  C   UNL     1     104.093 123.813  82.794  0.00  0.00    +0.000 A 
ENDBRANCH   2   9
BRANCH   2  15
ATOM     15  C   UNL     1     103.263 126.855  80.811  0.00  0.00    +0.000 C 
ATOM     16  N   UNL     1     103.495 127.729  80.082  0.00  0.00    +0.000 NA
ENDBRANCH   2  15
TORSDOF 3
ENDMDL
