MODEL 1
REMARK VINA RESULT:      -5.6      0.000      0.000
REMARK  Name = *****
REMARK  2 active torsions:
REMARK  status: ('A' for Active; 'I' for Inactive)
REMARK    1  A    between atoms: C_1  and  C_2
REMARK    2  A    between atoms: C_9  and  C_14
REMARK                            x       y       z     vdW  Elec       q    Type
REMARK                         _______ _______ _______ _____ _____    ______ ____
ROOT
ATOM      1  C   UNL     1     105.792 121.721  81.973  0.00  0.00    +0.000 C 
ATOM      2  C   UNL     1     105.268 122.966  81.310  0.00  0.00    +0.000 A 
ATOM      3  C   UNL     1     104.282 123.769  81.930  0.00  0.00    +0.000 A 
ATOM      4  C   UNL     1     103.751 124.917  81.284  0.00  0.00    +0.000 A 
ATOM      5  C   UNL     1     104.297 125.249  80.027  0.00  0.00    +0.000 A 
ATOM      6  C   UNL     1     105.304 124.485  79.430  0.00  0.00    +0.000 A 
ATOM      7  C   UNL     1     105.784 123.348  80.067  0.00  0.00    +0.000 A 
ATOM      8  C   UNL     1     102.644 125.832  81.722  0.00  0.00    +0.000 C 
ATOM      9  C   UNL     1     102.136 126.131  82.942  0.00  0.00    +0.000 C 
ATOM     10  C   UNL     1     102.597 125.462  84.142  0.00  0.00    +0.000 C 
ATOM     11  C   UNL     1     103.921 125.371  84.364  0.00  0.00    +0.000 C 
ATOM     12  C   UNL     1     104.493 123.989  84.256  0.00  0.00    +0.000 C 
ATOM     13  O   UNL     1     103.837 123.311  83.157  0.00  0.00    +0.000 OA
ENDROOT
BRANCH   9  14
ATOM     14  C   UNL     1     101.009 127.083  82.996  0.00  0.00    +0.000 A 
ATOM     15  C   UNL     1      99.764 126.740  82.455  0.00  0.00    +0.000 A 
ATOM     16  C   UNL     1      98.700 127.643  82.511  0.00  0.00    +0.000 A 
ATOM     17  C   UNL     1      98.876 128.891  83.109  0.00  0.00    +0.000 A 
ATOM     18  C   UNL     1     100.113 129.237  83.653  0.00  0.00    +0.000 A 
ATOM     19  C   UNL     1     101.177 128.336  83.598  0.00  0.00    +0.000 A 
ENDBRANCH   9  14
TORSDOF 1
ENDMDL
