MODEL 1
REMARK VINA RESULT:      -4.4      0.000      0.000
REMARK  Name = *****
REMARK  4 active torsions:
REMARK  status: ('A' for Active; 'I' for Inactive)
REMARK    1  A    between atoms: C_1  and  C_2
REMARK    2  A    between atoms: C_4  and  S_9
REMARK    3  A    between atoms: S_9  and  C_10
REMARK    4  A    between atoms: C_10  and  C_11
REMARK                            x       y       z     vdW  Elec       q    Type
REMARK                         _______ _______ _______ _____ _____    ______ ____
ROOT
ATOM      1  C   UNL     1      91.167  65.634  85.299  0.00  0.00    +0.000 C 
ATOM      2  C   UNL     1      90.040  66.345  85.999  0.00  0.00    +0.000 A 
ATOM      3  C   UNL     1      90.040  67.678  86.143  0.00  0.00    +0.000 A 
ATOM      4  C   UNL     1      89.006  68.443  86.802  0.00  0.00    +0.000 A 
ATOM      5  C   UNL     1      87.967  67.883  87.431  0.00  0.00    +0.000 A 
ATOM      6  C   UNL     1      87.716  66.431  87.495  0.00  0.00    +0.000 A 
ATOM      7  O   UNL     1      86.766  66.007  88.145  0.00  0.00    +0.000 OA
ATOM      8  S   UNL     1      88.755  65.344  86.602  0.00  0.00    +0.000 S 
ENDROOT
BRANCH   4   9
ATOM      9  S   UNL     1      89.172  70.177  86.816  0.00  0.00    +0.000 S 
BRANCH   9  10
ATOM     10  C   UNL     1      87.892  70.619  85.597  0.00  0.00    +0.000 C 
BRANCH  10  11
ATOM     11  C   UNL     1      86.683  71.227  86.259  0.00  0.00    +0.000 A 
ATOM     12  C   UNL     1      85.657  71.794  85.488  0.00  0.00    +0.000 A 
ATOM     13  C   UNL     1      84.542  72.365  86.103  0.00  0.00    +0.000 A 
ATOM     14  C   UNL     1      84.442  72.380  87.493  0.00  0.00    +0.000 A 
ATOM     15  C   UNL     1      85.459  71.829  88.269  0.00  0.00    +0.000 A 
ATOM     16  C   UNL     1      86.575  71.257  87.657  0.00  0.00    +0.000 A 
ENDBRANCH  10  11
ENDBRANCH   9  10
ENDBRANCH   4   9
TORSDOF 3
ENDMDL
