REMARK  Name = *****
REMARK  5 active torsions:
REMARK  status: ('A' for Active; 'I' for Inactive)
REMARK    1  A    between atoms: C_1  and  C_2
REMARK    2  A    between atoms: C_2  and  C_4
REMARK    3  A    between atoms: C_7  and  S_10
REMARK    4  A    between atoms: S_10  and  C_11
REMARK    5  A    between atoms: C_11  and  C_12
REMARK                            x       y       z     vdW  Elec       q    Type
REMARK                         _______ _______ _______ _____ _____    ______ ____
ROOT
ATOM      1  C   UNL     1       3.310  -0.365  -1.182  0.00  0.00    +0.000 A 
ATOM      2  C   UNL     1       2.682  -0.273  -2.430  0.00  0.00    +0.000 A 
ATOM      3  C   UNL     1       3.309  -0.786  -3.572  0.00  0.00    +0.000 A 
ATOM      4  C   UNL     1       4.568  -1.388  -3.482  0.00  0.00    +0.000 A 
ATOM      5  C   UNL     1       5.188  -1.491  -2.235  0.00  0.00    +0.000 A 
ATOM      6  C   UNL     1       4.566  -0.978  -1.093  0.00  0.00    +0.000 A 
ENDROOT
BRANCH   1   8
ATOM      7  C   UNL     1       1.313   0.782  -0.008  0.00  0.00    +0.000 C 
ATOM      8  C   UNL     1       2.686   0.167   0.066  0.00  0.00    +0.000 C 
ATOM      9  O   UNL     1       3.297   0.102   1.132  0.00  0.00    +0.000 OA
ENDBRANCH   1   8
BRANCH   4  10
ATOM     10  S   UNL     1       5.379  -2.061  -4.918  0.00  0.00    +0.000 S 
BRANCH  10  11
ATOM     11  C   UNL     1       5.603  -0.532  -5.886  0.00  0.00    +0.000 C 
BRANCH  11  12
ATOM     12  C   UNL     1       6.419  -0.780  -7.130  0.00  0.00    +0.000 A 
ATOM     13  C   UNL     1       5.800  -1.193  -8.319  0.00  0.00    +0.000 A 
ATOM     14  C   UNL     1       6.558  -1.430  -9.467  0.00  0.00    +0.000 A 
ATOM     15  C   UNL     1       7.941  -1.263  -9.437  0.00  0.00    +0.000 A 
ATOM     16  C   UNL     1       8.569  -0.862  -8.259  0.00  0.00    +0.000 A 
ATOM     17  C   UNL     1       7.813  -0.625  -7.110  0.00  0.00    +0.000 A 
ENDBRANCH  11  12
ENDBRANCH  10  11
ENDBRANCH   4  10
TORSDOF 4
