REMARK  Name = *****
REMARK  3 active torsions:
REMARK  status: ('A' for Active; 'I' for Inactive)
REMARK    1  A    between atoms: C_4  and  O_7
REMARK    2  A    between atoms: O_7  and  C_8
REMARK    3  A    between atoms: C_8  and  C_10
REMARK                            x       y       z     vdW  Elec       q    Type
REMARK                         _______ _______ _______ _____ _____    ______ ____
ROOT
ATOM      1  C   UNL     1      -3.631  -0.748  -0.127  0.00  0.00    +0.000 C 
ATOM      2  O   UNL     1      -3.335  -1.844   0.324  0.00  0.00    +0.000 OA
ENDROOT
BRANCH   1   3
ATOM      3  C   UNL     1      -5.025  -0.381  -0.506  0.00  0.00    +0.000 A 
ATOM      4  C   UNL     1      -5.368   0.894  -0.977  0.00  0.00    +0.000 A 
ATOM      5  C   UNL     1      -6.692   1.168  -1.310  0.00  0.00    +0.000 A 
ATOM      6  C   UNL     1      -7.675   0.193  -1.182  0.00  0.00    +0.000 A 
ATOM      7  C   UNL     1      -7.349  -1.075  -0.717  0.00  0.00    +0.000 A 
ATOM      8  C   UNL     1      -6.023  -1.363  -0.378  0.00  0.00    +0.000 A 
ATOM      9  F   UNL     1      -8.945   0.468  -1.506  0.00  0.00    +0.000 F 
ATOM     10  F   UNL     1      -7.012   2.390  -1.758  0.00  0.00    +0.000 F 
ENDBRANCH   1   3
BRANCH   1  11
ATOM     11  O   UNL     1      -2.787   0.320  -0.368  0.00  0.00    +0.000 OA
BRANCH  11  15
ATOM     12  C   UNL     1       1.293  -0.070   0.440  0.00  0.00    +0.000 A 
ATOM     13  C   UNL     1       0.676  -0.993  -0.408  0.00  0.00    +0.000 A 
ATOM     14  C   UNL     1      -0.688  -0.890  -0.680  0.00  0.00    +0.000 A 
ATOM     15  C   UNL     1      -1.427   0.131  -0.083  0.00  0.00    +0.000 A 
ATOM     16  C   UNL     1      -0.816   1.070   0.747  0.00  0.00    +0.000 A 
ATOM     17  C   UNL     1       0.548   0.962   1.014  0.00  0.00    +0.000 A 
ENDBRANCH  11  15
ENDBRANCH   1  11
TORSDOF 3
