MODEL 1
REMARK VINA RESULT:      -4.6      0.000      0.000
REMARK  Name = *****
REMARK  5 active torsions:
REMARK  status: ('A' for Active; 'I' for Inactive)
REMARK    1  A    between atoms: C_1  and  C_2
REMARK    2  A    between atoms: C_5  and  C_8
REMARK    3  A    between atoms: C_8  and  S_9
REMARK    4  A    between atoms: S_9  and  C_10
REMARK    5  A    between atoms: C_11  and  C_16
REMARK                            x       y       z     vdW  Elec       q    Type
REMARK                         _______ _______ _______ _____ _____    ______ ____
ROOT
ATOM      1  C   UNL     1      88.433  64.916  86.278  0.00  0.00    +0.000 A 
ATOM      2  C   UNL     1      88.730  66.222  86.667  0.00  0.00    +0.000 A 
ATOM      3  C   UNL     1      90.002  66.728  86.342  0.00  0.00    +0.000 A 
ATOM      4  C   UNL     1      90.916  65.942  85.653  0.00  0.00    +0.000 A 
ATOM      5  C   UNL     1      90.532  64.664  85.307  0.00  0.00    +0.000 A 
ATOM      6  N   UNL     1      89.323  64.143  85.604  0.00  0.00    +0.000 NA
ENDROOT
BRANCH   2   7
ATOM      7  C   UNL     1      87.748  67.074  87.413  0.00  0.00    +0.000 C 
ATOM      8  F   UNL     1      87.377  66.548  88.613  0.00  0.00    +0.000 F 
ATOM      9  F   UNL     1      88.248  68.312  87.713  0.00  0.00    +0.000 F 
ATOM     10  F   UNL     1      86.603  67.318  86.720  0.00  0.00    +0.000 F 
ENDBRANCH   2   7
BRANCH   1  11
ATOM     11  S   UNL     1      86.845  64.166  86.599  0.00  0.00    +0.000 S 
BRANCH  11  12
ATOM     12  C   UNL     1      87.337  62.801  87.702  0.00  0.00    +0.000 C 
BRANCH  12  17
ATOM     13  C   UNL     1      88.176  64.694  93.151  0.00  0.00    +0.000 C 
ATOM     14  C   UNL     1      87.955  64.229  91.743  0.00  0.00    +0.000 A 
ATOM     15  C   UNL     1      89.047  63.988  90.901  0.00  0.00    +0.000 A 
ATOM     16  C   UNL     1      88.848  63.528  89.596  0.00  0.00    +0.000 A 
ATOM     17  C   UNL     1      87.553  63.289  89.115  0.00  0.00    +0.000 A 
ATOM     18  C   UNL     1      86.462  63.526  89.962  0.00  0.00    +0.000 A 
ATOM     19  C   UNL     1      86.663  63.984  91.267  0.00  0.00    +0.000 A 
ENDBRANCH  12  17
ENDBRANCH  11  12
ENDBRANCH   1  11
TORSDOF 4
ENDMDL
