REMARK  Name = *****
REMARK  5 active torsions:
REMARK  status: ('A' for Active; 'I' for Inactive)
REMARK    1  A    between atoms: C_1  and  C_2
REMARK    2  A    between atoms: C_4  and  C_17
REMARK    3  A    between atoms: C_6  and  O_8
REMARK    4  A    between atoms: O_8  and  C_9
REMARK    5  A    between atoms: C_9  and  C_11
REMARK                            x       y       z     vdW  Elec       q    Type
REMARK                         _______ _______ _______ _____ _____    ______ ____
ROOT
ATOM      1  O   UNL     1       3.173  -2.986  -2.215  0.00  0.00    +0.000 OA
ENDROOT
BRANCH   1   7
ATOM      2  C   UNL     1       0.851   0.023   0.147  0.00  0.00    +0.000 C 
ATOM      3  C   UNL     1       2.372  -0.012  -0.021  0.00  0.00    +0.000 C 
ATOM      4  C   UNL     1       2.864   1.067  -0.997  0.00  0.00    +0.000 C 
ATOM      5  C   UNL     1       2.543   0.747  -2.466  0.00  0.00    +0.000 C 
ATOM      6  C   UNL     1       3.065  -0.643  -2.848  0.00  0.00    +0.000 C 
ATOM      7  C   UNL     1       2.534  -1.731  -1.910  0.00  0.00    +0.000 C 
ATOM      8  C   UNL     1       2.865  -1.399  -0.452  0.00  0.00    +0.000 C 
ATOM      9  C   UNL     1       3.134   1.814  -3.387  0.00  0.00    +0.000 C 
ENDBRANCH   1   7
BRANCH   1  10
ATOM     10  C   UNL     1       2.622  -3.715  -3.227  0.00  0.00    +0.000 C 
ATOM     11  O   UNL     1       1.656  -3.367  -3.892  0.00  0.00    +0.000 OA
BRANCH  10  12
ATOM     12  C   UNL     1       3.418  -4.999  -3.435  0.00  0.00    +0.000 C 
ATOM     13  C   UNL     1       2.928  -5.790  -4.657  0.00  0.00    +0.000 C 
ATOM     14  C   UNL     1       1.616  -6.536  -4.410  0.00  0.00    +0.000 C 
ATOM     15  C   UNL     1       1.676  -7.396  -3.154  0.00  0.00    +0.000 C 
ATOM     16  C   UNL     1       2.098  -6.580  -1.937  0.00  0.00    +0.000 C 
ATOM     17  C   UNL     1       3.430  -5.872  -2.174  0.00  0.00    +0.000 C 
ENDBRANCH  10  12
ENDBRANCH   1  10
TORSDOF 3
