MODEL 1
REMARK VINA RESULT:      -4.6      0.000      0.000
REMARK  Name = *****
REMARK  5 active torsions:
REMARK  status: ('A' for Active; 'I' for Inactive)
REMARK    1  A    between atoms: C_4  and  C_7
REMARK    2  A    between atoms: C_7  and  C_8
REMARK    3  A    between atoms: C_8  and  C_9
REMARK    4  A    between atoms: C_14  and  C_15
REMARK    5  A    between atoms: C_15  and  C_16
REMARK                            x       y       z     vdW  Elec       q    Type
REMARK                         _______ _______ _______ _____ _____    ______ ____
ROOT
ATOM      1  C   UNL     1     103.362 126.837  81.278  0.00  0.00    +0.000 A 
ATOM      2  C   UNL     1     104.409 127.743  81.017  0.00  0.00    +0.000 A 
ATOM      3  C   UNL     1     104.602 128.874  81.807  0.00  0.00    +0.000 A 
ATOM      4  C   UNL     1     103.753 129.120  82.876  0.00  0.00    +0.000 A 
ATOM      5  C   UNL     1     102.717 128.231  83.158  0.00  0.00    +0.000 A 
ATOM      6  C   UNL     1     102.496 127.084  82.367  0.00  0.00    +0.000 A 
ENDROOT
BRANCH   1   7
ATOM      7  C   UNL     1     103.195 125.679  80.311  0.00  0.00    +0.000 C 
BRANCH   7   8
ATOM      8  C   UNL     1     104.463 124.815  80.280  0.00  0.00    +0.000 C 
BRANCH   8  12
ATOM      9  C   UNL     1     104.669 121.279  82.760  0.00  0.00    +0.000 A 
ATOM     10  C   UNL     1     104.419 122.512  83.360  0.00  0.00    +0.000 A 
ATOM     11  C   UNL     1     104.341 123.672  82.582  0.00  0.00    +0.000 A 
ATOM     12  C   UNL     1     104.509 123.611  81.193  0.00  0.00    +0.000 A 
ATOM     13  C   UNL     1     104.762 122.359  80.606  0.00  0.00    +0.000 A 
ATOM     14  C   UNL     1     104.840 121.202  81.383  0.00  0.00    +0.000 A 
ENDBRANCH   8  12
ENDBRANCH   7   8
ENDBRANCH   1   7
BRANCH   6  15
ATOM     15  C   UNL     1     101.344 126.172  82.748  0.00  0.00    +0.000 C 
BRANCH  15  16
ATOM     16  C   UNL     1     100.020 126.743  82.445  0.00  0.00    +0.000 C 
ATOM     17  N   UNL     1      98.988 127.219  82.211  0.00  0.00    +0.000 NA
ENDBRANCH  15  16
ENDBRANCH   6  15
TORSDOF 5
ENDMDL
