MODEL 1
REMARK VINA RESULT:      -4.2      0.000      0.000
REMARK  Name = *****
REMARK  4 active torsions:
REMARK  status: ('A' for Active; 'I' for Inactive)
REMARK    1  A    between atoms: C_4  and  S_7
REMARK    2  A    between atoms: S_7  and  C_8
REMARK    3  A    between atoms: C_8  and  C_9
REMARK    4  A    between atoms: C_12  and  C_15
REMARK                            x       y       z     vdW  Elec       q    Type
REMARK                         _______ _______ _______ _____ _____    ______ ____
ROOT
ATOM      1  C   UNL     1      86.996  68.802  88.225  0.00  0.00    +0.000 C 
ENDROOT
BRANCH   1   2
ATOM      2  C   UNL     1      88.034  67.978  87.502  0.00  0.00    +0.000 A 
ATOM      3  C   UNL     1      87.987  66.577  87.545  0.00  0.00    +0.000 A 
ATOM      4  C   UNL     1      88.956  65.813  86.889  0.00  0.00    +0.000 A 
ATOM      5  C   UNL     1      89.988  66.442  86.188  0.00  0.00    +0.000 A 
ATOM      6  C   UNL     1      90.048  67.838  86.147  0.00  0.00    +0.000 A 
ATOM      7  C   UNL     1      89.079  68.601  86.803  0.00  0.00    +0.000 A 
BRANCH   5   8
ATOM      8  C   UNL     1      90.983  65.659  85.514  0.00  0.00    +0.000 C 
ATOM      9  N   UNL     1      91.790  65.027  84.970  0.00  0.00    +0.000 NA
ENDBRANCH   5   8
ENDBRANCH   1   2
BRANCH   1  10
ATOM     10  S   UNL     1      87.529  70.537  88.390  0.00  0.00    +0.000 S 
BRANCH  10  14
ATOM     11  C   UNL     1      84.322  72.550  85.807  0.00  0.00    +0.000 A 
ATOM     12  C   UNL     1      84.179  72.535  87.193  0.00  0.00    +0.000 A 
ATOM     13  C   UNL     1      85.149  71.925  87.991  0.00  0.00    +0.000 A 
ATOM     14  C   UNL     1      86.273  71.333  87.406  0.00  0.00    +0.000 A 
ATOM     15  C   UNL     1      86.403  71.338  86.014  0.00  0.00    +0.000 A 
ATOM     16  C   UNL     1      85.432  71.949  85.216  0.00  0.00    +0.000 A 
ENDBRANCH  10  14
ENDBRANCH   1  10
TORSDOF 4
ENDMDL
