MODEL 1
REMARK VINA RESULT:      -4.4      0.000      0.000
REMARK  Name = *****
REMARK  5 active torsions:
REMARK  status: ('A' for Active; 'I' for Inactive)
REMARK    1  A    between atoms: C_1  and  O_2
REMARK    2  A    between atoms: O_2  and  N_3
REMARK    3  A    between atoms: N_3  and  C_4
REMARK    4  A    between atoms: N_3  and  C_12
REMARK    5  A    between atoms: C_4  and  C_5
REMARK                            x       y       z     vdW  Elec       q    Type
REMARK                         _______ _______ _______ _____ _____    ______ ____
ROOT
ATOM      1  N   UNL     1      88.697  69.981  86.763  0.00  0.00    +0.000 N 
ENDROOT
BRANCH   1   2
ATOM      2  C   UNL     1      88.808  68.564  86.786  0.00  0.00    +0.000 A 
ATOM      3  C   UNL     1      87.828  67.765  87.392  0.00  0.00    +0.000 A 
ATOM      4  C   UNL     1      87.953  66.373  87.432  0.00  0.00    +0.000 A 
ATOM      5  C   UNL     1      89.072  65.758  86.879  0.00  0.00    +0.000 A 
ATOM      6  C   UNL     1      90.069  66.533  86.294  0.00  0.00    +0.000 A 
ATOM      7  C   UNL     1      89.939  67.925  86.254  0.00  0.00    +0.000 A 
ENDBRANCH   1   2
BRANCH   1   9
ATOM      8  C   UNL     1      89.650  71.214  85.100  0.00  0.00    +0.000 C 
ATOM      9  O   UNL     1      89.852  70.720  86.424  0.00  0.00    +0.000 OA
ENDBRANCH   1   9
BRANCH   1  10
ATOM     10  C   UNL     1      88.094  70.524  87.998  0.00  0.00    +0.000 C 
BRANCH  10  11
ATOM     11  C   UNL     1      86.771  71.202  87.697  0.00  0.00    +0.000 A 
ATOM     12  C   UNL     1      85.925  71.599  88.746  0.00  0.00    +0.000 A 
ATOM     13  C   UNL     1      84.702  72.215  88.474  0.00  0.00    +0.000 A 
ATOM     14  C   UNL     1      84.316  72.434  87.153  0.00  0.00    +0.000 A 
ATOM     15  C   UNL     1      85.141  72.040  86.102  0.00  0.00    +0.000 A 
ATOM     16  C   UNL     1      86.364  71.423  86.373  0.00  0.00    +0.000 A 
ATOM     17 CL   UNL     1      82.807  73.191  86.819  0.00  0.00    +0.000 Cl
ENDBRANCH  10  11
ENDBRANCH   1  10
TORSDOF 4
ENDMDL
