MODEL 1
REMARK VINA RESULT:      -4.5      0.000      0.000
REMARK  Name = *****
REMARK  1 active torsions:
REMARK  status: ('A' for Active; 'I' for Inactive)
REMARK    1  A    between atoms: P_4  and  C_6
REMARK                            x       y       z     vdW  Elec       q    Type
REMARK                         _______ _______ _______ _____ _____    ______ ____
ROOT
ATOM      1  C   UNL     1      87.483  70.865  85.980  0.00  0.00    +0.000 A 
ATOM      2  C   UNL     1      86.231  71.492  85.851  0.00  0.00    +0.000 A 
ATOM      3  C   UNL     1      85.467  71.861  86.973  0.00  0.00    +0.000 A 
ATOM      4  C   UNL     1      84.218  72.492  86.837  0.00  0.00    +0.000 A 
ATOM      5  C   UNL     1      83.475  72.853  87.961  0.00  0.00    +0.000 A 
ATOM      6  C   UNL     1      83.967  72.589  89.235  0.00  0.00    +0.000 A 
ATOM      7  C   UNL     1      85.206  71.963  89.387  0.00  0.00    +0.000 A 
ATOM      8  C   UNL     1      85.966  71.596  88.265  0.00  0.00    +0.000 A 
ATOM      9  C   UNL     1      87.213  70.969  88.397  0.00  0.00    +0.000 A 
ATOM     10  C   UNL     1      87.960  70.612  87.268  0.00  0.00    +0.000 A 
ENDROOT
BRANCH   1  14
ATOM     11  C   UNL     1      89.696  72.761  83.826  0.00  0.00    +0.000 C 
ATOM     12  C   UNL     1      90.743  71.662  83.965  0.00  0.00    +0.000 C 
ATOM     13  C   UNL     1      90.169  70.623  84.928  0.00  0.00    +0.000 C 
ATOM     14  P   UNL     1      88.379  70.455  84.450  0.00  0.00    +0.000 P 
ATOM     15  C   UNL     1      88.364  72.075  83.532  0.00  0.00    +0.000 C 
ENDBRANCH   1  14
TORSDOF 1
ENDMDL
