MODEL 1
REMARK VINA RESULT:      -4.4      0.000      0.000
REMARK  Name = *****
REMARK  4 active torsions:
REMARK  status: ('A' for Active; 'I' for Inactive)
REMARK    1  A    between atoms: C_1  and  C_2
REMARK    2  A    between atoms: C_5  and  C_8
REMARK    3  A    between atoms: C_8  and  O_9
REMARK    4  A    between atoms: O_9  and  C_10
REMARK                            x       y       z     vdW  Elec       q    Type
REMARK                         _______ _______ _______ _____ _____    ______ ____
ROOT
ATOM      1  C   UNL     1     102.721 125.635  82.837  0.00  0.00    +0.000 C 
ENDROOT
BRANCH   1   6
ATOM      2  C   UNL     1     105.055 129.203  80.423  0.00  0.00    +0.000 C 
ATOM      3  C   UNL     1     104.969 127.685  80.574  0.00  0.00    +0.000 C 
ATOM      4  C   UNL     1     105.341 127.262  82.001  0.00  0.00    +0.000 C 
ATOM      5  C   UNL     1     105.199 125.754  82.199  0.00  0.00    +0.000 C 
ATOM      6  C   UNL     1     103.804 125.227  81.819  0.00  0.00    +0.000 C 
ATOM      7  C   UNL     1     103.435 125.674  80.398  0.00  0.00    +0.000 C 
ATOM      8  C   UNL     1     103.570 127.182  80.193  0.00  0.00    +0.000 C 
ENDBRANCH   1   6
BRANCH   1   9
ATOM      9  O   UNL     1     101.479 125.789  82.148  0.00  0.00    +0.000 OA
BRANCH   9  10
ATOM     10  C   UNL     1     100.668 126.816  82.544  0.00  0.00    +0.000 A 
ATOM     11  C   UNL     1      99.284 126.882  82.380  0.00  0.00    +0.000 A 
ATOM     12  C   UNL     1      98.575 127.998  82.835  0.00  0.00    +0.000 A 
ATOM     13  C   UNL     1      99.244 129.051  83.456  0.00  0.00    +0.000 A 
ATOM     14  C   UNL     1     100.626 128.990  83.624  0.00  0.00    +0.000 A 
ATOM     15  C   UNL     1     101.332 127.875  83.170  0.00  0.00    +0.000 A 
ENDBRANCH   9  10
ENDBRANCH   1   9
TORSDOF 3
ENDMDL
