MODEL 1
REMARK VINA RESULT:      -3.5      0.000      0.000
REMARK  Name = *****
REMARK  2 active torsions:
REMARK  status: ('A' for Active; 'I' for Inactive)
REMARK    1  A    between atoms: C_4  and  C_7
REMARK    2  A    between atoms: C_8  and  C_9
REMARK                            x       y       z     vdW  Elec       q    Type
REMARK                         _______ _______ _______ _____ _____    ______ ____
ROOT
ATOM      1  C   UNL     1      89.159  67.605  86.395  0.00  0.00    +0.000 C 
ATOM      2  C   UNL     1      89.178  66.284  86.661  0.00  0.00    +0.000 C 
ATOM      3 CL   UNL     1      88.142  65.601  87.882  0.00  0.00    +0.000 Cl
ENDROOT
BRANCH   1   7
ATOM      4  C   UNL     1      88.406  71.133  85.034  0.00  0.00    +0.000 C 
ATOM      5  C   UNL     1      89.651  70.808  85.844  0.00  0.00    +0.000 C 
ATOM      6  S   UNL     1      89.278  70.121  87.479  0.00  0.00    +0.000 S 
ATOM      7  C   UNL     1      88.306  68.657  87.039  0.00  0.00    +0.000 C 
ATOM      8  S   UNL     1      86.852  69.038  86.024  0.00  0.00    +0.000 S 
ATOM      9  C   UNL     1      87.610  69.905  84.622  0.00  0.00    +0.000 C 
ENDBRANCH   1   7
BRANCH   2  10
ATOM     10  C   UNL     1      90.031  65.350  85.975  0.00  0.00    +0.000 A 
ATOM     11  C   UNL     1      89.735  64.008  85.836  0.00  0.00    +0.000 A 
ATOM     12  S   UNL     1      90.939  63.155  84.968  0.00  0.00    +0.000 S 
ATOM     13  C   UNL     1      91.879  64.570  84.776  0.00  0.00    +0.000 A 
ATOM     14  C   UNL     1      91.284  65.668  85.359  0.00  0.00    +0.000 A 
ENDBRANCH   2  10
TORSDOF 2
ENDMDL
