MODEL 1
REMARK VINA RESULT:      -4.8      0.000      0.000
REMARK  Name = *****
REMARK  3 active torsions:
REMARK  status: ('A' for Active; 'I' for Inactive)
REMARK    1  A    between atoms: C_1  and  C_2
REMARK    2  A    between atoms: C_7  and  C_8
REMARK    3  A    between atoms: C_10  and  C_11
REMARK                            x       y       z     vdW  Elec       q    Type
REMARK                         _______ _______ _______ _____ _____    ______ ____
ROOT
ATOM      1  C   UNL     1      88.135  64.254  88.581  0.00  0.00    +0.000 C 
ATOM      2  C   UNL     1      88.588  63.933  87.179  0.00  0.00    +0.000 C 
ATOM      3  C   UNL     1      87.671  65.106  87.405  0.00  0.00    +0.000 C 
ENDROOT
BRANCH   1  10
ATOM      4  C   UNL     1      86.836  65.010  91.185  0.00  0.00    +0.000 C 
ATOM      5  C   UNL     1      86.539  63.694  90.516  0.00  0.00    +0.000 A 
ATOM      6  C   UNL     1      85.651  62.803  91.145  0.00  0.00    +0.000 A 
ATOM      7  C   UNL     1      85.343  61.575  90.566  0.00  0.00    +0.000 A 
ATOM      8  C   UNL     1      85.919  61.223  89.352  0.00  0.00    +0.000 A 
ATOM      9  C   UNL     1      86.812  62.096  88.728  0.00  0.00    +0.000 A 
ATOM     10  C   UNL     1      87.161  63.337  89.297  0.00  0.00    +0.000 A 
ENDBRANCH   1  10
BRANCH   3  11
ATOM     11  C   UNL     1      88.188  66.516  87.249  0.00  0.00    +0.000 A 
ATOM     12  C   UNL     1      89.360  66.784  86.519  0.00  0.00    +0.000 A 
ATOM     13  C   UNL     1      89.834  68.089  86.357  0.00  0.00    +0.000 A 
ATOM     14  C   UNL     1      89.136  69.152  86.920  0.00  0.00    +0.000 A 
ATOM     15  C   UNL     1      87.969  68.920  87.639  0.00  0.00    +0.000 A 
ATOM     16  C   UNL     1      87.500  67.612  87.797  0.00  0.00    +0.000 A 
ATOM     17 CL   UNL     1      89.715  70.759  86.723  0.00  0.00    +0.000 Cl
ENDBRANCH   3  11
TORSDOF 2
ENDMDL
