REMARK  Name = *****
REMARK  6 active torsions:
REMARK  status: ('A' for Active; 'I' for Inactive)
REMARK    1  A    between atoms: C_1  and  C_2
REMARK    2  A    between atoms: C_5  and  C_8
REMARK    3  A    between atoms: C_8  and  S_9
REMARK    4  A    between atoms: C_8  and  N_11
REMARK    5  A    between atoms: N_11  and  C_12
REMARK    6  A    between atoms: C_15  and  C_18
REMARK                            x       y       z     vdW  Elec       q    Type
REMARK                         _______ _______ _______ _____ _____    ______ ____
ROOT
ATOM      1  C   UNL     1      -3.325  -0.316   0.062  0.00  0.00    +0.000 C 
ENDROOT
BRANCH   1   6
ATOM      2  C   UNL     1       2.440   0.315   0.135  0.00  0.00    +0.000 C 
ATOM      3  C   UNL     1       0.947   0.181   0.054  0.00  0.00    +0.000 A 
ATOM      4  C   UNL     1       0.358  -0.793  -0.760  0.00  0.00    +0.000 A 
ATOM      5  C   UNL     1      -1.031  -0.945  -0.792  0.00  0.00    +0.000 A 
ATOM      6  C   UNL     1      -1.849  -0.133   0.000  0.00  0.00    +0.000 A 
ATOM      7  C   UNL     1      -1.263   0.866   0.790  0.00  0.00    +0.000 A 
ATOM      8  C   UNL     1       0.126   1.021   0.814  0.00  0.00    +0.000 A 
ENDBRANCH   1   6
BRANCH   1   9
ATOM      9  S   UNL     1      -3.995  -1.821   0.129  0.00  0.00    +0.000 S 
ATOM     10  O   UNL     1      -3.040  -2.961   0.169  0.00  0.00    +0.000 OA
ENDBRANCH   1   9
BRANCH   1  11
ATOM     11  N   UNL     1      -4.072   0.858   0.006  0.00  0.00    +0.000 N 
ATOM     12  H   UNL     1      -3.610   1.639  -0.375  0.00  0.00    +0.000 HD
BRANCH  11  13
ATOM     13  C   UNL     1      -5.404   1.078   0.422  0.00  0.00    +0.000 A 
ATOM     14  C   UNL     1      -6.016   0.340   1.438  0.00  0.00    +0.000 A 
ATOM     15  C   UNL     1      -7.333   0.608   1.820  0.00  0.00    +0.000 A 
ATOM     16  C   UNL     1      -8.057   1.630   1.202  0.00  0.00    +0.000 A 
ATOM     17  C   UNL     1      -7.433   2.395   0.211  0.00  0.00    +0.000 A 
ATOM     18  C   UNL     1      -6.110   2.133  -0.162  0.00  0.00    +0.000 A 
ATOM     19  C   UNL     1      -9.484   1.896   1.581  0.00  0.00    +0.000 C 
ENDBRANCH  11  13
ENDBRANCH   1  11
TORSDOF 4
