REMARK  Name = *****
REMARK  1 active torsions:
REMARK  status: ('A' for Active; 'I' for Inactive)
REMARK    1  A    between atoms: C_3  and  C_11
REMARK                            x       y       z     vdW  Elec       q    Type
REMARK                         _______ _______ _______ _____ _____    ______ ____
ROOT
ATOM      1  C   UNL     1       1.262   1.474   0.270  0.00  0.00    +0.000 C 
ATOM      2  C   UNL     1       2.453   0.732  -0.347  0.00  0.00    +0.000 C 
ATOM      3  C   UNL     1       2.461  -0.763  -0.056  0.00  0.00    +0.000 C 
ATOM      4  C   UNL     1       1.280  -1.396   0.123  0.00  0.00    +0.000 C 
ATOM      5  C   UNL     1      -0.002  -0.683   0.042  0.00  0.00    +0.000 A 
ATOM      6  C   UNL     1      -1.204  -1.392  -0.060  0.00  0.00    +0.000 A 
ATOM      7  C   UNL     1      -2.421  -0.711  -0.117  0.00  0.00    +0.000 A 
ATOM      8  C   UNL     1      -2.446   0.681  -0.062  0.00  0.00    +0.000 A 
ATOM      9  C   UNL     1      -1.254   1.397   0.049  0.00  0.00    +0.000 A 
ATOM     10  C   UNL     1      -0.028   0.721   0.091  0.00  0.00    +0.000 A 
ENDROOT
BRANCH   3  11
ATOM     11  C   UNL     1       3.659  -1.558   0.024  0.00  0.00    +0.000 A 
ATOM     12  C   UNL     1       3.964  -2.627   0.855  0.00  0.00    +0.000 A 
ATOM     13  C   UNL     1       5.265  -3.164   0.632  0.00  0.00    +0.000 A 
ATOM     14  C   UNL     1       5.932  -2.492  -0.363  0.00  0.00    +0.000 A 
ATOM     15  S   UNL     1       4.995  -1.224  -1.018  0.00  0.00    +0.000 S 
ENDBRANCH   3  11
TORSDOF 1
