MODEL 1
REMARK VINA RESULT:      -4.6      0.000      0.000
REMARK  Name = *****
REMARK  3 active torsions:
REMARK  status: ('A' for Active; 'I' for Inactive)
REMARK    1  A    between atoms: C_4  and  O_7
REMARK    2  A    between atoms: O_7  and  C_8
REMARK    3  A    between atoms: C_8  and  C_10
REMARK                            x       y       z     vdW  Elec       q    Type
REMARK                         _______ _______ _______ _____ _____    ______ ____
ROOT
ATOM      1  C   UNL     1     101.367 126.948  82.845  0.00  0.00    +0.000 A 
ATOM      2  C   UNL     1     100.010 126.931  82.530  0.00  0.00    +0.000 A 
ATOM      3  C   UNL     1      99.203 128.010  82.872  0.00  0.00    +0.000 A 
ATOM      4  C   UNL     1      99.748 129.109  83.525  0.00  0.00    +0.000 A 
ATOM      5  C   UNL     1     101.103 129.129  83.835  0.00  0.00    +0.000 A 
ATOM      6  C   UNL     1     101.913 128.052  83.492  0.00  0.00    +0.000 A 
ATOM      7  F   UNL     1     103.213 128.079  83.820  0.00  0.00    +0.000 F 
ATOM      8  F   UNL     1     101.628 130.186  84.471  0.00  0.00    +0.000 F 
ATOM      9  F   UNL     1      98.969 130.146  83.857  0.00  0.00    +0.000 F 
ATOM     10  F   UNL     1      97.898 127.991  82.569  0.00  0.00    +0.000 F 
ATOM     11  F   UNL     1      99.473 125.887  81.883  0.00  0.00    +0.000 F 
ENDROOT
BRANCH   1  12
ATOM     12  C   UNL     1     102.233 125.834  82.467  0.00  0.00    +0.000 C 
ATOM     13  O   UNL     1     102.637 125.007  83.264  0.00  0.00    +0.000 OA
BRANCH  12  14
ATOM     14  O   UNL     1     102.431 125.906  81.104  0.00  0.00    +0.000 OA
BRANCH  14  18
ATOM     15  C   UNL     1     106.381 125.926  79.758  0.00  0.00    +0.000 A 
ATOM     16  C   UNL     1     105.646 124.741  79.692  0.00  0.00    +0.000 A 
ATOM     17  C   UNL     1     104.328 124.711  80.149  0.00  0.00    +0.000 A 
ATOM     18  C   UNL     1     103.766 125.868  80.685  0.00  0.00    +0.000 A 
ATOM     19  C   UNL     1     104.485 127.061  80.736  0.00  0.00    +0.000 A 
ATOM     20  C   UNL     1     105.801 127.086  80.277  0.00  0.00    +0.000 A 
ENDBRANCH  14  18
ENDBRANCH  12  14
ENDBRANCH   1  12
TORSDOF 3
ENDMDL
