REMARK  Name = *****
REMARK  4 active torsions:
REMARK  status: ('A' for Active; 'I' for Inactive)
REMARK    1  A    between atoms: C_4  and  C_7
REMARK    2  A    between atoms: C_7  and  O_8
REMARK    3  A    between atoms: O_8  and  C_9
REMARK    4  A    between atoms: C_10  and  S_17
REMARK                            x       y       z     vdW  Elec       q    Type
REMARK                         _______ _______ _______ _____ _____    ______ ____
ROOT
ATOM      1  C   UNL     1      -4.846  -0.723  -0.394  0.00  0.00    +0.000 A 
ATOM      2  C   UNL     1      -5.552  -0.949  -1.590  0.00  0.00    +0.000 A 
ATOM      3  C   UNL     1      -6.937  -1.158  -1.545  0.00  0.00    +0.000 A 
ATOM      4  C   UNL     1      -7.601  -1.172  -0.320  0.00  0.00    +0.000 A 
ATOM      5  C   UNL     1      -6.903  -0.993   0.869  0.00  0.00    +0.000 A 
ATOM      6  C   UNL     1      -5.524  -0.783   0.834  0.00  0.00    +0.000 A 
ATOM      7 CL   UNL     1      -4.692  -0.645   2.342  0.00  0.00    +0.000 Cl
ATOM      8 CL   UNL     1      -9.301  -1.434  -0.279  0.00  0.00    +0.000 Cl
ENDROOT
BRANCH   2   9
ATOM      9  S   UNL     1      -4.762  -0.972  -3.227  0.00  0.00    +0.000 S 
ATOM     10  O   UNL     1      -4.097   0.366  -3.338  0.00  0.00    +0.000 OA
ATOM     11  O   UNL     1      -3.609  -1.990  -2.773  0.00  0.00    +0.000 OA
ENDBRANCH   2   9
BRANCH   1  12
ATOM     12  O   UNL     1      -3.482  -0.566  -0.432  0.00  0.00    +0.000 OA
BRANCH  12  13
ATOM     13  C   UNL     1      -3.107   0.816  -0.331  0.00  0.00    +0.000 C 
BRANCH  13  17
ATOM     14  C   UNL     1       1.098   1.000  -1.268  0.00  0.00    +0.000 A 
ATOM     15  C   UNL     1       0.158   1.442  -2.198  0.00  0.00    +0.000 A 
ATOM     16  C   UNL     1      -1.204   1.390  -1.895  0.00  0.00    +0.000 A 
ATOM     17  C   UNL     1      -1.637   0.900  -0.656  0.00  0.00    +0.000 A 
ATOM     18  C   UNL     1      -0.683   0.450   0.268  0.00  0.00    +0.000 A 
ATOM     19  C   UNL     1       0.678   0.503  -0.036  0.00  0.00    +0.000 A 
ENDBRANCH  13  17
ENDBRANCH  12  13
ENDBRANCH   1  12
TORSDOF 4
