MODEL 1
REMARK VINA RESULT:      -4.1      0.000      0.000
REMARK  Name = *****
REMARK  4 active torsions:
REMARK  status: ('A' for Active; 'I' for Inactive)
REMARK    1  A    between atoms: C_4  and  N_7
REMARK    2  A    between atoms: N_7  and  N_8
REMARK    3  A    between atoms: N_8  and  C_9
REMARK    4  A    between atoms: C_9  and  C_10
REMARK                            x       y       z     vdW  Elec       q    Type
REMARK                         _______ _______ _______ _____ _____    ______ ____
ROOT
ATOM      1  N   UNL     1     101.159 126.684  82.493  0.00  0.00    +0.000 NA
ENDROOT
BRANCH   1   2
ATOM      2  N   UNL     1      99.991 127.427  82.956  0.00  0.00    +0.000 NA
BRANCH   2   6
ATOM      3  C   UNL     1     100.664 131.256  84.529  0.00  0.00    +0.000 A 
ATOM      4  C   UNL     1     101.660 130.292  84.639  0.00  0.00    +0.000 A 
ATOM      5  C   UNL     1     101.457 129.007  84.121  0.00  0.00    +0.000 A 
ATOM      6  C   UNL     1     100.260 128.645  83.482  0.00  0.00    +0.000 A 
ATOM      7  C   UNL     1      99.276 129.643  83.385  0.00  0.00    +0.000 A 
ATOM      8  C   UNL     1      99.468 130.931  83.900  0.00  0.00    +0.000 A 
ENDBRANCH   2   6
ENDBRANCH   1   2
BRANCH   1   9
ATOM      9  C   UNL     1     102.023 126.079  82.134  0.00  0.00    +0.000 C 
BRANCH   9  10
ATOM     10  C   UNL     1     103.129 125.300  81.674  0.00  0.00    +0.000 A 
ATOM     11  C   UNL     1     103.589 125.447  80.363  0.00  0.00    +0.000 A 
ATOM     12  C   UNL     1     104.672 124.688  79.911  0.00  0.00    +0.000 A 
ATOM     13  C   UNL     1     105.288 123.784  80.777  0.00  0.00    +0.000 A 
ATOM     14  C   UNL     1     104.834 123.632  82.087  0.00  0.00    +0.000 A 
ATOM     15  C   UNL     1     103.751 124.393  82.535  0.00  0.00    +0.000 A 
ATOM     16 CL   UNL     1     106.623 122.848  80.222  0.00  0.00    +0.000 Cl
ENDBRANCH   9  10
ENDBRANCH   1   9
TORSDOF 4
ENDMDL
