MODEL 1
REMARK VINA RESULT:      -4.5      0.000      0.000
REMARK  Name = *****
REMARK  4 active torsions:
REMARK  status: ('A' for Active; 'I' for Inactive)
REMARK    1  A    between atoms: C_7  and  C_9
REMARK    2  A    between atoms: C_9  and  O_11
REMARK    3  A    between atoms: O_11  and  C_12
REMARK    4  A    between atoms: C_12  and  C_13
REMARK                            x       y       z     vdW  Elec       q    Type
REMARK                         _______ _______ _______ _____ _____    ______ ____
ROOT
ATOM      1  C   UNL     1      89.540  67.359  86.292  0.00  0.00    +0.000 C 
ATOM      2  O   UNL     1      90.709  67.037  86.452  0.00  0.00    +0.000 OA
ENDROOT
BRANCH   1   9
ATOM      3  C   UNL     1      89.218  71.052  85.070  0.00  0.00    +0.000 C 
ATOM      4  C   UNL     1      87.724  71.356  85.322  0.00  0.00    +0.000 C 
ATOM      5  C   UNL     1      87.120  70.393  86.359  0.00  0.00    +0.000 C 
ATOM      6  C   UNL     1      88.003  70.392  87.585  0.00  0.00    +0.000 C 
ATOM      7  C   UNL     1      89.316  70.183  87.387  0.00  0.00    +0.000 C 
ATOM      8  C   UNL     1      89.710  69.879  85.952  0.00  0.00    +0.000 C 
ATOM      9  C   UNL     1      89.024  68.561  85.497  0.00  0.00    +0.000 C 
ATOM     10  S   UNL     1      87.172  68.707  85.633  0.00  0.00    +0.000 S 
ENDBRANCH   1   9
BRANCH   1  11
ATOM     11  O   UNL     1      88.477  66.684  86.825  0.00  0.00    +0.000 OA
BRANCH  11  12
ATOM     12  C   UNL     1      88.707  65.310  87.168  0.00  0.00    +0.000 C 
BRANCH  12  13
ATOM     13  C   UNL     1      88.080  65.013  88.506  0.00  0.00    +0.000 A 
ATOM     14  C   UNL     1      88.655  64.069  89.367  0.00  0.00    +0.000 A 
ATOM     15  C   UNL     1      88.090  63.814  90.618  0.00  0.00    +0.000 A 
ATOM     16  C   UNL     1      86.943  64.498  91.018  0.00  0.00    +0.000 A 
ATOM     17  C   UNL     1      86.356  65.430  90.165  0.00  0.00    +0.000 A 
ATOM     18  C   UNL     1      86.918  65.684  88.912  0.00  0.00    +0.000 A 
ENDBRANCH  12  13
ENDBRANCH  11  12
ENDBRANCH   1  11
TORSDOF 4
ENDMDL
