REMARK  Name = *****
REMARK  5 active torsions:
REMARK  status: ('A' for Active; 'I' for Inactive)
REMARK    1  A    between atoms: C_1  and  C_2
REMARK    2  A    between atoms: C_3  and  C_16
REMARK    3  A    between atoms: C_5  and  O_8
REMARK    4  A    between atoms: O_8  and  C_9
REMARK    5  A    between atoms: C_9  and  C_10
REMARK                            x       y       z     vdW  Elec       q    Type
REMARK                         _______ _______ _______ _____ _____    ______ ____
ROOT
ATOM      1  C   UNL     1       1.877   1.592   0.331  0.00  0.00    +0.000 C 
ATOM      2  C   UNL     1       0.659   0.772   0.003  0.00  0.00    +0.000 A 
ATOM      3  C   UNL     1       0.696  -0.637   0.008  0.00  0.00    +0.000 A 
ATOM      4  C   UNL     1      -0.470  -1.362  -0.308  0.00  0.00    +0.000 A 
ATOM      5  C   UNL     1      -1.661  -0.705  -0.618  0.00  0.00    +0.000 A 
ATOM      6  C   UNL     1      -1.690   0.688  -0.612  0.00  0.00    +0.000 A 
ATOM      7  C   UNL     1      -0.543   1.422  -0.305  0.00  0.00    +0.000 A 
ATOM      8  C   UNL     1       1.961  -1.384   0.331  0.00  0.00    +0.000 C 
ENDROOT
BRANCH   5   9
ATOM      9  O   UNL     1      -2.852  -1.296  -0.939  0.00  0.00    +0.000 OA
BRANCH   9  10
ATOM     10  C   UNL     1      -2.881  -2.720  -0.979  0.00  0.00    +0.000 C 
BRANCH  10  11
ATOM     11  C   UNL     1      -4.274  -3.152  -1.367  0.00  0.00    +0.000 A 
ATOM     12  C   UNL     1      -4.604  -3.372  -2.712  0.00  0.00    +0.000 A 
ATOM     13  C   UNL     1      -5.897  -3.758  -3.069  0.00  0.00    +0.000 A 
ATOM     14  C   UNL     1      -6.874  -3.918  -2.088  0.00  0.00    +0.000 A 
ATOM     15  C   UNL     1      -6.561  -3.686  -0.750  0.00  0.00    +0.000 A 
ATOM     16  C   UNL     1      -5.269  -3.301  -0.390  0.00  0.00    +0.000 A 
ENDBRANCH  10  11
ENDBRANCH   9  10
ENDBRANCH   5   9
TORSDOF 3
