MODEL 1
REMARK VINA RESULT:      -4.6      0.000      0.000
REMARK  Name = *****
REMARK  2 active torsions:
REMARK  status: ('A' for Active; 'I' for Inactive)
REMARK    1  A    between atoms: C_7  and  C_8
REMARK    2  A    between atoms: C_9  and  C_10
REMARK                            x       y       z     vdW  Elec       q    Type
REMARK                         _______ _______ _______ _____ _____    ______ ____
ROOT
ATOM      1  C   UNL     1      97.920 117.495  79.669  0.00  0.00    +0.000 C 
ATOM      2  C   UNL     1      97.993 118.434  80.415  0.00  0.00    +0.000 C 
ENDROOT
BRANCH   1   9
ATOM      3  C   UNL     1      95.702 117.734  74.974  0.00  0.00    +0.000 C 
ATOM      4  C   UNL     1      96.009 117.060  76.083  0.00  0.00    +0.000 C 
ATOM      5  C   UNL     1      95.647 117.225  77.546  0.00  0.00    +0.000 C 
ATOM      6  C   UNL     1      96.732 116.230  77.818  0.00  0.00    +0.000 C 
ATOM      7  C   UNL     1      96.871 115.849  76.378  0.00  0.00    +0.000 C 
ATOM      8  C   UNL     1      96.818 115.316  79.000  0.00  0.00    +0.000 C 
ATOM      9  C   UNL     1      97.877 116.369  78.783  0.00  0.00    +0.000 C 
ENDBRANCH   1   9
BRANCH   2  10
ATOM     10  C   UNL     1      98.116 119.590  81.326  0.00  0.00    +0.000 C 
ATOM     11  C   UNL     1      98.891 119.208  82.594  0.00  0.00    +0.000 C 
ATOM     12  C   UNL     1      98.084 118.315  83.537  0.00  0.00    +0.000 C 
ATOM     13  C   UNL     1      96.732 118.931  83.879  0.00  0.00    +0.000 C 
ATOM     14  C   UNL     1      95.936 119.280  82.626  0.00  0.00    +0.000 C 
ATOM     15  C   UNL     1      96.736 120.168  81.671  0.00  0.00    +0.000 C 
ENDBRANCH   2  10
TORSDOF 2
ENDMDL
