MODEL 1
REMARK VINA RESULT:      -4.6      0.000      0.000
REMARK  Name = *****
REMARK  3 active torsions:
REMARK  status: ('A' for Active; 'I' for Inactive)
REMARK    1  A    between atoms: C_1  and  C_2
REMARK    2  A    between atoms: C_1  and  C_8
REMARK    3  A    between atoms: C_8  and  C_9
REMARK                            x       y       z     vdW  Elec       q    Type
REMARK                         _______ _______ _______ _____ _____    ______ ____
ROOT
ATOM      1  C   UNL     1      88.771  70.287  86.873  0.00  0.00    +0.000 C 
ATOM      2  F   UNL     1      89.985  70.865  86.607  0.00  0.00    +0.000 F 
ENDROOT
BRANCH   1   3
ATOM      3  C   UNL     1      88.862  68.776  86.880  0.00  0.00    +0.000 A 
ATOM      4  C   UNL     1      89.969  68.127  86.314  0.00  0.00    +0.000 A 
ATOM      5  C   UNL     1      90.046  66.734  86.306  0.00  0.00    +0.000 A 
ATOM      6  C   UNL     1      89.018  65.975  86.861  0.00  0.00    +0.000 A 
ATOM      7  C   UNL     1      87.912  66.608  87.426  0.00  0.00    +0.000 A 
ATOM      8  C   UNL     1      87.833  68.002  87.436  0.00  0.00    +0.000 A 
ENDBRANCH   1   3
BRANCH   1   9
ATOM      9  C   UNL     1      87.768  70.777  85.819  0.00  0.00    +0.000 C 
BRANCH   9  10
ATOM     10  C   UNL     1      86.511  71.343  86.439  0.00  0.00    +0.000 A 
ATOM     11  C   UNL     1      85.514  71.909  85.631  0.00  0.00    +0.000 A 
ATOM     12  C   UNL     1      84.359  72.443  86.203  0.00  0.00    +0.000 A 
ATOM     13  C   UNL     1      84.187  72.417  87.586  0.00  0.00    +0.000 A 
ATOM     14  C   UNL     1      85.173  71.859  88.398  0.00  0.00    +0.000 A 
ATOM     15  C   UNL     1      86.330  71.324  87.829  0.00  0.00    +0.000 A 
ENDBRANCH   9  10
ENDBRANCH   1   9
TORSDOF 3
ENDMDL
