MODEL 1
REMARK VINA RESULT:      -4.3      0.000      0.000
REMARK  Name = *****
REMARK  6 active torsions:
REMARK  status: ('A' for Active; 'I' for Inactive)
REMARK    1  A    between atoms: C_1  and  O_2
REMARK    2  A    between atoms: O_2  and  C_3
REMARK    3  A    between atoms: C_3  and  C_5
REMARK    4  A    between atoms: C_5  and  C_6
REMARK    5  A    between atoms: C_5  and  S_12
REMARK    6  A    between atoms: S_12  and  C_13
REMARK                            x       y       z     vdW  Elec       q    Type
REMARK                         _______ _______ _______ _____ _____    ______ ____
ROOT
ATOM      1  C   UNL     1      89.024  69.459  86.301  0.00  0.00    +0.000 C 
ENDROOT
BRANCH   1   2
ATOM      2  C   UNL     1      88.202  70.238  87.316  0.00  0.00    +0.000 A 
ATOM      3  C   UNL     1      86.937  70.758  86.992  0.00  0.00    +0.000 A 
ATOM      4  C   UNL     1      86.193  71.464  87.939  0.00  0.00    +0.000 A 
ATOM      5  C   UNL     1      86.700  71.659  89.221  0.00  0.00    +0.000 A 
ATOM      6  C   UNL     1      87.954  71.152  89.557  0.00  0.00    +0.000 A 
ATOM      7  C   UNL     1      88.702  70.447  88.612  0.00  0.00    +0.000 A 
ENDBRANCH   1   2
BRANCH   1   8
ATOM      8  C   UNL     1      89.140  67.981  86.683  0.00  0.00    +0.000 C 
ATOM      9  O   UNL     1      88.237  67.266  87.102  0.00  0.00    +0.000 OA
BRANCH   8  11
ATOM     10  C   UNL     1      90.583  66.351  85.807  0.00  0.00    +0.000 C 
ATOM     11  O   UNL     1      90.439  67.570  86.536  0.00  0.00    +0.000 OA
ENDBRANCH   8  11
ENDBRANCH   1   8
BRANCH   1  12
ATOM     12  S   UNL     1      88.332  69.654  84.603  0.00  0.00    +0.000 S 
BRANCH  12  13
ATOM     13  C   UNL     1      89.244  71.086  84.063  0.00  0.00    +0.000 A 
ATOM     14  C   UNL     1      88.588  72.315  83.946  0.00  0.00    +0.000 A 
ATOM     15  C   UNL     1      89.285  73.449  83.527  0.00  0.00    +0.000 A 
ATOM     16  C   UNL     1      90.644  73.361  83.230  0.00  0.00    +0.000 A 
ATOM     17  C   UNL     1      91.307  72.142  83.355  0.00  0.00    +0.000 A 
ATOM     18  C   UNL     1      90.611  71.007  83.775  0.00  0.00    +0.000 A 
ENDBRANCH  12  13
ENDBRANCH   1  12
TORSDOF 5
ENDMDL
