REMARK  Name = *****
REMARK  5 active torsions:
REMARK  status: ('A' for Active; 'I' for Inactive)
REMARK    1  A    between atoms: C_1  and  C_2
REMARK    2  A    between atoms: C_5  and  C_8
REMARK    3  A    between atoms: C_8  and  C_9
REMARK    4  A    between atoms: C_9  and  C_10
REMARK    5  A    between atoms: C_10  and  C_11
REMARK                            x       y       z     vdW  Elec       q    Type
REMARK                         _______ _______ _______ _____ _____    ______ ____
ROOT
ATOM      1  C   UNL     1      -3.262   0.070  -0.042  0.00  0.00    +0.000 C 
ENDROOT
BRANCH   1   6
ATOM      2  C   UNL     1       2.562   0.022  -0.046  0.00  0.00    +0.000 C 
ATOM      3  C   UNL     1       1.063   0.000  -0.042  0.00  0.00    +0.000 A 
ATOM      4  C   UNL     1       0.354   0.058   1.162  0.00  0.00    +0.000 A 
ATOM      5  C   UNL     1      -1.043   0.072   1.163  0.00  0.00    +0.000 A 
ATOM      6  C   UNL     1      -1.755   0.035  -0.042  0.00  0.00    +0.000 A 
ATOM      7  C   UNL     1      -1.045   0.000  -1.248  0.00  0.00    +0.000 A 
ATOM      8  C   UNL     1       0.352  -0.014  -1.248  0.00  0.00    +0.000 A 
ENDBRANCH   1   6
BRANCH   1   9
ATOM      9  C   UNL     1      -3.797   1.503  -0.046  0.00  0.00    +0.000 C 
BRANCH   9  10
ATOM     10  C   UNL     1      -5.327   1.517  -0.051  0.00  0.00    +0.000 C 
BRANCH  10  11
ATOM     11  C   UNL     1      -5.873   2.923  -0.047  0.00  0.00    +0.000 A 
ATOM     12  C   UNL     1      -6.102   3.600  -1.252  0.00  0.00    +0.000 A 
ATOM     13  C   UNL     1      -6.591   4.907  -1.248  0.00  0.00    +0.000 A 
ATOM     14  C   UNL     1      -6.851   5.551  -0.039  0.00  0.00    +0.000 A 
ATOM     15  C   UNL     1      -6.619   4.890   1.165  0.00  0.00    +0.000 A 
ATOM     16  C   UNL     1      -6.130   3.582   1.162  0.00  0.00    +0.000 A 
ENDBRANCH  10  11
ENDBRANCH   9  10
ENDBRANCH   1   9
TORSDOF 4
