MODEL 1
REMARK VINA RESULT:      -4.7      0.000      0.000
REMARK  Name = *****
REMARK  2 active torsions:
REMARK  status: ('A' for Active; 'I' for Inactive)
REMARK    1  A    between atoms: C_4  and  C_7
REMARK    2  A    between atoms: C_8  and  C_9
REMARK                            x       y       z     vdW  Elec       q    Type
REMARK                         _______ _______ _______ _____ _____    ______ ____
ROOT
ATOM      1  C   UNL     1     102.967 125.644  81.418  0.00  0.00    +0.000 C 
ATOM      2  C   UNL     1     102.099 126.306  81.918  0.00  0.00    +0.000 C 
ENDROOT
BRANCH   2   3
ATOM      3  C   UNL     1     101.066 127.102  82.513  0.00  0.00    +0.000 A 
ATOM      4  C   UNL     1      99.732 126.735  82.292  0.00  0.00    +0.000 A 
ATOM      5  C   UNL     1      98.691 127.480  82.850  0.00  0.00    +0.000 A 
ATOM      6  C   UNL     1      98.975 128.599  83.631  0.00  0.00    +0.000 A 
ATOM      7  C   UNL     1     100.300 128.973  83.858  0.00  0.00    +0.000 A 
ATOM      8  C   UNL     1     101.345 128.227  83.301  0.00  0.00    +0.000 A 
ATOM      9 BR   UNL     1     103.123 128.802  83.654  0.00  0.00    +0.000 Br
ENDBRANCH   2   3
BRANCH   1  13
ATOM     10  C   UNL     1     106.058 123.359  79.669  0.00  0.00    +0.000 A 
ATOM     11  C   UNL     1     105.786 124.643  79.194  0.00  0.00    +0.000 A 
ATOM     12  C   UNL     1     104.764 125.399  79.771  0.00  0.00    +0.000 A 
ATOM     13  C   UNL     1     104.013 124.872  80.824  0.00  0.00    +0.000 A 
ATOM     14  C   UNL     1     104.288 123.586  81.299  0.00  0.00    +0.000 A 
ATOM     15  C   UNL     1     105.310 122.831  80.721  0.00  0.00    +0.000 A 
ENDBRANCH   1  13
TORSDOF 2
ENDMDL
