MODEL 1
REMARK VINA RESULT:      -4.2      0.000      0.000
REMARK  Name = *****
REMARK  3 active torsions:
REMARK  status: ('A' for Active; 'I' for Inactive)
REMARK    1  A    between atoms: C_4  and  C_7
REMARK    2  A    between atoms: C_8  and  C_9
REMARK    3  A    between atoms: C_10  and  C_14
REMARK                            x       y       z     vdW  Elec       q    Type
REMARK                         _______ _______ _______ _____ _____    ______ ____
ROOT
ATOM      1  C   UNL     1     102.096 126.149  82.310  0.00  0.00    +0.000 C 
ATOM      2  C   UNL     1     102.980 125.394  82.009  0.00  0.00    +0.000 C 
ENDROOT
BRANCH   1   6
ATOM      3  C   UNL     1      98.996 128.815  83.369  0.00  0.00    +0.000 A 
ATOM      4  C   UNL     1      98.696 127.622  82.709  0.00  0.00    +0.000 A 
ATOM      5  C   UNL     1      99.721 126.742  82.358  0.00  0.00    +0.000 A 
ATOM      6  C   UNL     1     101.047 127.052  82.668  0.00  0.00    +0.000 A 
ATOM      7  C   UNL     1     101.345 128.248  83.329  0.00  0.00    +0.000 A 
ATOM      8  C   UNL     1     100.319 129.127  83.679  0.00  0.00    +0.000 A 
ENDBRANCH   1   6
BRANCH   2   9
ATOM      9  C   UNL     1     104.031 124.494  81.651  0.00  0.00    +0.000 A 
ATOM     10  C   UNL     1     104.609 123.543  82.473  0.00  0.00    +0.000 A 
ATOM     11  C   UNL     1     105.635 122.817  81.779  0.00  0.00    +0.000 A 
ATOM     12  C   UNL     1     105.795 123.234  80.478  0.00  0.00    +0.000 A 
ATOM     13  S   UNL     1     104.719 124.498  80.082  0.00  0.00    +0.000 S 
BRANCH  10  14
ATOM     14  C   UNL     1     104.227 123.312  83.860  0.00  0.00    +0.000 C 
ATOM     15  O   UNL     1     103.832 122.226  84.275  0.00  0.00    +0.000 OA
ENDBRANCH  10  14
ENDBRANCH   2   9
TORSDOF 3
ENDMDL
