MODEL 1
REMARK VINA RESULT:      -4.4      0.000      0.000
REMARK  Name = *****
REMARK  3 active torsions:
REMARK  status: ('A' for Active; 'I' for Inactive)
REMARK    1  A    between atoms: C_4  and  C_7
REMARK    2  A    between atoms: C_7  and  C_8
REMARK    3  A    between atoms: C_9  and  C_10
REMARK                            x       y       z     vdW  Elec       q    Type
REMARK                         _______ _______ _______ _____ _____    ______ ____
ROOT
ATOM      1  C   UNL     1      97.343 116.152  77.795  0.00  0.00    +0.000 C 
ENDROOT
BRANCH   1   5
ATOM      2  C   UNL     1      94.787 112.737  77.442  0.00  0.00    +0.000 A 
ATOM      3  C   UNL     1      95.015 113.297  78.698  0.00  0.00    +0.000 A 
ATOM      4  C   UNL     1      95.853 114.407  78.828  0.00  0.00    +0.000 A 
ATOM      5  C   UNL     1      96.483 114.962  77.707  0.00  0.00    +0.000 A 
ATOM      6  C   UNL     1      96.232 114.400  76.448  0.00  0.00    +0.000 A 
ATOM      7  C   UNL     1      95.394 113.290  76.317  0.00  0.00    +0.000 A 
ENDBRANCH   1   5
BRANCH   1   8
ATOM      8  C   UNL     1      97.883 116.612  78.935  0.00  0.00    +0.000 C 
ATOM      9  C   UNL     1      97.253 117.639  79.739  0.00  0.00    +0.000 C 
BRANCH   9  10
ATOM     10  C   UNL     1      97.716 118.134  80.894  0.00  0.00    +0.000 C 
ATOM     11  C   UNL     1      98.514 119.326  81.114  0.00  0.00    +0.000 C 
ATOM     12  C   UNL     1      98.739 119.408  82.438  0.00  0.00    +0.000 C 
ATOM     13  C   UNL     1      98.099 118.288  83.104  0.00  0.00    +0.000 C 
ATOM     14  C   UNL     1      97.485 117.520  82.191  0.00  0.00    +0.000 C 
ENDBRANCH   9  10
ENDBRANCH   1   8
TORSDOF 3
ENDMDL
