MODEL 1
REMARK VINA RESULT:      -4.8      0.000      0.000
REMARK  Name = *****
REMARK  4 active torsions:
REMARK  status: ('A' for Active; 'I' for Inactive)
REMARK    1  A    between atoms: C_4  and  C_7
REMARK    2  A    between atoms: C_7  and  S_8
REMARK    3  A    between atoms: S_8  and  C_9
REMARK    4  A    between atoms: C_13  and  C_15
REMARK                            x       y       z     vdW  Elec       q    Type
REMARK                         _______ _______ _______ _____ _____    ______ ____
ROOT
ATOM      1  C   UNL     1      89.136  68.443  86.733  0.00  0.00    +0.000 A 
ATOM      2  C   UNL     1      88.059  67.844  87.398  0.00  0.00    +0.000 A 
ATOM      3  C   UNL     1      87.903  66.457  87.418  0.00  0.00    +0.000 A 
ATOM      4  C   UNL     1      88.828  65.643  86.768  0.00  0.00    +0.000 A 
ATOM      5  C   UNL     1      89.916  66.214  86.094  0.00  0.00    +0.000 A 
ATOM      6  C   UNL     1      90.060  67.616  86.084  0.00  0.00    +0.000 A 
ENDROOT
BRANCH   5   7
ATOM      7  C   UNL     1      90.932  65.355  85.383  0.00  0.00    +0.000 C 
ATOM      8  F   UNL     1      92.216  65.780  85.541  0.00  0.00    +0.000 F 
ATOM      9  F   UNL     1      90.910  64.063  85.814  0.00  0.00    +0.000 F 
ATOM     10  F   UNL     1      90.717  65.303  84.040  0.00  0.00    +0.000 F 
ENDBRANCH   5   7
BRANCH   1  11
ATOM     11  S   UNL     1      89.212  70.230  86.787  0.00  0.00    +0.000 S 
BRANCH  11  12
ATOM     12  C   UNL     1      87.929  70.757  85.605  0.00  0.00    +0.000 C 
BRANCH  12  16
ATOM     13  C   UNL     1      84.459  72.306  87.650  0.00  0.00    +0.000 A 
ATOM     14  C   UNL     1      84.538  72.376  86.261  0.00  0.00    +0.000 A 
ATOM     15  C   UNL     1      85.659  71.875  85.597  0.00  0.00    +0.000 A 
ATOM     16  C   UNL     1      86.712  71.292  86.319  0.00  0.00    +0.000 A 
ATOM     17  C   UNL     1      86.625  71.237  87.718  0.00  0.00    +0.000 A 
ATOM     18  C   UNL     1      85.503  71.738  88.379  0.00  0.00    +0.000 A 
ENDBRANCH  12  16
ENDBRANCH  11  12
ENDBRANCH   1  11
TORSDOF 4
ENDMDL
