REMARK  Name = *****
REMARK  5 active torsions:
REMARK  status: ('A' for Active; 'I' for Inactive)
REMARK    1  A    between atoms: C_1  and  C_2
REMARK    2  A    between atoms: C_2  and  C_16
REMARK    3  A    between atoms: C_5  and  C_8
REMARK    4  A    between atoms: C_8  and  C_9
REMARK    5  A    between atoms: C_9  and  C_10
REMARK                            x       y       z     vdW  Elec       q    Type
REMARK                         _______ _______ _______ _____ _____    ______ ____
ROOT
ATOM      1  C   UNL     1       1.018  -0.084   0.632  0.00  0.00    +0.000 C 
ATOM      2  C   UNL     1       2.453  -0.040   0.082  0.00  0.00    +0.000 C 
ATOM      3  C   UNL     1       2.729   1.379  -0.495  0.00  0.00    +0.000 C 
ATOM      4  C   UNL     1       3.767   1.417  -1.587  0.00  0.00    +0.000 C 
ATOM      5  C   UNL     1       4.072   0.337  -2.332  0.00  0.00    +0.000 C 
ATOM      6  C   UNL     1       3.370  -0.913  -2.081  0.00  0.00    +0.000 C 
ATOM      7  C   UNL     1       2.630  -1.110  -0.979  0.00  0.00    +0.000 C 
ATOM      8  C   UNL     1       3.434  -0.341   1.231  0.00  0.00    +0.000 C 
ENDROOT
BRANCH   5   9
ATOM      9  C   UNL     1       5.084   0.293  -3.460  0.00  0.00    +0.000 C 
BRANCH   9  10
ATOM     10  C   UNL     1       5.865   1.586  -3.736  0.00  0.00    +0.000 C 
BRANCH  10  11
ATOM     11  C   UNL     1       6.848   1.413  -4.869  0.00  0.00    +0.000 A 
ATOM     12  C   UNL     1       6.466   1.687  -6.189  0.00  0.00    +0.000 A 
ATOM     13  C   UNL     1       7.370   1.509  -7.238  0.00  0.00    +0.000 A 
ATOM     14  C   UNL     1       8.660   1.051  -6.977  0.00  0.00    +0.000 A 
ATOM     15  C   UNL     1       9.048   0.770  -5.669  0.00  0.00    +0.000 A 
ATOM     16  C   UNL     1       8.146   0.947  -4.619  0.00  0.00    +0.000 A 
ENDBRANCH  10  11
ENDBRANCH   9  10
ENDBRANCH   5   9
TORSDOF 3
