MODEL 1
REMARK VINA RESULT:      -4.4      0.000      0.000
REMARK  Name = *****
REMARK  4 active torsions:
REMARK  status: ('A' for Active; 'I' for Inactive)
REMARK    1  A    between atoms: C_4  and  C_7
REMARK    2  A    between atoms: C_7  and  C_8
REMARK    3  A    between atoms: C_8  and  C_9
REMARK    4  A    between atoms: C_12  and  P_15
REMARK                            x       y       z     vdW  Elec       q    Type
REMARK                         _______ _______ _______ _____ _____    ______ ____
ROOT
ATOM      1  C   UNL     1     103.612 125.757  81.469  0.00  0.00    +0.000 A 
ATOM      2  C   UNL     1     103.661 125.011  82.653  0.00  0.00    +0.000 A 
ATOM      3  C   UNL     1     104.198 123.720  82.656  0.00  0.00    +0.000 A 
ATOM      4  C   UNL     1     104.702 123.155  81.478  0.00  0.00    +0.000 A 
ATOM      5  C   UNL     1     104.654 123.903  80.296  0.00  0.00    +0.000 A 
ATOM      6  C   UNL     1     104.116 125.194  80.292  0.00  0.00    +0.000 A 
ENDROOT
BRANCH   4   7
ATOM      7  P   UNL     1     105.402 121.481  81.482  0.00  0.00    +0.000 P 
ATOM      8  H   UNL     1     106.674 121.513  80.948  0.00  0.00    +0.000 HD
ATOM      9  H   UNL     1     104.605 120.647  80.725  0.00  0.00    +0.000 HD
ENDBRANCH   4   7
BRANCH   1  10
ATOM     10  C   UNL     1     103.050 127.158  81.470  0.00  0.00    +0.000 C 
BRANCH  10  11
ATOM     11  C   UNL     1     102.590 127.580  82.868  0.00  0.00    +0.000 C 
BRANCH  11  15
ATOM     12  C   UNL     1      98.297 127.953  83.047  0.00  0.00    +0.000 A 
ATOM     13  C   UNL     1      98.876 126.824  82.470  0.00  0.00    +0.000 A 
ATOM     14  C   UNL     1     100.264 126.700  82.416  0.00  0.00    +0.000 A 
ATOM     15  C   UNL     1     101.088 127.703  82.945  0.00  0.00    +0.000 A 
ATOM     16  C   UNL     1     100.497 128.836  83.518  0.00  0.00    +0.000 A 
ATOM     17  C   UNL     1      99.107 128.959  83.570  0.00  0.00    +0.000 A 
ENDBRANCH  11  15
ENDBRANCH  10  11
ENDBRANCH   1  10
TORSDOF 4
ENDMDL
