MODEL 1
REMARK VINA RESULT:      -4.3      0.000      0.000
REMARK  Name = *****
REMARK  4 active torsions:
REMARK  status: ('A' for Active; 'I' for Inactive)
REMARK    1  A    between atoms: C_1  and  C_2
REMARK    2  A    between atoms: C_4  and  N_8
REMARK    3  A    between atoms: N_8  and  C_9
REMARK    4  A    between atoms: C_10  and  C_12
REMARK                            x       y       z     vdW  Elec       q    Type
REMARK                         _______ _______ _______ _____ _____    ______ ____
ROOT
ATOM      1  N   UNL     1     103.219 125.412  81.791  0.00  0.00    +0.000 N 
ATOM      2  C   UNL     1     103.544 125.527  80.365  0.00  0.00    +0.000 C 
ATOM      3  C   UNL     1     103.775 124.374  82.585  0.00  0.00    +0.000 C 
ATOM      4  O   UNL     1     103.463 124.157  83.753  0.00  0.00    +0.000 OA
ENDROOT
BRANCH   1   8
ATOM      5  C   UNL     1      98.568 127.112  82.619  0.00  0.00    +0.000 C 
ATOM      6  C   UNL     1     100.054 127.256  82.775  0.00  0.00    +0.000 A 
ATOM      7  C   UNL     1     100.920 126.285  82.238  0.00  0.00    +0.000 A 
ATOM      8  C   UNL     1     102.315 126.402  82.332  0.00  0.00    +0.000 A 
ATOM      9  C   UNL     1     102.819 127.548  82.973  0.00  0.00    +0.000 A 
ATOM     10  C   UNL     1     101.969 128.528  83.498  0.00  0.00    +0.000 A 
ATOM     11  C   UNL     1     100.591 128.384  83.395  0.00  0.00    +0.000 A 
ENDBRANCH   1   8
BRANCH   3  12
ATOM     12  C   UNL     1     104.823 123.566  81.972  0.00  0.00    +0.000 A 
ATOM     13  C   UNL     1     104.709 122.402  81.230  0.00  0.00    +0.000 A 
ATOM     14  C   UNL     1     105.976 121.928  80.776  0.00  0.00    +0.000 A 
ATOM     15  C   UNL     1     106.988 122.764  81.177  0.00  0.00    +0.000 A 
ATOM     16  S   UNL     1     106.451 124.096  82.071  0.00  0.00    +0.000 S 
ATOM     17 CL   UNL     1     108.662 122.575  80.848  0.00  0.00    +0.000 Cl
ENDBRANCH   3  12
TORSDOF 2
ENDMDL
