MODEL 1
REMARK VINA RESULT:      -4.2      0.000      0.000
REMARK  Name = *****
REMARK  6 active torsions:
REMARK  status: ('A' for Active; 'I' for Inactive)
REMARK    1  A    between atoms: C_1  and  C_2
REMARK    2  A    between atoms: C_3  and  C_9
REMARK    3  A    between atoms: C_4  and  C_8
REMARK    4  A    between atoms: C_9  and  O_10
REMARK    5  A    between atoms: O_10  and  C_11
REMARK    6  A    between atoms: C_11  and  C_12
REMARK                            x       y       z     vdW  Elec       q    Type
REMARK                         _______ _______ _______ _____ _____    ______ ____
ROOT
ATOM      1  C   UNL     1      87.783  70.718  86.237  0.00  0.00    +0.000 C 
ENDROOT
BRANCH   1   4
ATOM      2  C   UNL     1      85.250  71.933  85.216  0.00  0.00    +0.000 C 
ATOM      3  C   UNL     1      85.527  71.813  86.691  0.00  0.00    +0.000 A 
ATOM      4  C   UNL     1      86.726  71.243  87.186  0.00  0.00    +0.000 A 
ATOM      5  C   UNL     1      86.944  71.206  88.586  0.00  0.00    +0.000 A 
ATOM      6  C   UNL     1      85.951  71.677  89.459  0.00  0.00    +0.000 A 
ATOM      7  C   UNL     1      84.762  72.202  88.965  0.00  0.00    +0.000 A 
ATOM      8  C   UNL     1      84.553  72.274  87.591  0.00  0.00    +0.000 A 
ATOM      9  C   UNL     1      88.219  70.662  89.175  0.00  0.00    +0.000 C 
ENDBRANCH   1   4
BRANCH   1  10
ATOM     10  O   UNL     1      87.474  69.368  85.911  0.00  0.00    +0.000 OA
BRANCH  10  11
ATOM     11  C   UNL     1      88.573  68.499  86.171  0.00  0.00    +0.000 C 
BRANCH  11  12
ATOM     12  C   UNL     1      88.149  67.333  87.031  0.00  0.00    +0.000 A 
ATOM     13  C   UNL     1      88.885  66.139  86.997  0.00  0.00    +0.000 A 
ATOM     14  C   UNL     1      88.531  65.058  87.806  0.00  0.00    +0.000 A 
ATOM     15  C   UNL     1      87.441  65.161  88.669  0.00  0.00    +0.000 A 
ATOM     16  C   UNL     1      86.709  66.345  88.725  0.00  0.00    +0.000 A 
ATOM     17  C   UNL     1      87.063  67.426  87.915  0.00  0.00    +0.000 A 
ENDBRANCH  11  12
ENDBRANCH  10  11
ENDBRANCH   1  10
TORSDOF 4
ENDMDL
