MODEL 1
REMARK VINA RESULT:      -4.4      0.000      0.000
REMARK  Name = *****
REMARK  5 active torsions:
REMARK  status: ('A' for Active; 'I' for Inactive)
REMARK    1  A    between atoms: C_1  and  O_2
REMARK    2  A    between atoms: O_2  and  C_3
REMARK    3  A    between atoms: C_3  and  C_12
REMARK    4  A    between atoms: N_4  and  C_5
REMARK    5  A    between atoms: C_5  and  C_6
REMARK                            x       y       z     vdW  Elec       q    Type
REMARK                         _______ _______ _______ _____ _____    ______ ____
ROOT
ATOM      1  C   UNL     1     102.611 126.554  82.853  0.00  0.00    +0.000 C 
ATOM      2  N   UNL     1     102.873 125.419  83.396  0.00  0.00    +0.000 NA
ENDROOT
BRANCH   1   3
ATOM      3  C   UNL     1     101.260 127.174  82.896  0.00  0.00    +0.000 A 
ATOM      4  C   UNL     1     101.044 128.453  83.431  0.00  0.00    +0.000 A 
ATOM      5  C   UNL     1      99.759 129.002  83.446  0.00  0.00    +0.000 A 
ATOM      6  C   UNL     1      98.684 128.279  82.933  0.00  0.00    +0.000 A 
ATOM      7  C   UNL     1      98.887 127.006  82.403  0.00  0.00    +0.000 A 
ATOM      8  C   UNL     1     100.171 126.455  82.385  0.00  0.00    +0.000 A 
ENDBRANCH   1   3
BRANCH   1  10
ATOM      9  C   UNL     1     103.426 127.323  80.782  0.00  0.00    +0.000 C 
ATOM     10  O   UNL     1     103.506 127.343  82.212  0.00  0.00    +0.000 OA
ENDBRANCH   1  10
BRANCH   2  11
ATOM     11  C   UNL     1     104.260 124.958  83.429  0.00  0.00    +0.000 C 
BRANCH  11  12
ATOM     12  C   UNL     1     104.433 123.652  82.685  0.00  0.00    +0.000 A 
ATOM     13  C   UNL     1     104.451 122.432  83.377  0.00  0.00    +0.000 A 
ATOM     14  C   UNL     1     104.575 121.224  82.689  0.00  0.00    +0.000 A 
ATOM     15  C   UNL     1     104.674 121.221  81.299  0.00  0.00    +0.000 A 
ATOM     16  C   UNL     1     104.648 122.425  80.597  0.00  0.00    +0.000 A 
ATOM     17  C   UNL     1     104.524 123.634  81.286  0.00  0.00    +0.000 A 
ENDBRANCH  11  12
ENDBRANCH   2  11
TORSDOF 4
ENDMDL
