MODEL 1
REMARK VINA RESULT:      -4.7      0.000      0.000
REMARK  Name = *****
REMARK  3 active torsions:
REMARK  status: ('A' for Active; 'I' for Inactive)
REMARK    1  A    between atoms: C_4  and  N_7
REMARK    2  A    between atoms: N_7  and  C_8
REMARK    3  A    between atoms: C_8  and  C_10
REMARK                            x       y       z     vdW  Elec       q    Type
REMARK                         _______ _______ _______ _____ _____    ______ ____
ROOT
ATOM      1  C   UNL     1     102.871 126.158  81.431  0.00  0.00    +0.000 C 
ATOM      2  S   UNL     1     103.614 127.344  80.508  0.00  0.00    +0.000 S 
ENDROOT
BRANCH   1   3
ATOM      3  C   UNL     1     103.604 124.882  81.706  0.00  0.00    +0.000 A 
ATOM      4  C   UNL     1     104.172 124.182  80.635  0.00  0.00    +0.000 A 
ATOM      5  C   UNL     1     104.866 123.003  80.886  0.00  0.00    +0.000 A 
ATOM      6  C   UNL     1     104.999 122.521  82.184  0.00  0.00    +0.000 A 
ATOM      7  C   UNL     1     104.439 123.213  83.254  0.00  0.00    +0.000 A 
ATOM      8  C   UNL     1     103.740 124.399  83.018  0.00  0.00    +0.000 A 
ATOM      9  F   UNL     1     105.674 121.387  82.416  0.00  0.00    +0.000 F 
ATOM     10  F   UNL     1     105.414 122.336  79.861  0.00  0.00    +0.000 F 
ENDBRANCH   1   3
BRANCH   1  11
ATOM     11  N   UNL     1     101.601 126.146  81.995  0.00  0.00    +0.000 N 
ATOM     12  H   UNL     1     101.176 125.258  81.992  0.00  0.00    +0.000 HD
BRANCH  11  16
ATOM     13  C   UNL     1      98.987 129.025  83.665  0.00  0.00    +0.000 A 
ATOM     14  C   UNL     1     100.356 129.167  83.865  0.00  0.00    +0.000 A 
ATOM     15  C   UNL     1     101.253 128.236  83.325  0.00  0.00    +0.000 A 
ATOM     16  C   UNL     1     100.794 127.157  82.573  0.00  0.00    +0.000 A 
ATOM     17  C   UNL     1      99.408 127.020  82.391  0.00  0.00    +0.000 A 
ATOM     18  C   UNL     1      98.511 127.947  82.929  0.00  0.00    +0.000 A 
ENDBRANCH  11  16
ENDBRANCH   1  11
TORSDOF 3
ENDMDL
