MODEL 1
REMARK VINA RESULT:      -4.5      0.000      0.000
REMARK  Name = *****
REMARK  2 active torsions:
REMARK  status: ('A' for Active; 'I' for Inactive)
REMARK    1  A    between atoms: N_9  and  C_10
REMARK    2  A    between atoms: C_10  and  C_11
REMARK                            x       y       z     vdW  Elec       q    Type
REMARK                         _______ _______ _______ _____ _____    ______ ____
ROOT
ATOM      1  C   UNL     1      89.692  68.462  86.413  0.00  0.00    +0.000 C 
ATOM      2  C   UNL     1      89.805  66.971  86.242  0.00  0.00    +0.000 A 
ATOM      3  C   UNL     1      90.847  66.292  85.619  0.00  0.00    +0.000 A 
ATOM      4  C   UNL     1      90.809  64.896  85.577  0.00  0.00    +0.000 A 
ATOM      5  C   UNL     1      89.743  64.194  86.156  0.00  0.00    +0.000 A 
ATOM      6  C   UNL     1      88.702  64.879  86.785  0.00  0.00    +0.000 A 
ATOM      7  C   UNL     1      88.747  66.263  86.822  0.00  0.00    +0.000 A 
ATOM      8  S   UNL     1      87.557  67.360  87.548  0.00  0.00    +0.000 S 
ATOM      9  N   UNL     1      88.361  68.732  86.999  0.00  0.00    +0.000 NA
ENDROOT
BRANCH   9  10
ATOM     10  C   UNL     1      88.371  69.984  87.765  0.00  0.00    +0.000 C 
BRANCH  10  11
ATOM     11  C   UNL     1      87.100  70.795  87.622  0.00  0.00    +0.000 A 
ATOM     12  C   UNL     1      86.379  71.200  88.753  0.00  0.00    +0.000 A 
ATOM     13  C   UNL     1      85.209  71.951  88.617  0.00  0.00    +0.000 A 
ATOM     14  C   UNL     1      84.749  72.303  87.349  0.00  0.00    +0.000 A 
ATOM     15  C   UNL     1      85.454  71.899  86.216  0.00  0.00    +0.000 A 
ATOM     16  C   UNL     1      86.623  71.148  86.351  0.00  0.00    +0.000 A 
ENDBRANCH  10  11
ENDBRANCH   9  10
TORSDOF 2
ENDMDL
