REMARK  Name = *****
REMARK  0 active torsions:
REMARK  status: ('A' for Active; 'I' for Inactive)
REMARK                            x       y       z     vdW  Elec       q    Type
REMARK                         _______ _______ _______ _____ _____    ______ ____
ROOT
ATOM      1  C   UNL     1       2.151  -2.560  -1.217  0.00  0.00    +0.000 C 
ATOM      2  C   UNL     1       1.412  -3.633  -2.032  0.00  0.00    +0.000 C 
ATOM      3  O   UNL     1       0.792  -4.630  -1.204  0.00  0.00    +0.000 OA
ATOM      4  C   UNL     1      -0.543  -4.405  -0.978  0.00  0.00    +0.000 A 
ATOM      5  C   UNL     1      -1.475  -4.847  -1.916  0.00  0.00    +0.000 A 
ATOM      6  C   UNL     1      -2.838  -4.705  -1.652  0.00  0.00    +0.000 A 
ATOM      7  C   UNL     1      -3.266  -4.140  -0.447  0.00  0.00    +0.000 A 
ATOM      8  C   UNL     1      -2.332  -3.717   0.503  0.00  0.00    +0.000 A 
ATOM      9  C   UNL     1      -0.970  -3.859   0.244  0.00  0.00    +0.000 A 
ATOM     10  C   UNL     1       0.008  -3.389   1.172  0.00  0.00    +0.000 C 
ATOM     11  C   UNL     1       1.016  -2.952   1.655  0.00  0.00    +0.000 C 
ATOM     12  C   UNL     1       2.321  -2.407   1.857  0.00  0.00    +0.000 A 
ATOM     13  C   UNL     1       2.627  -1.760   3.057  0.00  0.00    +0.000 A 
ATOM     14  C   UNL     1       3.902  -1.227   3.258  0.00  0.00    +0.000 A 
ATOM     15  C   UNL     1       4.875  -1.345   2.265  0.00  0.00    +0.000 A 
ATOM     16  C   UNL     1       4.575  -1.988   1.063  0.00  0.00    +0.000 A 
ATOM     17  C   UNL     1       3.295  -2.498   0.844  0.00  0.00    +0.000 A 
ATOM     18  O   UNL     1       3.104  -3.178  -0.336  0.00  0.00    +0.000 OA
ENDROOT
TORSDOF 0
