MODEL 1
REMARK VINA RESULT:      -4.5      0.000      0.000
REMARK  Name = *****
REMARK  5 active torsions:
REMARK  status: ('A' for Active; 'I' for Inactive)
REMARK    1  A    between atoms: C_1  and  C_2
REMARK    2  A    between atoms: C_7  and  C_8
REMARK    3  A    between atoms: C_8  and  P_9
REMARK    4  A    between atoms: P_9  and  C_10
REMARK    5  A    between atoms: P_9  and  C_11
REMARK                            x       y       z     vdW  Elec       q    Type
REMARK                         _______ _______ _______ _____ _____    ______ ____
ROOT
ATOM      1  C   UNL     1     102.815 127.556  82.988  0.00  0.00    +0.000 C 
ENDROOT
BRANCH   1   8
ATOM      2  C   UNL     1     101.460 129.924  84.325  0.00  0.00    +0.000 C 
ATOM      3  C   UNL     1     100.679 128.819  83.664  0.00  0.00    +0.000 A 
ATOM      4  C   UNL     1      99.275 128.900  83.664  0.00  0.00    +0.000 A 
ATOM      5  C   UNL     1      98.499 127.917  83.049  0.00  0.00    +0.000 A 
ATOM      6  C   UNL     1      99.114 126.842  82.422  0.00  0.00    +0.000 A 
ATOM      7  C   UNL     1     100.505 126.745  82.415  0.00  0.00    +0.000 A 
ATOM      8  C   UNL     1     101.312 127.715  83.044  0.00  0.00    +0.000 A 
ENDBRANCH   1   8
BRANCH   1   9
ATOM      9  P   UNL     1     103.182 127.085  81.254  0.00  0.00    +0.000 P 
ATOM     10  C   UNL     1     104.742 127.998  80.947  0.00  0.00    +0.000 C 
BRANCH   9  11
ATOM     11  C   UNL     1     103.796 125.384  81.456  0.00  0.00    +0.000 A 
ATOM     12  C   UNL     1     103.772 124.814  82.737  0.00  0.00    +0.000 A 
ATOM     13  C   UNL     1     104.232 123.513  82.952  0.00  0.00    +0.000 A 
ATOM     14  C   UNL     1     104.724 122.763  81.887  0.00  0.00    +0.000 A 
ATOM     15  C   UNL     1     104.754 123.313  80.609  0.00  0.00    +0.000 A 
ATOM     16  C   UNL     1     104.292 124.616  80.394  0.00  0.00    +0.000 A 
ENDBRANCH   9  11
ENDBRANCH   1   9
TORSDOF 3
ENDMDL
