MODEL 1
REMARK VINA RESULT:      -4.2      0.000      0.000
REMARK  Name = *****
REMARK  4 active torsions:
REMARK  status: ('A' for Active; 'I' for Inactive)
REMARK    1  A    between atoms: C_1  and  C_2
REMARK    2  A    between atoms: C_3  and  C_9
REMARK    3  A    between atoms: C_9  and  S_10
REMARK    4  A    between atoms: S_10  and  C_11
REMARK                            x       y       z     vdW  Elec       q    Type
REMARK                         _______ _______ _______ _____ _____    ______ ____
ROOT
ATOM      1  C   UNL     1      87.833  67.268  87.552  0.00  0.00    +0.000 C 
ATOM      2  C   UNL     1      88.630  66.324  86.697  0.00  0.00    +0.000 C 
ATOM      3  C   UNL     1      88.247  65.089  86.296  0.00  0.00    +0.000 C 
ATOM      4  C   UNL     1      89.146  64.186  85.477  0.00  0.00    +0.000 C 
ATOM      5  C   UNL     1      90.619  64.550  85.603  0.00  0.00    +0.000 C 
ATOM      6  C   UNL     1      90.830  66.029  85.354  0.00  0.00    +0.000 C 
ATOM      7  C   UNL     1      89.968  66.862  86.271  0.00  0.00    +0.000 C 
ATOM      8  O   UNL     1      90.316  67.995  86.603  0.00  0.00    +0.000 OA
ENDROOT
BRANCH   3   9
ATOM      9  C   UNL     1      86.881  64.502  86.581  0.00  0.00    +0.000 C 
BRANCH   9  10
ATOM     10  S   UNL     1      87.072  62.874  87.380  0.00  0.00    +0.000 S 
BRANCH  10  11
ATOM     11  C   UNL     1      87.501  63.387  89.033  0.00  0.00    +0.000 A 
ATOM     12  C   UNL     1      88.831  63.556  89.431  0.00  0.00    +0.000 A 
ATOM     13  C   UNL     1      89.131  63.967  90.732  0.00  0.00    +0.000 A 
ATOM     14  C   UNL     1      88.103  64.218  91.639  0.00  0.00    +0.000 A 
ATOM     15  C   UNL     1      86.776  64.066  91.246  0.00  0.00    +0.000 A 
ATOM     16  C   UNL     1      86.475  63.656  89.945  0.00  0.00    +0.000 A 
ENDBRANCH  10  11
ENDBRANCH   9  10
ENDBRANCH   3   9
TORSDOF 3
ENDMDL
