MODEL 1
REMARK VINA RESULT:      -4.9      0.000      0.000
REMARK  Name = *****
REMARK  3 active torsions:
REMARK  status: ('A' for Active; 'I' for Inactive)
REMARK    1  A    between atoms: C_7  and  O_18
REMARK    2  A    between atoms: N_8  and  C_11
REMARK    3  A    between atoms: O_18  and  O_19
REMARK                            x       y       z     vdW  Elec       q    Type
REMARK                         _______ _______ _______ _____ _____    ______ ____
ROOT
ATOM      1  C   UNL     1      99.206 130.238  84.709  0.00  0.00    +0.000 C 
ATOM      2  C   UNL     1     100.396 131.197  84.771  0.00  0.00    +0.000 C 
ATOM      3  C   UNL     1     101.720 130.443  84.945  0.00  0.00    +0.000 C 
ATOM      4  C   UNL     1     101.796 129.241  84.062  0.00  0.00    +0.000 C 
ATOM      5  C   UNL     1     100.742 128.699  83.441  0.00  0.00    +0.000 C 
ATOM      6  C   UNL     1      99.347 129.222  83.567  0.00  0.00    +0.000 C 
ATOM      7  C   UNL     1     101.052 127.487  82.618  0.00  0.00    +0.000 C 
ATOM      8  N   UNL     1     102.464 127.181  82.865  0.00  0.00    +0.000 N 
ATOM      9  S   UNL     1     103.306 128.394  83.675  0.00  0.00    +0.000 S 
ATOM     10  O   UNL     1     103.848 127.883  84.973  0.00  0.00    +0.000 OA
ENDROOT
BRANCH   8  11
ATOM     11  C   UNL     1     103.119 126.132  82.191  0.00  0.00    +0.000 A 
ATOM     12  C   UNL     1     103.477 124.945  82.863  0.00  0.00    +0.000 A 
ATOM     13  C   UNL     1     104.117 123.880  82.213  0.00  0.00    +0.000 A 
ATOM     14  C   UNL     1     104.422 123.968  80.861  0.00  0.00    +0.000 A 
ATOM     15  C   UNL     1     104.084 125.119  80.162  0.00  0.00    +0.000 A 
ATOM     16  C   UNL     1     103.445 126.174  80.819  0.00  0.00    +0.000 A 
ATOM     17  F   UNL     1     103.178 127.263  80.083  0.00  0.00    +0.000 F 
ENDBRANCH   8  11
BRANCH   7  18
ATOM     18  O   UNL     1     100.205 126.384  82.996  0.00  0.00    +0.000 OA
BRANCH  18  19
ATOM     19  O   UNL     1      99.361 126.036  81.842  0.00  0.00    +0.000 OA
ATOM     20  H   UNL     1      98.512 125.686  82.155  0.00  0.00    +0.000 HD
ENDBRANCH  18  19
ENDBRANCH   7  18
TORSDOF 3
ENDMDL
