MODEL 1
REMARK VINA RESULT:      -4.4      0.000      0.000
REMARK  Name = *****
REMARK  2 active torsions:
REMARK  status: ('A' for Active; 'I' for Inactive)
REMARK    1  A    between atoms: C_5  and  C_7
REMARK    2  A    between atoms: C_8  and  C_9
REMARK                            x       y       z     vdW  Elec       q    Type
REMARK                         _______ _______ _______ _____ _____    ______ ____
ROOT
ATOM      1  C   UNL     1     102.767 125.818  83.206  0.00  0.00    +0.000 C 
ATOM      2  C   UNL     1     101.936 126.621  82.520  0.00  0.00    +0.000 C 
ENDROOT
BRANCH   2   3
ATOM      3  C   UNL     1     101.192 127.731  83.137  0.00  0.00    +0.000 A 
ATOM      4  C   UNL     1      99.790 127.827  83.060  0.00  0.00    +0.000 A 
ATOM      5  C   UNL     1      99.116 128.910  83.632  0.00  0.00    +0.000 A 
ATOM      6  C   UNL     1      99.837 129.910  84.276  0.00  0.00    +0.000 A 
ATOM      7  C   UNL     1     101.226 129.842  84.353  0.00  0.00    +0.000 A 
ATOM      8  C   UNL     1     101.900 128.761  83.781  0.00  0.00    +0.000 A 
ATOM      9 CL   UNL     1      99.009 131.244  84.981  0.00  0.00    +0.000 Cl
ATOM     10 CL   UNL     1      98.829 126.616  82.282  0.00  0.00    +0.000 Cl
ENDBRANCH   2   3
BRANCH   1  15
ATOM     11  C   UNL     1     104.515 123.649  80.694  0.00  0.00    +0.000 A 
ATOM     12  C   UNL     1     104.894 122.593  81.513  0.00  0.00    +0.000 A 
ATOM     13  C   UNL     1     104.551 122.653  82.852  0.00  0.00    +0.000 A 
ATOM     14  N   UNL     1     103.869 123.678  83.409  0.00  0.00    +0.000 NA
ATOM     15  C   UNL     1     103.510 124.702  82.600  0.00  0.00    +0.000 A 
ATOM     16  C   UNL     1     103.813 124.720  81.241  0.00  0.00    +0.000 A 
ENDBRANCH   1  15
TORSDOF 2
ENDMDL
