MODEL 1
REMARK VINA RESULT:      -4.4      0.000      0.000
REMARK  Name = *****
REMARK  7 active torsions:
REMARK  status: ('A' for Active; 'I' for Inactive)
REMARK    1  A    between atoms: C_1  and  C_2
REMARK    2  A    between atoms: C_3  and  C_9
REMARK    3  A    between atoms: C_4  and  C_8
REMARK    4  A    between atoms: N_11  and  C_12
REMARK    5  A    between atoms: N_11  and  C_13
REMARK    6  A    between atoms: C_14  and  C_20
REMARK    7  A    between atoms: C_18  and  C_19
REMARK                            x       y       z     vdW  Elec       q    Type
REMARK                         _______ _______ _______ _____ _____    ______ ____
ROOT
ATOM      1  C   UNL     1      86.393  69.454  85.202  0.00  0.00    +0.000 C 
ATOM      2  O   UNL     1      85.507  68.596  85.181  0.00  0.00    +0.000 OA
ATOM      3  N   UNL     1      87.042  69.887  84.031  0.00  0.00    +0.000 N 
ATOM      4  C   UNL     1      86.631  69.259  82.784  0.00  0.00    +0.000 C 
ENDROOT
BRANCH   1   7
ATOM      5  C   UNL     1      88.275  67.997  86.925  0.00  0.00    +0.000 C 
ATOM      6  C   UNL     1      87.690  69.325  87.332  0.00  0.00    +0.000 A 
ATOM      7  C   UNL     1      86.745  70.019  86.535  0.00  0.00    +0.000 A 
ATOM      8  C   UNL     1      86.084  71.151  87.057  0.00  0.00    +0.000 A 
ATOM      9  C   UNL     1      86.485  71.661  88.303  0.00  0.00    +0.000 A 
ATOM     10  C   UNL     1      87.462  71.018  89.058  0.00  0.00    +0.000 A 
ATOM     11  C   UNL     1      88.039  69.843  88.589  0.00  0.00    +0.000 A 
ATOM     12  C   UNL     1      84.934  71.831  86.370  0.00  0.00    +0.000 C 
ENDBRANCH   1   7
BRANCH   3  13
ATOM     13  C   UNL     1      88.087  70.853  83.958  0.00  0.00    +0.000 A 
ATOM     14  C   UNL     1      89.441  70.475  84.089  0.00  0.00    +0.000 A 
ATOM     15  C   UNL     1      90.442  71.464  84.056  0.00  0.00    +0.000 A 
ATOM     16  C   UNL     1      90.125  72.796  83.822  0.00  0.00    +0.000 A 
ATOM     17  C   UNL     1      88.802  73.160  83.605  0.00  0.00    +0.000 A 
ATOM     18  C   UNL     1      87.771  72.206  83.670  0.00  0.00    +0.000 A 
ATOM     19  C   UNL     1      86.370  72.690  83.401  0.00  0.00    +0.000 C 
ATOM     20  C   UNL     1      89.907  69.050  84.187  0.00  0.00    +0.000 C 
ENDBRANCH   3  13
TORSDOF 2
ENDMDL
