MODEL 1
REMARK VINA RESULT:      -4.9      0.000      0.000
REMARK  Name = *****
REMARK  4 active torsions:
REMARK  status: ('A' for Active; 'I' for Inactive)
REMARK    1  A    between atoms: C_1  and  C_2
REMARK    2  A    between atoms: C_3  and  C_16
REMARK    3  A    between atoms: C_5  and  C_7
REMARK    4  A    between atoms: C_8  and  C_9
REMARK                            x       y       z     vdW  Elec       q    Type
REMARK                         _______ _______ _______ _____ _____    ______ ____
ROOT
ATOM      1  C   UNL     1     105.111 122.113  80.736  0.00  0.00    +0.000 C 
ATOM      2  C   UNL     1     104.885 123.534  80.413  0.00  0.00    +0.000 A 
ATOM      3  C   UNL     1     105.489 124.475  79.607  0.00  0.00    +0.000 A 
ATOM      4  N   UNL     1     104.799 125.670  79.734  0.00  0.00    +0.000 NA
ATOM      5  C   UNL     1     103.815 125.440  80.593  0.00  0.00    +0.000 A 
ATOM      6  O   UNL     1     103.833 124.134  81.043  0.00  0.00    +0.000 OA
ENDROOT
BRANCH   3   7
ATOM      7  C   UNL     1     106.664 124.289  78.752  0.00  0.00    +0.000 C 
ATOM      8  O   UNL     1     106.592 124.476  77.538  0.00  0.00    +0.000 OA
ATOM      9 CL   UNL     1     108.146 123.788  79.551  0.00  0.00    +0.000 Cl
ENDBRANCH   3   7
BRANCH   5  10
ATOM     10  C   UNL     1     102.839 126.366  81.048  0.00  0.00    +0.000 C 
ATOM     11  C   UNL     1     102.132 126.140  82.165  0.00  0.00    +0.000 C 
BRANCH  11  12
ATOM     12  C   UNL     1     101.123 127.094  82.639  0.00  0.00    +0.000 A 
ATOM     13  C   UNL     1      99.773 126.808  82.390  0.00  0.00    +0.000 A 
ATOM     14  C   UNL     1      98.772 127.687  82.812  0.00  0.00    +0.000 A 
ATOM     15  C   UNL     1      99.110 128.859  83.486  0.00  0.00    +0.000 A 
ATOM     16  C   UNL     1     100.450 129.155  83.739  0.00  0.00    +0.000 A 
ATOM     17  C   UNL     1     101.454 128.278  83.318  0.00  0.00    +0.000 A 
ATOM     18 CL   UNL     1     103.095 128.704  83.664  0.00  0.00    +0.000 Cl
ENDBRANCH  11  12
ENDBRANCH   5  10
TORSDOF 3
ENDMDL
