MODEL 1
REMARK VINA RESULT:      -4.8      0.000      0.000
REMARK  Name = *****
REMARK  3 active torsions:
REMARK  status: ('A' for Active; 'I' for Inactive)
REMARK    1  A    between atoms: C_1  and  C_2
REMARK    2  A    between atoms: C_5  and  C_8
REMARK    3  A    between atoms: C_9  and  C_11
REMARK                            x       y       z     vdW  Elec       q    Type
REMARK                         _______ _______ _______ _____ _____    ______ ____
ROOT
ATOM      1  C   UNL     1      88.279  64.475  88.645  0.00  0.00    +0.000 C 
ATOM      2  C   UNL     1      87.896  65.183  87.355  0.00  0.00    +0.000 C 
ATOM      3  O   UNL     1      88.881  64.140  87.385  0.00  0.00    +0.000 OA
ENDROOT
BRANCH   1   8
ATOM      4  C   UNL     1      84.581  60.615  91.006  0.00  0.00    +0.000 C 
ATOM      5  C   UNL     1      85.508  61.619  90.389  0.00  0.00    +0.000 A 
ATOM      6  C   UNL     1      85.850  62.785  91.077  0.00  0.00    +0.000 A 
ATOM      7  C   UNL     1      86.741  63.704  90.513  0.00  0.00    +0.000 A 
ATOM      8  C   UNL     1      87.327  63.482  89.258  0.00  0.00    +0.000 A 
ATOM      9  C   UNL     1      86.981  62.299  88.585  0.00  0.00    +0.000 A 
ATOM     10  C   UNL     1      86.090  61.376  89.143  0.00  0.00    +0.000 A 
ENDBRANCH   1   8
BRANCH   2  11
ATOM     11  C   UNL     1      88.374  66.591  87.107  0.00  0.00    +0.000 A 
ATOM     12  C   UNL     1      89.560  66.846  86.396  0.00  0.00    +0.000 A 
ATOM     13  C   UNL     1      90.000  68.151  86.156  0.00  0.00    +0.000 A 
ATOM     14  C   UNL     1      89.253  69.227  86.623  0.00  0.00    +0.000 A 
ATOM     15  C   UNL     1      88.071  69.007  87.325  0.00  0.00    +0.000 A 
ATOM     16  C   UNL     1      87.638  67.699  87.561  0.00  0.00    +0.000 A 
ATOM     17 CL   UNL     1      89.787  70.835  86.330  0.00  0.00    +0.000 Cl
ENDBRANCH   2  11
TORSDOF 2
ENDMDL
