MODEL 1
REMARK VINA RESULT:      -4.2      0.000      0.000
REMARK  Name = *****
REMARK  3 active torsions:
REMARK  status: ('A' for Active; 'I' for Inactive)
REMARK    1  A    between atoms: C_4  and  N_11
REMARK    2  A    between atoms: C_5  and  C_7
REMARK    3  A    between atoms: C_12  and  C_13
REMARK                            x       y       z     vdW  Elec       q    Type
REMARK                         _______ _______ _______ _____ _____    ______ ____
ROOT
ATOM      1  C   UNL     1      85.123  71.982  87.882  0.00  0.00    +0.000 A 
ATOM      2  C   UNL     1      84.950  72.164  86.515  0.00  0.00    +0.000 A 
ATOM      3  C   UNL     1      85.933  71.730  85.627  0.00  0.00    +0.000 A 
ATOM      4  C   UNL     1      87.095  71.097  86.092  0.00  0.00    +0.000 A 
ATOM      5  C   UNL     1      87.283  70.929  87.472  0.00  0.00    +0.000 A 
ATOM      6  C   UNL     1      86.284  71.373  88.360  0.00  0.00    +0.000 A 
ENDROOT
BRANCH   5   7
ATOM      7  C   UNL     1      88.537  70.285  87.997  0.00  0.00    +0.000 C 
ATOM      8  F   UNL     1      88.656  68.975  87.640  0.00  0.00    +0.000 F 
ATOM      9  F   UNL     1      89.682  70.902  87.592  0.00  0.00    +0.000 F 
ATOM     10  F   UNL     1      88.599  70.283  89.364  0.00  0.00    +0.000 F 
ENDBRANCH   5   7
BRANCH   4  11
ATOM     11  N   UNL     1      88.070  70.694  85.171  0.00  0.00    +0.000 NA
ATOM     12  C   UNL     1      88.677  71.640  84.521  0.00  0.00    +0.000 C 
BRANCH  12  13
ATOM     13  C   UNL     1      89.698  71.327  83.552  0.00  0.00    +0.000 A 
ATOM     14  C   UNL     1      91.068  71.293  83.716  0.00  0.00    +0.000 A 
ATOM     15  C   UNL     1      91.746  70.936  82.514  0.00  0.00    +0.000 A 
ATOM     16  C   UNL     1      90.869  70.711  81.477  0.00  0.00    +0.000 A 
ATOM     17  S   UNL     1      89.240  70.927  81.955  0.00  0.00    +0.000 S 
ENDBRANCH  12  13
ENDBRANCH   4  11
TORSDOF 3
ENDMDL
