MODEL 1
REMARK VINA RESULT:      -4.8      0.000      0.000
REMARK  Name = *****
REMARK  3 active torsions:
REMARK  status: ('A' for Active; 'I' for Inactive)
REMARK    1  A    between atoms: C_4  and  C_7
REMARK    2  A    between atoms: C_8  and  C_9
REMARK    3  A    between atoms: C_10  and  C_16
REMARK                            x       y       z     vdW  Elec       q    Type
REMARK                         _______ _______ _______ _____ _____    ______ ____
ROOT
ATOM      1  C   UNL     1     101.539 127.815  83.228  0.00  0.00    +0.000 A 
ATOM      2  C   UNL     1     100.144 127.873  83.089  0.00  0.00    +0.000 A 
ATOM      3  C   UNL     1      99.435 128.992  83.554  0.00  0.00    +0.000 A 
ATOM      4  C   UNL     1     100.120 130.045  84.153  0.00  0.00    +0.000 A 
ATOM      5  C   UNL     1     101.505 129.996  84.297  0.00  0.00    +0.000 A 
ATOM      6  C   UNL     1     102.213 128.883  83.835  0.00  0.00    +0.000 A 
ATOM      7 CL   UNL     1      99.253 131.417  84.722  0.00  0.00    +0.000 Cl
ENDROOT
BRANCH   1   9
ATOM      8  C   UNL     1     102.966 125.765  82.392  0.00  0.00    +0.000 C 
ATOM      9  C   UNL     1     102.316 126.701  82.772  0.00  0.00    +0.000 C 
BRANCH   8  13
ATOM     10  C   UNL     1     105.261 122.479  81.060  0.00  0.00    +0.000 A 
ATOM     11  C   UNL     1     104.863 122.555  82.395  0.00  0.00    +0.000 A 
ATOM     12  C   UNL     1     104.104 123.642  82.836  0.00  0.00    +0.000 A 
ATOM     13  C   UNL     1     103.745 124.652  81.941  0.00  0.00    +0.000 A 
ATOM     14  C   UNL     1     104.146 124.575  80.605  0.00  0.00    +0.000 A 
ATOM     15  C   UNL     1     104.903 123.487  80.166  0.00  0.00    +0.000 A 
ENDBRANCH   8  13
ENDBRANCH   1   9
BRANCH   2  16
ATOM     16  C   UNL     1      99.382 126.773  82.458  0.00  0.00    +0.000 C 
ATOM     17  O   UNL     1      98.236 126.932  82.052  0.00  0.00    +0.000 OA
ENDBRANCH   2  16
TORSDOF 3
ENDMDL
