MODEL 1
REMARK VINA RESULT:      -3.5      0.000      0.000
REMARK  Name = *****
REMARK  5 active torsions:
REMARK  status: ('A' for Active; 'I' for Inactive)
REMARK    1  A    between atoms: C_4  and  C_7
REMARK    2  A    between atoms: C_7  and  O_8
REMARK    3  A    between atoms: O_8  and  O_9
REMARK    4  A    between atoms: O_9  and  C_10
REMARK    5  A    between atoms: C_10  and  C_11
REMARK                            x       y       z     vdW  Elec       q    Type
REMARK                         _______ _______ _______ _____ _____    ______ ____
ROOT
ATOM      1  O   UNL     1      89.783  70.475  83.248  0.00  0.00    +0.000 OA
ENDROOT
BRANCH   1   2
ATOM      2  C   UNL     1      90.293  71.088  84.434  0.00  0.00    +0.000 C 
BRANCH   2   6
ATOM      3  C   UNL     1      87.446  70.571  87.637  0.00  0.00    +0.000 A 
ATOM      4  C   UNL     1      88.794  70.291  87.852  0.00  0.00    +0.000 A 
ATOM      5  C   UNL     1      89.718  70.465  86.821  0.00  0.00    +0.000 A 
ATOM      6  C   UNL     1      89.306  70.931  85.563  0.00  0.00    +0.000 A 
ATOM      7  C   UNL     1      87.944  71.197  85.355  0.00  0.00    +0.000 A 
ATOM      8  C   UNL     1      87.021  71.022  86.389  0.00  0.00    +0.000 A 
ENDBRANCH   2   6
ENDBRANCH   1   2
BRANCH   1   9
ATOM      9  O   UNL     1      90.413  69.158  83.186  0.00  0.00    +0.000 OA
BRANCH   9  10
ATOM     10  C   UNL     1      89.338  68.223  83.079  0.00  0.00    +0.000 C 
BRANCH  10  11
ATOM     11  C   UNL     1      89.027  67.637  84.434  0.00  0.00    +0.000 A 
ATOM     12  C   UNL     1      90.062  67.173  85.260  0.00  0.00    +0.000 A 
ATOM     13  C   UNL     1      89.781  66.659  86.527  0.00  0.00    +0.000 A 
ATOM     14  C   UNL     1      88.466  66.609  86.986  0.00  0.00    +0.000 A 
ATOM     15  C   UNL     1      87.430  67.078  86.180  0.00  0.00    +0.000 A 
ATOM     16  C   UNL     1      87.710  67.594  84.913  0.00  0.00    +0.000 A 
ENDBRANCH  10  11
ENDBRANCH   9  10
ENDBRANCH   1   9
TORSDOF 5
ENDMDL
