MODEL 1
REMARK VINA RESULT:      -4.8      0.000      0.000
REMARK  Name = *****
REMARK  1 active torsions:
REMARK  status: ('A' for Active; 'I' for Inactive)
REMARK    1  A    between atoms: C_8  and  C_12
REMARK                            x       y       z     vdW  Elec       q    Type
REMARK                         _______ _______ _______ _____ _____    ______ ____
ROOT
ATOM      1  C   UNL     1      98.561 127.890  82.813  0.00  0.00    +0.000 A 
ATOM      2  C   UNL     1      99.045 129.041  83.424  0.00  0.00    +0.000 A 
ATOM      3  C   UNL     1     100.417 129.191  83.625  0.00  0.00    +0.000 A 
ATOM      4  C   UNL     1     101.316 128.191  83.215  0.00  0.00    +0.000 A 
ATOM      5  C   UNL     1     100.833 127.029  82.604  0.00  0.00    +0.000 A 
ATOM      6  C   UNL     1      99.448 126.889  82.408  0.00  0.00    +0.000 A 
ATOM      7  C   UNL     1     101.709 125.934  82.182  0.00  0.00    +0.000 A 
ATOM      8  C   UNL     1     103.050 125.971  82.226  0.00  0.00    +0.000 A 
ATOM      9  S   UNL     1     103.949 127.347  82.752  0.00  0.00    +0.000 S 
ATOM     10  C   UNL     1     102.760 128.416  83.459  0.00  0.00    +0.000 A 
ATOM     11  O   UNL     1     103.128 129.375  84.129  0.00  0.00    +0.000 OA
ENDROOT
BRANCH   8  12
ATOM     12  C   UNL     1     103.794 124.834  81.773  0.00  0.00    +0.000 A 
ATOM     13  C   UNL     1     104.192 124.510  80.484  0.00  0.00    +0.000 A 
ATOM     14  C   UNL     1     104.940 123.300  80.413  0.00  0.00    +0.000 A 
ATOM     15  C   UNL     1     105.109 122.728  81.652  0.00  0.00    +0.000 A 
ATOM     16  S   UNL     1     104.372 123.646  82.888  0.00  0.00    +0.000 S 
ENDBRANCH   8  12
TORSDOF 1
ENDMDL
