MODEL 1
REMARK VINA RESULT:      -4.0      0.000      0.000
REMARK  Name = *****
REMARK  6 active torsions:
REMARK  status: ('A' for Active; 'I' for Inactive)
REMARK    1  A    between atoms: C_1  and  O_2
REMARK    2  A    between atoms: O_2  and  C_3
REMARK    3  A    between atoms: C_3  and  C_5
REMARK    4  A    between atoms: C_5  and  C_13
REMARK    5  A    between atoms: C_6  and  C_7
REMARK    6  A    between atoms: C_13  and  C_14
REMARK                            x       y       z     vdW  Elec       q    Type
REMARK                         _______ _______ _______ _____ _____    ______ ____
ROOT
ATOM      1  C   UNL     1      88.838  65.939  86.572  0.00  0.00    +0.000 C 
ATOM      2  C   UNL     1      89.886  66.778  86.445  0.00  0.00    +0.000 C 
ENDROOT
BRANCH   2   3
ATOM      3  C   UNL     1      89.819  68.202  86.106  0.00  0.00    +0.000 A 
ATOM      4  C   UNL     1      89.949  68.603  84.773  0.00  0.00    +0.000 A 
ATOM      5  C   UNL     1      89.884  69.956  84.436  0.00  0.00    +0.000 A 
ATOM      6  C   UNL     1      89.682  70.914  85.430  0.00  0.00    +0.000 A 
ATOM      7  C   UNL     1      89.547  70.519  86.761  0.00  0.00    +0.000 A 
ATOM      8  C   UNL     1      89.615  69.166  87.099  0.00  0.00    +0.000 A 
ENDBRANCH   2   3
BRANCH   1   9
ATOM      9  C   UNL     1      87.428  66.368  86.405  0.00  0.00    +0.000 C 
ATOM     10  O   UNL     1      86.794  66.934  87.284  0.00  0.00    +0.000 OA
BRANCH   9  12
ATOM     11  C   UNL     1      86.472  67.276  84.479  0.00  0.00    +0.000 C 
ATOM     12  O   UNL     1      87.004  66.130  85.141  0.00  0.00    +0.000 OA
ENDBRANCH   9  12
ENDBRANCH   1   9
BRANCH   1  13
ATOM     13  C   UNL     1      89.007  64.465  86.833  0.00  0.00    +0.000 C 
BRANCH  13  14
ATOM     14  C   UNL     1      88.281  63.957  88.048  0.00  0.00    +0.000 A 
ATOM     15  C   UNL     1      88.509  64.275  89.374  0.00  0.00    +0.000 A 
ATOM     16  C   UNL     1      87.623  63.591  90.254  0.00  0.00    +0.000 A 
ATOM     17  C   UNL     1      86.748  62.774  89.573  0.00  0.00    +0.000 A 
ATOM     18  S   UNL     1      86.998  62.833  87.883  0.00  0.00    +0.000 S 
ENDBRANCH  13  14
ENDBRANCH   1  13
TORSDOF 5
ENDMDL
