REMARK  Name = *****
REMARK  4 active torsions:
REMARK  status: ('A' for Active; 'I' for Inactive)
REMARK    1  A    between atoms: C_1  and  C_2
REMARK    2  A    between atoms: C_9  and  C_11
REMARK    3  A    between atoms: C_13  and  C_18
REMARK    4  A    between atoms: C_14  and  C_17
REMARK                            x       y       z     vdW  Elec       q    Type
REMARK                         _______ _______ _______ _____ _____    ______ ____
ROOT
ATOM      1  C   UNL     1       1.151   0.501  -0.551  0.00  0.00    +0.000 C 
ATOM      2  C   UNL     1       2.543   0.202  -0.073  0.00  0.00    +0.000 A 
ATOM      3  C   UNL     1       3.373  -0.653  -0.825  0.00  0.00    +0.000 A 
ATOM      4  C   UNL     1       4.678  -0.889  -0.372  0.00  0.00    +0.000 A 
ATOM      5  C   UNL     1       5.108  -0.267   0.786  0.00  0.00    +0.000 A 
ATOM      6  C   UNL     1       4.337   0.594   1.555  0.00  0.00    +0.000 A 
ATOM      7  C   UNL     1       3.034   0.821   1.091  0.00  0.00    +0.000 A 
ATOM      8  O   UNL     1       6.396  -0.650   1.014  0.00  0.00    +0.000 OA
ATOM      9  C   UNL     1       6.682  -1.494  -0.033  0.00  0.00    +0.000 A 
ATOM     10  N   UNL     1       5.685  -1.665  -0.886  0.00  0.00    +0.000 NA
ENDROOT
BRANCH   9  11
ATOM     11  C   UNL     1       8.023  -2.075  -0.060  0.00  0.00    +0.000 A 
ATOM     12  C   UNL     1       8.979  -1.792   0.927  0.00  0.00    +0.000 A 
ATOM     13  C   UNL     1      10.266  -2.359   0.889  0.00  0.00    +0.000 A 
ATOM     14  C   UNL     1      10.607  -3.228  -0.165  0.00  0.00    +0.000 A 
ATOM     15  C   UNL     1       9.652  -3.514  -1.151  0.00  0.00    +0.000 A 
ATOM     16  C   UNL     1       8.377  -2.945  -1.098  0.00  0.00    +0.000 A 
ATOM     17  C   UNL     1      11.969  -3.861  -0.253  0.00  0.00    +0.000 C 
ATOM     18  C   UNL     1      11.252  -2.017   1.973  0.00  0.00    +0.000 C 
ENDBRANCH   9  11
TORSDOF 1
