MODEL 1
REMARK VINA RESULT:      -5.4      0.000      0.000
REMARK  Name = *****
REMARK  1 active torsions:
REMARK  status: ('A' for Active; 'I' for Inactive)
REMARK    1  A    between atoms: C_5  and  C_6
REMARK                            x       y       z     vdW  Elec       q    Type
REMARK                         _______ _______ _______ _____ _____    ______ ____
ROOT
ATOM      1  C   UNL     1     105.201 122.497  80.557  0.00  0.00    +0.000 C 
ATOM      2  C   UNL     1     104.297 123.581  81.144  0.00  0.00    +0.000 C 
ATOM      3  C   UNL     1     104.223 124.867  80.290  0.00  0.00    +0.000 C 
ATOM      4  C   UNL     1     103.306 125.953  80.899  0.00  0.00    +0.000 C 
ATOM      5  C   UNL     1     102.454 125.751  81.927  0.00  0.00    +0.000 C 
ATOM      6  C   UNL     1     103.480 127.302  80.228  0.00  0.00    +0.000 C 
ATOM      7  C   UNL     1     104.920 127.788  80.394  0.00  0.00    +0.000 C 
ATOM      8  C   UNL     1     105.921 126.730  80.033  0.00  0.00    +0.000 C 
ATOM      9  C   UNL     1     105.616 125.420  79.962  0.00  0.00    +0.000 C 
ATOM     10  S   UNL     1     106.842 124.343  79.343  0.00  0.00    +0.000 S 
ATOM     11  C   UNL     1     106.650 122.943  80.470  0.00  0.00    +0.000 C 
ENDROOT
BRANCH   5  12
ATOM     12  C   UNL     1     101.602 126.780  82.527  0.00  0.00    +0.000 A 
ATOM     13  C   UNL     1     100.212 126.718  82.376  0.00  0.00    +0.000 A 
ATOM     14  C   UNL     1      99.402 127.703  82.944  0.00  0.00    +0.000 A 
ATOM     15  C   UNL     1      99.977 128.751  83.663  0.00  0.00    +0.000 A 
ATOM     16  C   UNL     1     101.362 128.816  83.815  0.00  0.00    +0.000 A 
ATOM     17  C   UNL     1     102.174 127.833  83.248  0.00  0.00    +0.000 A 
ENDBRANCH   5  12
TORSDOF 1
ENDMDL
