REMARK  Name = *****
REMARK  4 active torsions:
REMARK  status: ('A' for Active; 'I' for Inactive)
REMARK    1  A    between atoms: C_1  and  C_2
REMARK    2  A    between atoms: C_3  and  C_8
REMARK    3  A    between atoms: C_8  and  C_9
REMARK    4  A    between atoms: C_9  and  C_10
REMARK                            x       y       z     vdW  Elec       q    Type
REMARK                         _______ _______ _______ _____ _____    ______ ____
ROOT
ATOM      1  C   UNL     1       1.042   2.451  -0.118  0.00  0.00    +0.000 C 
ENDROOT
BRANCH   1   4
ATOM      2  C   UNL     1       2.491  -0.249   0.133  0.00  0.00    +0.000 C 
ATOM      3  C   UNL     1       0.995  -0.086   0.042  0.00  0.00    +0.000 C 
ATOM      4  C   UNL     1       0.350   1.101  -0.036  0.00  0.00    +0.000 C 
ATOM      5  C   UNL     1      -1.164   1.187  -0.070  0.00  0.00    +0.000 C 
ATOM      6  C   UNL     1      -1.872  -0.100   0.347  0.00  0.00    +0.000 C 
ATOM      7  C   UNL     1      -1.226  -1.303  -0.318  0.00  0.00    +0.000 C 
ATOM      8  C   UNL     1       0.248  -1.406   0.067  0.00  0.00    +0.000 C 
ENDBRANCH   1   4
BRANCH   1   9
ATOM      9  C   UNL     1       1.239   3.079   1.269  0.00  0.00    +0.000 C 
BRANCH   9  10
ATOM     10  C   UNL     1       1.832   4.472   1.318  0.00  0.00    +0.000 A 
ATOM     11  C   UNL     1       2.214   5.199   0.184  0.00  0.00    +0.000 A 
ATOM     12  C   UNL     1       2.743   6.488   0.307  0.00  0.00    +0.000 A 
ATOM     13  C   UNL     1       2.899   7.065   1.565  0.00  0.00    +0.000 A 
ATOM     14  C   UNL     1       2.529   6.355   2.703  0.00  0.00    +0.000 A 
ATOM     15  C   UNL     1       2.000   5.069   2.580  0.00  0.00    +0.000 A 
ENDBRANCH   9  10
ENDBRANCH   1   9
TORSDOF 3
