MODEL 1
REMARK VINA RESULT:      -4.3      0.000      0.000
REMARK  Name = *****
REMARK  5 active torsions:
REMARK  status: ('A' for Active; 'I' for Inactive)
REMARK    1  A    between atoms: C_1  and  C_2
REMARK    2  A    between atoms: C_7  and  C_8
REMARK    3  A    between atoms: C_8  and  C_9
REMARK    4  A    between atoms: C_8  and  S_10
REMARK    5  A    between atoms: S_10  and  C_12
REMARK                            x       y       z     vdW  Elec       q    Type
REMARK                         _______ _______ _______ _____ _____    ______ ____
ROOT
ATOM      1  C   UNL     1      86.872  65.091  87.851  0.00  0.00    +0.000 C 
ATOM      2  C   UNL     1      87.690  66.050  86.988  0.00  0.00    +0.000 C 
ENDROOT
BRANCH   1   9
ATOM      3  C   UNL     1      85.223  65.609  90.521  0.00  0.00    +0.000 C 
ATOM      4  C   UNL     1      86.602  65.012  90.466  0.00  0.00    +0.000 A 
ATOM      5  C   UNL     1      87.181  64.657  91.705  0.00  0.00    +0.000 A 
ATOM      6  C   UNL     1      88.452  64.092  91.784  0.00  0.00    +0.000 A 
ATOM      7  C   UNL     1      89.172  63.862  90.623  0.00  0.00    +0.000 A 
ATOM      8  C   UNL     1      88.616  64.198  89.391  0.00  0.00    +0.000 A 
ATOM      9  C   UNL     1      87.326  64.776  89.276  0.00  0.00    +0.000 A 
ENDBRANCH   1   9
BRANCH   1  10
ATOM     10  S   UNL     1      86.380  63.569  86.921  0.00  0.00    +0.000 S 
ATOM     11  O   UNL     1      87.633  62.809  86.590  0.00  0.00    +0.000 OA
BRANCH  10  12
ATOM     12  C   UNL     1      85.550  62.632  88.218  0.00  0.00    +0.000 A 
ATOM     13  C   UNL     1      84.193  62.858  88.475  0.00  0.00    +0.000 A 
ATOM     14  C   UNL     1      83.531  62.123  89.460  0.00  0.00    +0.000 A 
ATOM     15  C   UNL     1      84.217  61.147  90.181  0.00  0.00    +0.000 A 
ATOM     16  C   UNL     1      85.562  60.900  89.914  0.00  0.00    +0.000 A 
ATOM     17  C   UNL     1      86.226  61.636  88.931  0.00  0.00    +0.000 A 
ENDBRANCH  10  12
ENDBRANCH   1  10
TORSDOF 3
ENDMDL
