MODEL 1
REMARK VINA RESULT:      -5.3      0.000      0.000
REMARK  Name = *****
REMARK  1 active torsions:
REMARK  status: ('A' for Active; 'I' for Inactive)
REMARK    1  A    between atoms: C_10  and  C_11
REMARK                            x       y       z     vdW  Elec       q    Type
REMARK                         _______ _______ _______ _____ _____    ______ ____
ROOT
ATOM      1  C   UNL     1      99.237 127.146  82.332  0.00  0.00    +0.000 C 
ATOM      2  C   UNL     1      98.649 128.282  83.160  0.00  0.00    +0.000 C 
ATOM      3  C   UNL     1      99.687 129.254  83.666  0.00  0.00    +0.000 A 
ATOM      4  C   UNL     1      99.238 130.481  84.189  0.00  0.00    +0.000 A 
ATOM      5  C   UNL     1     100.137 131.398  84.727  0.00  0.00    +0.000 A 
ATOM      6  C   UNL     1     101.492 131.092  84.764  0.00  0.00    +0.000 A 
ATOM      7  C   UNL     1     101.948 129.873  84.255  0.00  0.00    +0.000 A 
ATOM      8  C   UNL     1     101.064 128.940  83.684  0.00  0.00    +0.000 A 
ATOM      9  C   UNL     1     101.538 127.633  83.140  0.00  0.00    +0.000 C 
ATOM     10  C   UNL     1     102.807 127.460  82.712  0.00  0.00    +0.000 C 
ATOM     11  C   UNL     1     100.466 126.569  83.022  0.00  0.00    +0.000 C 
ENDROOT
BRANCH  10  12
ATOM     12  C   UNL     1     103.343 126.217  82.150  0.00  0.00    +0.000 A 
ATOM     13  C   UNL     1     103.500 126.087  80.767  0.00  0.00    +0.000 A 
ATOM     14  C   UNL     1     104.009 124.905  80.226  0.00  0.00    +0.000 A 
ATOM     15  C   UNL     1     104.365 123.851  81.067  0.00  0.00    +0.000 A 
ATOM     16  C   UNL     1     104.211 123.975  82.447  0.00  0.00    +0.000 A 
ATOM     17  C   UNL     1     103.700 125.156  82.989  0.00  0.00    +0.000 A 
ENDBRANCH  10  12
TORSDOF 1
ENDMDL
