MODEL 1
REMARK VINA RESULT:      -4.2      0.000      0.000
REMARK  Name = *****
REMARK  6 active torsions:
REMARK  status: ('A' for Active; 'I' for Inactive)
REMARK    1  A    between atoms: C_1  and  C_2
REMARK    2  A    between atoms: C_5  and  S_8
REMARK    3  A    between atoms: S_8  and  C_9
REMARK    4  A    between atoms: C_9  and  C_10
REMARK    5  A    between atoms: C_12  and  O_17
REMARK    6  A    between atoms: O_17  and  C_18
REMARK                            x       y       z     vdW  Elec       q    Type
REMARK                         _______ _______ _______ _____ _____    ______ ____
ROOT
ATOM      1  C   UNL     1      88.885  69.326  85.503  0.00  0.00    +0.000 C 
ENDROOT
BRANCH   1   2
ATOM      2  C   UNL     1      90.036  69.720  84.555  0.00  0.00    +0.000 C 
ATOM      3  C   UNL     1      90.380  71.219  84.608  0.00  0.00    +0.000 C 
ATOM      4  C   UNL     1      89.344  72.105  83.903  0.00  0.00    +0.000 C 
ATOM      5  C   UNL     1      89.178  71.665  82.446  0.00  0.00    +0.000 C 
ATOM      6  C   UNL     1      88.822  70.189  82.298  0.00  0.00    +0.000 C 
ATOM      7  C   UNL     1      89.769  69.287  83.097  0.00  0.00    +0.000 C 
ATOM      8 CL   UNL     1      87.116  69.901  82.752  0.00  0.00    +0.000 Cl
BRANCH   4   9
ATOM      9  O   UNL     1      89.790  73.466  83.871  0.00  0.00    +0.000 OA
ATOM     10  C   UNL     1      89.356  74.176  82.718  0.00  0.00    +0.000 C 
ENDBRANCH   4   9
ENDBRANCH   1   2
BRANCH   1  11
ATOM     11  S   UNL     1      89.056  70.137  87.137  0.00  0.00    +0.000 S 
BRANCH  11  16
ATOM     12  C   UNL     1      83.566  72.764  87.543  0.00  0.00    +0.000 C 
ATOM     13  C   UNL     1      84.903  72.088  87.456  0.00  0.00    +0.000 A 
ATOM     14  C   UNL     1      85.620  71.782  88.618  0.00  0.00    +0.000 A 
ATOM     15  C   UNL     1      86.882  71.185  88.536  0.00  0.00    +0.000 A 
ATOM     16  C   UNL     1      87.444  70.886  87.292  0.00  0.00    +0.000 A 
ATOM     17  C   UNL     1      86.741  71.218  86.130  0.00  0.00    +0.000 A 
ATOM     18  C   UNL     1      85.480  71.816  86.211  0.00  0.00    +0.000 A 
ENDBRANCH  11  16
ENDBRANCH   1  11
TORSDOF 4
ENDMDL
