REMARK  Name = *****
REMARK  3 active torsions:
REMARK  status: ('A' for Active; 'I' for Inactive)
REMARK    1  A    between atoms: C_2  and  C_3
REMARK    2  A    between atoms: C_8  and  C_9
REMARK    3  A    between atoms: C_10  and  C_11
REMARK                            x       y       z     vdW  Elec       q    Type
REMARK                         _______ _______ _______ _____ _____    ______ ____
ROOT
ATOM      1  C   UNL     1       3.068  -1.058   0.472  0.00  0.00    +0.000 A 
ATOM      2  C   UNL     1       2.866  -2.423   0.204  0.00  0.00    +0.000 A 
ATOM      3  C   UNL     1       3.756  -3.388   0.678  0.00  0.00    +0.000 A 
ATOM      4  C   UNL     1       4.867  -3.002   1.421  0.00  0.00    +0.000 A 
ATOM      5  C   UNL     1       5.091  -1.651   1.686  0.00  0.00    +0.000 A 
ATOM      6  C   UNL     1       4.208  -0.667   1.208  0.00  0.00    +0.000 A 
ENDROOT
BRANCH   1   8
ATOM      7  C   UNL     1       0.797  -0.171  -0.001  0.00  0.00    +0.000 C 
ATOM      8  C   UNL     1       2.129  -0.064  -0.080  0.00  0.00    +0.000 C 
ENDBRANCH   1   8
BRANCH   6   9
ATOM      9  C   UNL     1       4.466   0.746   1.542  0.00  0.00    +0.000 C 
ATOM     10  C   UNL     1       5.619   1.360   1.234  0.00  0.00    +0.000 C 
BRANCH  10  11
ATOM     11  C   UNL     1       5.866   2.731   1.544  0.00  0.00    +0.000 A 
ATOM     12  C   UNL     1       5.105   3.663   2.234  0.00  0.00    +0.000 A 
ATOM     13  C   UNL     1       5.725   4.944   2.324  0.00  0.00    +0.000 A 
ATOM     14  C   UNL     1       6.948   4.966   1.699  0.00  0.00    +0.000 A 
ATOM     15  S   UNL     1       7.344   3.453   1.017  0.00  0.00    +0.000 S 
ENDBRANCH  10  11
ENDBRANCH   6   9
TORSDOF 3
