REMARK  Name = *****
REMARK  5 active torsions:
REMARK  status: ('A' for Active; 'I' for Inactive)
REMARK    1  A    between atoms: C_1  and  C_2
REMARK    2  A    between atoms: C_2  and  C_3
REMARK    3  A    between atoms: C_4  and  C_16
REMARK    4  A    between atoms: C_6  and  C_8
REMARK    5  A    between atoms: C_9  and  C_10
REMARK                            x       y       z     vdW  Elec       q    Type
REMARK                         _______ _______ _______ _____ _____    ______ ____
ROOT
ATOM      1  C   UNL     1       3.300   1.424  -0.145  0.00  0.00    +0.000 A 
ATOM      2  C   UNL     1       2.452   2.507  -0.122  0.00  0.00    +0.000 A 
ATOM      3  N   UNL     1       3.096   3.592  -0.678  0.00  0.00    +0.000 NA
ATOM      4  C   UNL     1       4.309   3.167  -1.008  0.00  0.00    +0.000 A 
ATOM      5  O   UNL     1       4.477   1.828  -0.702  0.00  0.00    +0.000 OA
ENDROOT
BRANCH   1   7
ATOM      6  C   UNL     1       2.778  -0.889  -0.871  0.00  0.00    +0.000 C 
ATOM      7  C   UNL     1       3.208   0.009   0.278  0.00  0.00    +0.000 C 
ENDBRANCH   1   7
BRANCH   4   8
ATOM      8  C   UNL     1       5.352   3.923  -1.610  0.00  0.00    +0.000 C 
ATOM      9  C   UNL     1       5.195   5.226  -1.894  0.00  0.00    +0.000 C 
BRANCH   9  10
ATOM     10  C   UNL     1       6.239   6.060  -2.503  0.00  0.00    +0.000 A 
ATOM     11  C   UNL     1       7.061   5.593  -3.538  0.00  0.00    +0.000 A 
ATOM     12  C   UNL     1       8.024   6.427  -4.111  0.00  0.00    +0.000 A 
ATOM     13  C   UNL     1       8.169   7.738  -3.663  0.00  0.00    +0.000 A 
ATOM     14  C   UNL     1       7.347   8.219  -2.646  0.00  0.00    +0.000 A 
ATOM     15  C   UNL     1       6.383   7.385  -2.073  0.00  0.00    +0.000 A 
ENDBRANCH   9  10
ENDBRANCH   4   8
BRANCH   2  16
ATOM     16  C   UNL     1       1.054   2.606   0.358  0.00  0.00    +0.000 C 
ATOM     17 CL   UNL     1       1.018   2.568   2.134  0.00  0.00    +0.000 Cl
ENDBRANCH   2  16
TORSDOF 4
