MODEL 1
REMARK VINA RESULT:      -4.5      0.000      0.000
REMARK  Name = *****
REMARK  4 active torsions:
REMARK  status: ('A' for Active; 'I' for Inactive)
REMARK    1  A    between atoms: C_5  and  C_7
REMARK    2  A    between atoms: C_7  and  S_8
REMARK    3  A    between atoms: S_8  and  C_9
REMARK    4  A    between atoms: C_12  and  C_14
REMARK                            x       y       z     vdW  Elec       q    Type
REMARK                         _______ _______ _______ _____ _____    ______ ____
ROOT
ATOM      1  S   UNL     1      89.489  69.494  84.086  0.00  0.00    +0.000 S 
ENDROOT
BRANCH   1   2
ATOM      2  C   UNL     1      90.029  68.075  84.922  0.00  0.00    +0.000 A 
ATOM      3  N   UNL     1      90.132  67.955  86.230  0.00  0.00    +0.000 NA
ATOM      4  N   UNL     1      90.601  66.683  86.481  0.00  0.00    +0.000 NA
ATOM      5  C   UNL     1      90.755  66.103  85.306  0.00  0.00    +0.000 A 
ATOM      6  O   UNL     1      90.413  66.935  84.267  0.00  0.00    +0.000 OA
BRANCH   5   7
ATOM      7  C   UNL     1      91.228  64.738  84.961  0.00  0.00    +0.000 C 
ATOM      8  F   UNL     1      92.576  64.669  84.806  0.00  0.00    +0.000 F 
ATOM      9  F   UNL     1      90.902  63.827  85.918  0.00  0.00    +0.000 F 
ATOM     10  F   UNL     1      90.684  64.287  83.798  0.00  0.00    +0.000 F 
ENDBRANCH   5   7
ENDBRANCH   1   2
BRANCH   1  11
ATOM     11  C   UNL     1      89.495  70.692  85.451  0.00  0.00    +0.000 C 
BRANCH  11  16
ATOM     12  C   UNL     1      85.881  71.873  85.240  0.00  0.00    +0.000 A 
ATOM     13  C   UNL     1      85.444  71.734  86.554  0.00  0.00    +0.000 A 
ATOM     14  C   UNL     1      86.318  71.254  87.529  0.00  0.00    +0.000 A 
ATOM     15  C   UNL     1      87.632  70.915  87.193  0.00  0.00    +0.000 A 
ATOM     16  C   UNL     1      88.092  71.057  85.872  0.00  0.00    +0.000 A 
ATOM     17  C   UNL     1      87.192  71.535  84.900  0.00  0.00    +0.000 A 
ATOM     18 CL   UNL     1      88.649  70.320  88.456  0.00  0.00    +0.000 Cl
ENDBRANCH  11  16
ENDBRANCH   1  11
TORSDOF 4
ENDMDL
