MODEL 1
REMARK VINA RESULT:      -4.1      0.000      0.000
REMARK  Name = *****
REMARK  2 active torsions:
REMARK  status: ('A' for Active; 'I' for Inactive)
REMARK    1  A    between atoms: C_4  and  C_7
REMARK    2  A    between atoms: C_8  and  C_9
REMARK                            x       y       z     vdW  Elec       q    Type
REMARK                         _______ _______ _______ _____ _____    ______ ____
ROOT
ATOM      1  C   UNL     1     102.704 126.620  82.327  0.00  0.00    +0.000 C 
ATOM      2  C   UNL     1     102.775 125.508  81.574  0.00  0.00    +0.000 C 
ENDROOT
BRANCH   1   6
ATOM      3  C   UNL     1      98.987 128.479  83.336  0.00  0.00    +0.000 A 
ATOM      4  C   UNL     1     100.182 129.097  83.696  0.00  0.00    +0.000 A 
ATOM      5  C   UNL     1     101.404 128.496  83.379  0.00  0.00    +0.000 A 
ATOM      6  C   UNL     1     101.441 127.268  82.707  0.00  0.00    +0.000 A 
ATOM      7  C   UNL     1     100.232 126.666  82.334  0.00  0.00    +0.000 A 
ATOM      8  C   UNL     1      99.011 127.265  82.653  0.00  0.00    +0.000 A 
ENDBRANCH   1   6
BRANCH   2   9
ATOM      9  C   UNL     1     103.976 124.828  81.169  0.00  0.00    +0.000 A 
ATOM     10  C   UNL     1     104.552 124.964  79.917  0.00  0.00    +0.000 A 
ATOM     11  S   UNL     1     105.969 124.021  79.726  0.00  0.00    +0.000 S 
ATOM     12  C   UNL     1     105.837 123.407  81.316  0.00  0.00    +0.000 A 
ATOM     13  C   UNL     1     104.737 123.915  81.964  0.00  0.00    +0.000 A 
ATOM     14 BR   UNL     1     104.314 123.444  83.751  0.00  0.00    +0.000 Br
ENDBRANCH   2   9
TORSDOF 2
ENDMDL
