MODEL 1
REMARK VINA RESULT:      -4.6      0.000      0.000
REMARK  Name = *****
REMARK  4 active torsions:
REMARK  status: ('A' for Active; 'I' for Inactive)
REMARK    1  A    between atoms: C_4  and  C_7
REMARK    2  A    between atoms: C_7  and  C_8
REMARK    3  A    between atoms: C_8  and  C_9
REMARK    4  A    between atoms: C_12  and  C_15
REMARK                            x       y       z     vdW  Elec       q    Type
REMARK                         _______ _______ _______ _____ _____    ______ ____
ROOT
ATOM      1  C   UNL     1      86.903  69.383  88.318  0.00  0.00    +0.000 C 
ENDROOT
BRANCH   1   2
ATOM      2  C   UNL     1      87.900  68.495  87.612  0.00  0.00    +0.000 A 
ATOM      3  C   UNL     1      87.740  67.102  87.622  0.00  0.00    +0.000 A 
ATOM      4  C   UNL     1      88.672  66.279  86.983  0.00  0.00    +0.000 A 
ATOM      5  C   UNL     1      89.773  66.841  86.331  0.00  0.00    +0.000 A 
ATOM      6  C   UNL     1      89.941  68.228  86.322  0.00  0.00    +0.000 A 
ATOM      7  C   UNL     1      89.009  69.050  86.962  0.00  0.00    +0.000 A 
BRANCH   5   8
ATOM      8  C   UNL     1      90.729  65.995  85.676  0.00  0.00    +0.000 C 
ATOM      9  N   UNL     1      91.503  65.312  85.146  0.00  0.00    +0.000 NA
ENDBRANCH   5   8
ENDBRANCH   1   2
BRANCH   1  10
ATOM     10  C   UNL     1      87.193  70.867  88.070  0.00  0.00    +0.000 C 
BRANCH  10  14
ATOM     11  C   UNL     1      84.192  72.627  85.522  0.00  0.00    +0.000 A 
ATOM     12  C   UNL     1      84.011  72.608  86.904  0.00  0.00    +0.000 A 
ATOM     13  C   UNL     1      84.984  72.044  87.730  0.00  0.00    +0.000 A 
ATOM     14  C   UNL     1      86.150  71.495  87.180  0.00  0.00    +0.000 A 
ATOM     15  C   UNL     1      86.321  71.514  85.790  0.00  0.00    +0.000 A 
ATOM     16  C   UNL     1      85.346  72.079  84.965  0.00  0.00    +0.000 A 
ENDBRANCH  10  14
ENDBRANCH   1  10
TORSDOF 4
ENDMDL
