MODEL 1
REMARK VINA RESULT:      -5.0      0.000      0.000
REMARK  Name = *****
REMARK  2 active torsions:
REMARK  status: ('A' for Active; 'I' for Inactive)
REMARK    1  A    between atoms: C_4  and  C_7
REMARK    2  A    between atoms: C_8  and  C_9
REMARK                            x       y       z     vdW  Elec       q    Type
REMARK                         _______ _______ _______ _____ _____    ______ ____
ROOT
ATOM      1  C   UNL     1     102.995 126.119  81.188  0.00  0.00    +0.000 C 
ATOM      2  C   UNL     1     102.122 125.964  82.196  0.00  0.00    +0.000 C 
ATOM      3  F   UNL     1     102.953 127.250  80.443  0.00  0.00    +0.000 F 
ENDROOT
BRANCH   2   4
ATOM      4  C   UNL     1     101.116 126.968  82.588  0.00  0.00    +0.000 A 
ATOM      5  C   UNL     1      99.755 126.735  82.327  0.00  0.00    +0.000 A 
ATOM      6  C   UNL     1      98.780 127.656  82.721  0.00  0.00    +0.000 A 
ATOM      7  C   UNL     1      99.148 128.819  83.391  0.00  0.00    +0.000 A 
ATOM      8  C   UNL     1     100.492 129.061  83.671  0.00  0.00    +0.000 A 
ATOM      9  C   UNL     1     101.470 128.142  83.277  0.00  0.00    +0.000 A 
ATOM     10 CL   UNL     1     103.117 128.520  83.660  0.00  0.00    +0.000 Cl
ENDBRANCH   2   4
BRANCH   1  14
ATOM     11  C   UNL     1     105.865 123.129  80.091  0.00  0.00    +0.000 A 
ATOM     12  C   UNL     1     105.011 122.933  81.173  0.00  0.00    +0.000 A 
ATOM     13  C   UNL     1     104.083 123.919  81.517  0.00  0.00    +0.000 A 
ATOM     14  C   UNL     1     104.002 125.118  80.793  0.00  0.00    +0.000 A 
ATOM     15  C   UNL     1     104.860 125.292  79.696  0.00  0.00    +0.000 A 
ATOM     16  C   UNL     1     105.789 124.306  79.351  0.00  0.00    +0.000 A 
ENDBRANCH   1  14
TORSDOF 2
ENDMDL
