MODEL 1
REMARK VINA RESULT:      -4.3      0.000      0.000
REMARK  Name = *****
REMARK  4 active torsions:
REMARK  status: ('A' for Active; 'I' for Inactive)
REMARK    1  A    between atoms: C_1  and  C_2
REMARK    2  A    between atoms: C_5  and  N_8
REMARK    3  A    between atoms: N_8  and  C_9
REMARK    4  A    between atoms: C_9  and  C_10
REMARK                            x       y       z     vdW  Elec       q    Type
REMARK                         _______ _______ _______ _____ _____    ______ ____
ROOT
ATOM      1  N   UNL     1     102.819 125.356  82.057  0.00  0.00    +0.000 NA
ENDROOT
BRANCH   1   6
ATOM      2  C   UNL     1     106.979 121.703  80.861  0.00  0.00    +0.000 C 
ATOM      3  C   UNL     1     105.857 122.654  81.163  0.00  0.00    +0.000 A 
ATOM      4  C   UNL     1     105.346 123.498  80.166  0.00  0.00    +0.000 A 
ATOM      5  C   UNL     1     104.320 124.397  80.461  0.00  0.00    +0.000 A 
ATOM      6  C   UNL     1     103.816 124.446  81.756  0.00  0.00    +0.000 A 
ATOM      7  C   UNL     1     104.305 123.619  82.762  0.00  0.00    +0.000 A 
ATOM      8  C   UNL     1     105.330 122.723  82.462  0.00  0.00    +0.000 A 
ENDBRANCH   1   6
BRANCH   1   9
ATOM      9  C   UNL     1     102.022 126.091  82.319  0.00  0.00    +0.000 C 
BRANCH   9  10
ATOM     10  C   UNL     1     101.009 127.035  82.678  0.00  0.00    +0.000 A 
ATOM     11  C   UNL     1      99.672 126.776  82.367  0.00  0.00    +0.000 A 
ATOM     12  C   UNL     1      98.685 127.706  82.702  0.00  0.00    +0.000 A 
ATOM     13  C   UNL     1      99.034 128.892  83.347  0.00  0.00    +0.000 A 
ATOM     14  C   UNL     1     100.368 129.150  83.660  0.00  0.00    +0.000 A 
ATOM     15  C   UNL     1     101.357 128.222  83.326  0.00  0.00    +0.000 A 
ENDBRANCH   9  10
ENDBRANCH   1   9
TORSDOF 3
ENDMDL
