MODEL 1
REMARK VINA RESULT:      -4.9      0.000      0.000
REMARK  Name = *****
REMARK  2 active torsions:
REMARK  status: ('A' for Active; 'I' for Inactive)
REMARK    1  A    between atoms: C_1  and  C_2
REMARK    2  A    between atoms: C_9  and  C_11
REMARK                            x       y       z     vdW  Elec       q    Type
REMARK                         _______ _______ _______ _____ _____    ______ ____
ROOT
ATOM      1  C   UNL     1      99.178 130.386  84.261  0.00  0.00    +0.000 C 
ATOM      2  C   UNL     1      99.796 129.153  83.665  0.00  0.00    +0.000 A 
ATOM      3  C   UNL     1     101.195 128.984  83.672  0.00  0.00    +0.000 A 
ATOM      4  C   UNL     1     101.733 127.820  83.108  0.00  0.00    +0.000 A 
ATOM      5  C   UNL     1     100.875 126.880  82.565  0.00  0.00    +0.000 A 
ATOM      6  C   UNL     1      99.491 126.997  82.531  0.00  0.00    +0.000 A 
ATOM      7  C   UNL     1      98.967 128.166  83.100  0.00  0.00    +0.000 A 
ATOM      8  O   UNL     1     101.630 125.851  82.086  0.00  0.00    +0.000 OA
ATOM      9  C   UNL     1     102.917 126.230  82.370  0.00  0.00    +0.000 A 
ATOM     10  N   UNL     1     103.032 127.396  82.977  0.00  0.00    +0.000 NA
ENDROOT
BRANCH   9  11
ATOM     11  C   UNL     1     103.993 125.281  81.955  0.00  0.00    +0.000 C 
ATOM     12  C   UNL     1     103.883 124.955  80.460  0.00  0.00    +0.000 C 
ATOM     13  C   UNL     1     104.943 123.946  80.025  0.00  0.00    +0.000 C 
ATOM     14  C   UNL     1     104.896 122.679  80.874  0.00  0.00    +0.000 C 
ATOM     15  C   UNL     1     105.003 122.995  82.362  0.00  0.00    +0.000 C 
ATOM     16  C   UNL     1     103.942 124.002  82.802  0.00  0.00    +0.000 C 
ENDBRANCH   9  11
TORSDOF 1
ENDMDL
