MODEL 1
REMARK VINA RESULT:      -4.7      0.000      0.000
REMARK  Name = *****
REMARK  2 active torsions:
REMARK  status: ('A' for Active; 'I' for Inactive)
REMARK    1  A    between atoms: C_6  and  C_7
REMARK    2  A    between atoms: C_8  and  C_9
REMARK                            x       y       z     vdW  Elec       q    Type
REMARK                         _______ _______ _______ _____ _____    ______ ____
ROOT
ATOM      1  C   UNL     1     104.100 124.093  81.980  0.00  0.00    +0.000 A 
ATOM      2  C   UNL     1     105.134 123.175  81.771  0.00  0.00    +0.000 A 
ATOM      3  C   UNL     1     105.905 123.240  80.608  0.00  0.00    +0.000 A 
ATOM      4  C   UNL     1     105.640 124.229  79.656  0.00  0.00    +0.000 A 
ATOM      5  C   UNL     1     104.602 125.146  79.869  0.00  0.00    +0.000 A 
ATOM      6  C   UNL     1     103.814 125.077  81.026  0.00  0.00    +0.000 A 
ATOM      7 CL   UNL     1     106.557 124.381  78.198  0.00  0.00    +0.000 Cl
ATOM      8 CL   UNL     1     107.166 122.076  80.413  0.00  0.00    +0.000 Cl
ENDROOT
BRANCH   6   9
ATOM      9  C   UNL     1     102.737 126.038  81.300  0.00  0.00    +0.000 C 
ATOM     10  C   UNL     1     101.953 125.992  82.389  0.00  0.00    +0.000 C 
BRANCH  10  11
ATOM     11  C   UNL     1     100.886 126.965  82.671  0.00  0.00    +0.000 A 
ATOM     12  C   UNL     1      99.550 126.727  82.349  0.00  0.00    +0.000 A 
ATOM     13  C   UNL     1      98.605 127.687  82.681  0.00  0.00    +0.000 A 
ATOM     14  N   UNL     1      98.899 128.845  83.307  0.00  0.00    +0.000 NA
ATOM     15  C   UNL     1     100.195 129.049  83.624  0.00  0.00    +0.000 A 
ATOM     16  C   UNL     1     101.210 128.150  83.337  0.00  0.00    +0.000 A 
ENDBRANCH  10  11
ENDBRANCH   6   9
TORSDOF 2
ENDMDL
