MODEL 1
REMARK VINA RESULT:      -3.5      0.000      0.000
REMARK  Name = *****
REMARK  2 active torsions:
REMARK  status: ('A' for Active; 'I' for Inactive)
REMARK    1  A    between atoms: C_5  and  S_6
REMARK    2  A    between atoms: S_6  and  C_7
REMARK                            x       y       z     vdW  Elec       q    Type
REMARK                         _______ _______ _______ _____ _____    ______ ____
ROOT
ATOM      1  S   UNL     1     103.008 127.374  83.529  0.00  0.00    +0.000 S 
ENDROOT
BRANCH   1   6
ATOM      2  C   UNL     1     105.256 123.549  80.558  0.00  0.00    +0.000 C 
ATOM      3  C   UNL     1     104.549 122.958  81.765  0.00  0.00    +0.000 C 
ATOM      4  S   UNL     1     104.247 124.308  82.942  0.00  0.00    +0.000 S 
ATOM      5  C   UNL     1     103.963 125.532  81.731  0.00  0.00    +0.000 C 
ATOM      6  C   UNL     1     103.469 126.759  81.971  0.00  0.00    +0.000 C 
ATOM      7  S   UNL     1     104.377 125.072  80.093  0.00  0.00    +0.000 S 
ENDBRANCH   1   6
BRANCH   1   8
ATOM      8  C   UNL     1     101.269 127.624  83.235  0.00  0.00    +0.000 A 
ATOM      9  C   UNL     1     100.655 128.820  83.622  0.00  0.00    +0.000 A 
ATOM     10  C   UNL     1      99.292 129.017  83.389  0.00  0.00    +0.000 A 
ATOM     11  C   UNL     1      98.539 128.023  82.765  0.00  0.00    +0.000 A 
ATOM     12  C   UNL     1      99.148 126.832  82.370  0.00  0.00    +0.000 A 
ATOM     13  C   UNL     1     100.510 126.634  82.601  0.00  0.00    +0.000 A 
ENDBRANCH   1   8
TORSDOF 2
ENDMDL
