MODEL 1
REMARK VINA RESULT:      -4.2      0.000      0.000
REMARK  Name = *****
REMARK  5 active torsions:
REMARK  status: ('A' for Active; 'I' for Inactive)
REMARK    1  A    between atoms: C_1  and  O_2
REMARK    2  A    between atoms: O_2  and  P_3
REMARK    3  A    between atoms: P_3  and  C_5
REMARK    4  A    between atoms: P_3  and  O_11
REMARK    5  A    between atoms: O_11  and  C_12
REMARK                            x       y       z     vdW  Elec       q    Type
REMARK                         _______ _______ _______ _____ _____    ______ ____
ROOT
ATOM      1  P   UNL     1      88.034  70.768  85.301  0.00  0.00    +0.000 P 
ATOM      2  S   UNL     1      89.241  71.965  84.327  0.00  0.00    +0.000 S 
ENDROOT
BRANCH   1   3
ATOM      3  C   UNL     1      86.571  71.409  86.126  0.00  0.00    +0.000 A 
ATOM      4  C   UNL     1      85.514  71.935  85.364  0.00  0.00    +0.000 A 
ATOM      5  C   UNL     1      84.370  72.440  85.984  0.00  0.00    +0.000 A 
ATOM      6  C   UNL     1      84.265  72.421  87.373  0.00  0.00    +0.000 A 
ATOM      7  C   UNL     1      85.302  71.897  88.142  0.00  0.00    +0.000 A 
ATOM      8  C   UNL     1      86.448  71.394  87.523  0.00  0.00    +0.000 A 
ENDBRANCH   1   3
BRANCH   1  10
ATOM      9  C   UNL     1      87.985  69.341  83.099  0.00  0.00    +0.000 C 
ATOM     10  O   UNL     1      87.446  69.547  84.392  0.00  0.00    +0.000 OA
ENDBRANCH   1  10
BRANCH   1  11
ATOM     11  O   UNL     1      88.745  69.937  86.502  0.00  0.00    +0.000 OA
BRANCH  11  12
ATOM     12  C   UNL     1      88.723  68.588  86.709  0.00  0.00    +0.000 A 
ATOM     13  C   UNL     1      87.696  67.895  87.344  0.00  0.00    +0.000 A 
ATOM     14  C   UNL     1      87.785  66.508  87.506  0.00  0.00    +0.000 A 
ATOM     15  C   UNL     1      88.902  65.821  87.034  0.00  0.00    +0.000 A 
ATOM     16  C   UNL     1      89.935  66.509  86.403  0.00  0.00    +0.000 A 
ATOM     17  C   UNL     1      89.843  67.894  86.243  0.00  0.00    +0.000 A 
ATOM     18 CL   UNL     1      89.008  64.117  87.236  0.00  0.00    +0.000 Cl
ENDBRANCH  11  12
ENDBRANCH   1  11
TORSDOF 4
ENDMDL
