MODEL 1
REMARK VINA RESULT:      -4.7      0.000      0.000
REMARK  Name = *****
REMARK  3 active torsions:
REMARK  status: ('A' for Active; 'I' for Inactive)
REMARK    1  A    between atoms: C_1  and  N_2
REMARK    2  A    between atoms: P_10  and  O_12
REMARK    3  A    between atoms: O_12  and  C_13
REMARK                            x       y       z     vdW  Elec       q    Type
REMARK                         _______ _______ _______ _____ _____    ______ ____
ROOT
ATOM      1  C   UNL     1      87.762  65.868  87.910  0.00  0.00    +0.000 C 
ATOM      2  N   UNL     1      87.966  64.942  86.822  0.00  0.00    +0.000 N 
ATOM      3  C   UNL     1      89.217  64.887  86.202  0.00  0.00    +0.000 A 
ATOM      4  C   UNL     1      90.147  65.896  86.029  0.00  0.00    +0.000 A 
ATOM      5  C   UNL     1      91.317  65.618  85.311  0.00  0.00    +0.000 A 
ATOM      6  C   UNL     1      91.539  64.344  84.766  0.00  0.00    +0.000 A 
ATOM      7  C   UNL     1      90.598  63.328  84.937  0.00  0.00    +0.000 A 
ATOM      8  C   UNL     1      89.456  63.614  85.664  0.00  0.00    +0.000 A 
ATOM      9  N   UNL     1      88.401  62.706  85.932  0.00  0.00    +0.000 N 
ATOM     10  P   UNL     1      87.284  63.425  86.966  0.00  0.00    +0.000 P 
ATOM     11  S   UNL     1      85.450  63.295  86.355  0.00  0.00    +0.000 S 
ATOM     12  H   UNL     1      88.333  61.793  85.569  0.00  0.00    +0.000 HD
ENDROOT
BRANCH  10  13
ATOM     13  O   UNL     1      87.596  62.930  88.472  0.00  0.00    +0.000 OA
BRANCH  13  14
ATOM     14  C   UNL     1      86.687  62.479  89.385  0.00  0.00    +0.000 A 
ATOM     15  C   UNL     1      86.399  63.358  90.432  0.00  0.00    +0.000 A 
ATOM     16  C   UNL     1      85.484  63.000  91.423  0.00  0.00    +0.000 A 
ATOM     17  C   UNL     1      84.856  61.758  91.370  0.00  0.00    +0.000 A 
ATOM     18  C   UNL     1      85.145  60.877  90.328  0.00  0.00    +0.000 A 
ATOM     19  C   UNL     1      86.062  61.236  89.336  0.00  0.00    +0.000 A 
ENDBRANCH  13  14
ENDBRANCH  10  13
TORSDOF 2
ENDMDL
