MODEL 1
REMARK VINA RESULT:      -5.1      0.000      0.000
REMARK  Name = *****
REMARK  5 active torsions:
REMARK  status: ('A' for Active; 'I' for Inactive)
REMARK    1  A    between atoms: C_1  and  N_2
REMARK    2  A    between atoms: N_2  and  C_3
REMARK    3  A    between atoms: N_2  and  C_4
REMARK    4  A    between atoms: C_7  and  C_10
REMARK    5  A    between atoms: C_11  and  C_12
REMARK                            x       y       z     vdW  Elec       q    Type
REMARK                         _______ _______ _______ _____ _____    ______ ____
ROOT
ATOM      1  C   UNL     1     102.785 125.500  82.141  0.00  0.00    +0.000 C 
ATOM      2  C   UNL     1     101.944 126.308  82.430  0.00  0.00    +0.000 C 
ENDROOT
BRANCH   2   3
ATOM      3  C   UNL     1     100.943 127.267  82.775  0.00  0.00    +0.000 A 
ATOM      4  C   UNL     1      99.603 127.048  82.456  0.00  0.00    +0.000 A 
ATOM      5  C   UNL     1      98.620 127.981  82.790  0.00  0.00    +0.000 A 
ATOM      6  C   UNL     1      98.973 129.155  83.454  0.00  0.00    +0.000 A 
ATOM      7  C   UNL     1     100.309 129.386  83.781  0.00  0.00    +0.000 A 
ATOM      8  C   UNL     1     101.281 128.445  83.441  0.00  0.00    +0.000 A 
ATOM      9  F   UNL     1     102.557 128.699  83.769  0.00  0.00    +0.000 F 
ATOM     10  F   UNL     1      99.229 125.930  81.816  0.00  0.00    +0.000 F 
ENDBRANCH   2   3
BRANCH   1  14
ATOM     11  C   UNL     1     105.776 122.612  81.107  0.00  0.00    +0.000 A 
ATOM     12  C   UNL     1     105.279 122.737  82.418  0.00  0.00    +0.000 A 
ATOM     13  C   UNL     1     104.297 123.678  82.762  0.00  0.00    +0.000 A 
ATOM     14  C   UNL     1     103.786 124.539  81.797  0.00  0.00    +0.000 A 
ATOM     15  C   UNL     1     104.266 124.458  80.495  0.00  0.00    +0.000 A 
ATOM     16  C   UNL     1     105.248 123.512  80.164  0.00  0.00    +0.000 A 
BRANCH  11  18
ATOM     17  C   UNL     1     108.051 122.169  80.272  0.00  0.00    +0.000 C 
ATOM     18  N   UNL     1     106.769 121.680  80.778  0.00  0.00    +0.000 N 
ATOM     19  C   UNL     1     106.817 120.404  81.490  0.00  0.00    +0.000 C 
ENDBRANCH  11  18
ENDBRANCH   1  14
TORSDOF 3
ENDMDL
