MODEL 1
REMARK VINA RESULT:      -4.7      0.000      0.000
REMARK  Name = *****
REMARK  3 active torsions:
REMARK  status: ('A' for Active; 'I' for Inactive)
REMARK    1  A    between atoms: C_4  and  O_7
REMARK    2  A    between atoms: O_7  and  C_8
REMARK    3  A    between atoms: C_8  and  C_10
REMARK                            x       y       z     vdW  Elec       q    Type
REMARK                         _______ _______ _______ _____ _____    ______ ____
ROOT
ATOM      1  C   UNL     1     103.207 125.863  81.686  0.00  0.00    +0.000 A 
ATOM      2  C   UNL     1     103.765 125.931  80.413  0.00  0.00    +0.000 A 
ATOM      3  C   UNL     1     104.621 124.927  79.974  0.00  0.00    +0.000 A 
ATOM      4  C   UNL     1     104.915 123.851  80.801  0.00  0.00    +0.000 A 
ATOM      5  C   UNL     1     104.353 123.777  82.068  0.00  0.00    +0.000 A 
ATOM      6  C   UNL     1     103.497 124.779  82.512  0.00  0.00    +0.000 A 
ATOM      7  F   UNL     1     102.942 124.675  83.729  0.00  0.00    +0.000 F 
ATOM      8  F   UNL     1     104.631 122.735  82.865  0.00  0.00    +0.000 F 
ATOM      9  F   UNL     1     105.741 122.884  80.376  0.00  0.00    +0.000 F 
ATOM     10  F   UNL     1     105.168 125.001  78.753  0.00  0.00    +0.000 F 
ATOM     11  F   UNL     1     103.511 126.973  79.607  0.00  0.00    +0.000 F 
ENDROOT
BRANCH   1  12
ATOM     12  C   UNL     1     102.293 126.914  82.126  0.00  0.00    +0.000 C 
ATOM     13  O   UNL     1     102.658 128.017  82.493  0.00  0.00    +0.000 OA
BRANCH  12  14
ATOM     14  O   UNL     1     101.031 126.429  82.095  0.00  0.00    +0.000 OA
BRANCH  14  18
ATOM     15  C   UNL     1      97.779 126.682  84.808  0.00  0.00    +0.000 C 
ATOM     16  C   UNL     1      99.184 126.902  85.365  0.00  0.00    +0.000 C 
ATOM     17  C   UNL     1     100.255 126.406  84.400  0.00  0.00    +0.000 C 
ATOM     18  C   UNL     1     100.101 127.037  83.012  0.00  0.00    +0.000 C 
ATOM     19  C   UNL     1      98.693 126.800  82.461  0.00  0.00    +0.000 C 
ATOM     20  C   UNL     1      97.619 127.298  83.421  0.00  0.00    +0.000 C 
ENDBRANCH  14  18
ENDBRANCH  12  14
ENDBRANCH   1  12
TORSDOF 3
ENDMDL
