MODEL 1
REMARK VINA RESULT:      -4.2      0.000      0.000
REMARK  Name = *****
REMARK  4 active torsions:
REMARK  status: ('A' for Active; 'I' for Inactive)
REMARK    1  A    between atoms: C_4  and  C_7
REMARK    2  A    between atoms: C_7  and  C_8
REMARK    3  A    between atoms: C_8  and  C_9
REMARK    4  A    between atoms: C_9  and  C_11
REMARK                            x       y       z     vdW  Elec       q    Type
REMARK                         _______ _______ _______ _____ _____    ______ ____
ROOT
ATOM      1  C   UNL     1      97.310 116.639  80.015  0.00  0.00    +0.000 C 
ATOM      2  O   UNL     1      96.934 115.677  80.681  0.00  0.00    +0.000 OA
ENDROOT
BRANCH   1   3
ATOM      3  C   UNL     1      97.111 118.020  80.555  0.00  0.00    +0.000 A 
ATOM      4  C   UNL     1      95.799 118.468  80.776  0.00  0.00    +0.000 A 
ATOM      5  C   UNL     1      95.561 119.751  81.277  0.00  0.00    +0.000 A 
ATOM      6  C   UNL     1      96.635 120.591  81.561  0.00  0.00    +0.000 A 
ATOM      7  C   UNL     1      97.942 120.159  81.347  0.00  0.00    +0.000 A 
ATOM      8  C   UNL     1      98.183 118.875  80.845  0.00  0.00    +0.000 A 
ATOM      9 CL   UNL     1      96.346 122.171  82.178  0.00  0.00    +0.000 Cl
ENDBRANCH   1   3
BRANCH   1  10
ATOM     10  C   UNL     1      97.971 116.477  78.659  0.00  0.00    +0.000 C 
BRANCH  10  11
ATOM     11  C   UNL     1      97.068 115.736  77.674  0.00  0.00    +0.000 C 
BRANCH  11  15
ATOM     12  C   UNL     1      94.880 118.453  75.141  0.00  0.00    +0.000 A 
ATOM     13  C   UNL     1      94.464 118.236  76.453  0.00  0.00    +0.000 A 
ATOM     14  C   UNL     1      95.176 117.362  77.276  0.00  0.00    +0.000 A 
ATOM     15  C   UNL     1      96.313 116.701  76.794  0.00  0.00    +0.000 A 
ATOM     16  C   UNL     1      96.720 116.922  75.471  0.00  0.00    +0.000 A 
ATOM     17  C   UNL     1      96.006 117.797  74.649  0.00  0.00    +0.000 A 
ENDBRANCH  11  15
ENDBRANCH  10  11
ENDBRANCH   1  10
TORSDOF 4
ENDMDL
