MODEL 1
REMARK VINA RESULT:      -4.6      0.000      0.000
REMARK  Name = *****
REMARK  4 active torsions:
REMARK  status: ('A' for Active; 'I' for Inactive)
REMARK    1  A    between atoms: C_4  and  C_7
REMARK    2  A    between atoms: C_7  and  C_8
REMARK    3  A    between atoms: C_8  and  C_9
REMARK    4  A    between atoms: C_14  and  C_15
REMARK                            x       y       z     vdW  Elec       q    Type
REMARK                         _______ _______ _______ _____ _____    ______ ____
ROOT
ATOM      1  C   UNL     1     101.232 126.622  82.425  0.00  0.00    +0.000 C 
ENDROOT
BRANCH   1   2
ATOM      2  C   UNL     1     100.979 127.926  83.157  0.00  0.00    +0.000 A 
ATOM      3  C   UNL     1     102.082 128.649  83.646  0.00  0.00    +0.000 A 
ATOM      4  C   UNL     1     101.900 129.847  84.339  0.00  0.00    +0.000 A 
ATOM      5  C   UNL     1     100.617 130.339  84.559  0.00  0.00    +0.000 A 
ATOM      6  C   UNL     1      99.512 129.632  84.086  0.00  0.00    +0.000 A 
ATOM      7  C   UNL     1      99.683 128.428  83.388  0.00  0.00    +0.000 A 
BRANCH   7   8
ATOM      8  C   UNL     1      98.510 127.739  82.922  0.00  0.00    +0.000 C 
ATOM      9  N   UNL     1      97.563 127.183  82.548  0.00  0.00    +0.000 NA
ENDBRANCH   7   8
ENDBRANCH   1   2
BRANCH   1  10
ATOM     10  C   UNL     1     102.524 126.668  81.597  0.00  0.00    +0.000 C 
BRANCH  10  14
ATOM     11  C   UNL     1     104.851 123.024  81.778  0.00  0.00    +0.000 A 
ATOM     12  C   UNL     1     104.672 123.662  80.553  0.00  0.00    +0.000 A 
ATOM     13  C   UNL     1     103.929 124.843  80.476  0.00  0.00    +0.000 A 
ATOM     14  C   UNL     1     103.368 125.411  81.627  0.00  0.00    +0.000 A 
ATOM     15  C   UNL     1     103.541 124.746  82.852  0.00  0.00    +0.000 A 
ATOM     16  C   UNL     1     104.281 123.564  82.928  0.00  0.00    +0.000 A 
ENDBRANCH  10  14
ENDBRANCH   1  10
TORSDOF 4
ENDMDL
