MODEL 1
REMARK VINA RESULT:      -4.3      0.000      0.000
REMARK  Name = *****
REMARK  2 active torsions:
REMARK  status: ('A' for Active; 'I' for Inactive)
REMARK    1  A    between atoms: C_4  and  C_7
REMARK    2  A    between atoms: C_8  and  C_9
REMARK                            x       y       z     vdW  Elec       q    Type
REMARK                         _______ _______ _______ _____ _____    ______ ____
ROOT
ATOM      1  C   UNL     1     101.830 125.936  82.396  0.00  0.00    +0.000 C 
ATOM      2  C   UNL     1     102.828 126.074  81.508  0.00  0.00    +0.000 C 
ENDROOT
BRANCH   1   6
ATOM      3  C   UNL     1      99.060 129.046  83.374  0.00  0.00    +0.000 A 
ATOM      4  C   UNL     1      98.598 127.886  82.754  0.00  0.00    +0.000 A 
ATOM      5  C   UNL     1      99.494 126.866  82.422  0.00  0.00    +0.000 A 
ATOM      6  C   UNL     1     100.862 127.000  82.699  0.00  0.00    +0.000 A 
ATOM      7  C   UNL     1     101.310 128.163  83.338  0.00  0.00    +0.000 A 
ATOM      8  C   UNL     1     100.415 129.183  83.669  0.00  0.00    +0.000 A 
ENDBRANCH   1   6
BRANCH   2   9
ATOM      9  C   UNL     1     103.763 125.032  81.230  0.00  0.00    +0.000 A 
ATOM     10  C   UNL     1     104.435 124.692  80.066  0.00  0.00    +0.000 A 
ATOM     11  C   UNL     1     105.294 123.564  80.216  0.00  0.00    +0.000 A 
ATOM     12  C   UNL     1     105.262 123.064  81.496  0.00  0.00    +0.000 A 
ATOM     13  S   UNL     1     104.205 123.949  82.501  0.00  0.00    +0.000 S 
ENDBRANCH   2   9
TORSDOF 2
ENDMDL
