MODEL 1
REMARK VINA RESULT:      -3.9      0.000      0.000
REMARK  Name = *****
REMARK  3 active torsions:
REMARK  status: ('A' for Active; 'I' for Inactive)
REMARK    1  A    between atoms: C_4  and  S_6
REMARK    2  A    between atoms: S_6  and  C_7
REMARK    3  A    between atoms: C_7  and  C_8
REMARK                            x       y       z     vdW  Elec       q    Type
REMARK                         _______ _______ _______ _____ _____    ______ ____
ROOT
ATOM      1  C   UNL     1     103.207 127.890  81.942  0.00  0.00    +0.000 C 
ENDROOT
BRANCH   1   2
ATOM      2  C   UNL     1     103.630 126.470  81.660  0.00  0.00    +0.000 A 
ATOM      3  C   UNL     1     103.917 126.060  80.349  0.00  0.00    +0.000 A 
ATOM      4  C   UNL     1     104.306 124.745  80.084  0.00  0.00    +0.000 A 
ATOM      5  C   UNL     1     104.406 123.831  81.130  0.00  0.00    +0.000 A 
ATOM      6  C   UNL     1     104.115 124.217  82.437  0.00  0.00    +0.000 A 
ATOM      7  C   UNL     1     103.724 125.532  82.700  0.00  0.00    +0.000 A 
ATOM      8 BR   UNL     1     104.937 122.052  80.773  0.00  0.00    +0.000 Br
ENDBRANCH   1   2
BRANCH   1   9
ATOM      9  S   UNL     1     102.451 128.054  83.585  0.00  0.00    +0.000 S 
BRANCH   9  13
ATOM     10  C   UNL     1      98.809 126.791  82.389  0.00  0.00    +0.000 A 
ATOM     11  C   UNL     1      98.316 127.956  82.932  0.00  0.00    +0.000 A 
ATOM     12  S   UNL     1      99.555 128.917  83.616  0.00  0.00    +0.000 S 
ATOM     13  C   UNL     1     100.760 127.774  83.201  0.00  0.00    +0.000 A 
ATOM     14  C   UNL     1     100.224 126.689  82.539  0.00  0.00    +0.000 A 
ENDBRANCH   9  13
ENDBRANCH   1   9
TORSDOF 3
ENDMDL
