MODEL 1
REMARK VINA RESULT:      -4.5      0.000      0.000
REMARK  Name = *****
REMARK  3 active torsions:
REMARK  status: ('A' for Active; 'I' for Inactive)
REMARK    1  A    between atoms: C_1  and  C_2
REMARK    2  A    between atoms: C_3  and  C_11
REMARK    3  A    between atoms: N_4  and  C_5
REMARK                            x       y       z     vdW  Elec       q    Type
REMARK                         _______ _______ _______ _____ _____    ______ ____
ROOT
ATOM      1  C   UNL     1     102.555 125.548  85.146  0.00  0.00    +0.000 C 
ATOM      2  C   UNL     1     103.300 125.844  83.893  0.00  0.00    +0.000 C 
ATOM      3  C   UNL     1     102.736 126.720  82.775  0.00  0.00    +0.000 C 
ATOM      4  N   UNL     1     102.830 125.260  82.648  0.00  0.00    +0.000 N 
ENDROOT
BRANCH   4   5
ATOM      5  C   UNL     1     103.766 124.698  81.748  0.00  0.00    +0.000 A 
ATOM      6  C   UNL     1     104.346 123.450  82.016  0.00  0.00    +0.000 A 
ATOM      7  C   UNL     1     105.244 122.872  81.116  0.00  0.00    +0.000 A 
ATOM      8  C   UNL     1     105.561 123.528  79.929  0.00  0.00    +0.000 A 
ATOM      9  C   UNL     1     104.971 124.755  79.635  0.00  0.00    +0.000 A 
ATOM     10  C   UNL     1     104.072 125.331  80.536  0.00  0.00    +0.000 A 
ENDBRANCH   4   5
BRANCH   3  11
ATOM     11  C   UNL     1     101.367 127.343  82.882  0.00  0.00    +0.000 A 
ATOM     12  C   UNL     1     100.233 126.674  82.390  0.00  0.00    +0.000 A 
ATOM     13  C   UNL     1      98.954 127.227  82.494  0.00  0.00    +0.000 A 
ATOM     14  C   UNL     1      98.781 128.468  83.101  0.00  0.00    +0.000 A 
ATOM     15  C   UNL     1      99.885 129.150  83.603  0.00  0.00    +0.000 A 
ATOM     16  C   UNL     1     101.161 128.590  83.496  0.00  0.00    +0.000 A 
ENDBRANCH   3  11
TORSDOF 2
ENDMDL
