REMARK  Name = *****
REMARK  4 active torsions:
REMARK  status: ('A' for Active; 'I' for Inactive)
REMARK    1  A    between atoms: C_1  and  C_2
REMARK    2  A    between atoms: C_2  and  C_4
REMARK    3  A    between atoms: C_7  and  C_10
REMARK    4  A    between atoms: C_11  and  C_12
REMARK                            x       y       z     vdW  Elec       q    Type
REMARK                         _______ _______ _______ _____ _____    ______ ____
ROOT
ATOM      1  C   UNL     1       3.260   1.140   0.137  0.00  0.00    +0.000 A 
ATOM      2  C   UNL     1       2.717   2.113   0.981  0.00  0.00    +0.000 A 
ATOM      3  C   UNL     1       3.403   3.314   1.206  0.00  0.00    +0.000 A 
ATOM      4  C   UNL     1       4.644   3.556   0.604  0.00  0.00    +0.000 A 
ATOM      5  C   UNL     1       5.174   2.584  -0.253  0.00  0.00    +0.000 A 
ATOM      6  C   UNL     1       4.491   1.385  -0.482  0.00  0.00    +0.000 A 
ENDROOT
BRANCH   1   8
ATOM      7  C   UNL     1       1.288  -0.468   0.591  0.00  0.00    +0.000 C 
ATOM      8  C   UNL     1       2.570  -0.156  -0.137  0.00  0.00    +0.000 C 
ATOM      9  O   UNL     1       3.048  -0.946  -0.948  0.00  0.00    +0.000 OA
ENDBRANCH   1   8
BRANCH   4  10
ATOM     10  C   UNL     1       5.384   4.815   0.789  0.00  0.00    +0.000 C 
ATOM     11  C   UNL     1       5.363   5.549   1.914  0.00  0.00    +0.000 C 
BRANCH  11  12
ATOM     12  C   UNL     1       6.131   6.797   2.081  0.00  0.00    +0.000 A 
ATOM     13  C   UNL     1       6.103   7.772   1.069  0.00  0.00    +0.000 A 
ATOM     14  C   UNL     1       6.797   8.978   1.212  0.00  0.00    +0.000 A 
ATOM     15  C   UNL     1       7.521   9.233   2.373  0.00  0.00    +0.000 A 
ATOM     16  C   UNL     1       7.548   8.285   3.395  0.00  0.00    +0.000 A 
ATOM     17  C   UNL     1       6.855   7.076   3.255  0.00  0.00    +0.000 A 
ATOM     18 CL   UNL     1       6.947   5.953   4.570  0.00  0.00    +0.000 Cl
ENDBRANCH  11  12
ENDBRANCH   4  10
TORSDOF 3
