MODEL 1
REMARK VINA RESULT:      -4.2      0.000      0.000
REMARK  Name = *****
REMARK  4 active torsions:
REMARK  status: ('A' for Active; 'I' for Inactive)
REMARK    1  A    between atoms: C_1  and  N_2
REMARK    2  A    between atoms: N_2  and  C_3
REMARK    3  A    between atoms: N_2  and  P_9
REMARK    4  A    between atoms: P_9  and  C_10
REMARK                            x       y       z     vdW  Elec       q    Type
REMARK                         _______ _______ _______ _____ _____    ______ ____
ROOT
ATOM      1  C   UNL     1     102.941 125.932  84.691  0.00  0.00    +0.000 C 
ATOM      2  N   UNL     1     102.239 126.780  83.718  0.00  0.00    +0.000 NA
ENDROOT
BRANCH   2   3
ATOM      3  C   UNL     1     102.606 126.484  82.313  0.00  0.00    +0.000 C 
ATOM      4  C   UNL     1     103.452 125.209  82.109  0.00  0.00    +0.000 C 
ATOM      5  C   UNL     1     103.743 124.965  80.628  0.00  0.00    +0.000 C 
ATOM      6  C   UNL     1     104.411 126.173  79.978  0.00  0.00    +0.000 C 
ATOM      7  C   UNL     1     103.595 127.445  80.181  0.00  0.00    +0.000 C 
ATOM      8  C   UNL     1     103.300 127.699  81.660  0.00  0.00    +0.000 C 
ENDBRANCH   2   3
BRANCH   2   9
ATOM      9  P   UNL     1     100.557 126.971  84.041  0.00  0.00    +0.000 P 
ATOM     10 CL   UNL     1      99.417 126.705  82.292  0.00  0.00    +0.000 Cl
BRANCH   9  11
ATOM     11  C   UNL     1     100.489 128.803  84.140  0.00  0.00    +0.000 A 
ATOM     12  C   UNL     1      99.417 129.541  83.614  0.00  0.00    +0.000 A 
ATOM     13  C   UNL     1      99.396 130.935  83.705  0.00  0.00    +0.000 A 
ATOM     14  C   UNL     1     100.446 131.609  84.325  0.00  0.00    +0.000 A 
ATOM     15  C   UNL     1     101.515 130.890  84.855  0.00  0.00    +0.000 A 
ATOM     16  C   UNL     1     101.537 129.496  84.765  0.00  0.00    +0.000 A 
ENDBRANCH   9  11
ENDBRANCH   2   9
TORSDOF 3
ENDMDL
