REMARK  Name = *****
REMARK  4 active torsions:
REMARK  status: ('A' for Active; 'I' for Inactive)
REMARK    1  A    between atoms: C_4  and  C_7
REMARK    2  A    between atoms: C_7  and  C_8
REMARK    3  A    between atoms: C_8  and  C_9
REMARK    4  A    between atoms: C_10  and  C_15
REMARK                            x       y       z     vdW  Elec       q    Type
REMARK                         _______ _______ _______ _____ _____    ______ ____
ROOT
ATOM      1  C   UNL     1      -3.625  -0.653  -0.027  0.00  0.00    +0.000 C 
ENDROOT
BRANCH   1   2
ATOM      2  C   UNL     1      -5.098  -0.372  -0.194  0.00  0.00    +0.000 A 
ATOM      3  C   UNL     1      -5.785  -0.596  -1.388  0.00  0.00    +0.000 A 
ATOM      4  N   UNL     1      -7.103  -0.325  -1.527  0.00  0.00    +0.000 NA
ATOM      5  N   UNL     1      -7.807   0.188  -0.475  0.00  0.00    +0.000 NA
ATOM      6  C   UNL     1      -7.177   0.419   0.692  0.00  0.00    +0.000 A 
ATOM      7  C   UNL     1      -5.831   0.158   0.872  0.00  0.00    +0.000 A 
BRANCH   3   8
ATOM      8  C   UNL     1      -5.158  -1.127  -2.563  0.00  0.00    +0.000 C 
ATOM      9  N   UNL     1      -4.601  -1.554  -3.490  0.00  0.00    +0.000 NA
ENDBRANCH   3   8
ENDBRANCH   1   2
BRANCH   1  10
ATOM     10  C   UNL     1      -2.753   0.485  -0.569  0.00  0.00    +0.000 C 
BRANCH  10  14
ATOM     11  C   UNL     1       1.431  -0.309   0.105  0.00  0.00    +0.000 A 
ATOM     12  C   UNL     1       0.754  -0.960  -0.924  0.00  0.00    +0.000 A 
ATOM     13  C   UNL     1      -0.599  -0.699  -1.147  0.00  0.00    +0.000 A 
ATOM     14  C   UNL     1      -1.287   0.218  -0.340  0.00  0.00    +0.000 A 
ATOM     15  C   UNL     1      -0.597   0.867   0.693  0.00  0.00    +0.000 A 
ATOM     16  C   UNL     1       0.756   0.605   0.912  0.00  0.00    +0.000 A 
ENDBRANCH  10  14
ENDBRANCH   1  10
TORSDOF 4
