MODEL 1
REMARK VINA RESULT:      -4.5      0.000      0.000
REMARK  Name = *****
REMARK  4 active torsions:
REMARK  status: ('A' for Active; 'I' for Inactive)
REMARK    1  A    between atoms: C_1  and  C_2
REMARK    2  A    between atoms: C_4  and  C_8
REMARK    3  A    between atoms: C_5  and  C_7
REMARK    4  A    between atoms: C_9  and  C_10
REMARK                            x       y       z     vdW  Elec       q    Type
REMARK                         _______ _______ _______ _____ _____    ______ ____
ROOT
ATOM      1  C   UNL     1      88.610  68.512  86.893  0.00  0.00    +0.000 C 
ATOM      2  C   UNL     1      88.998  69.655  87.484  0.00  0.00    +0.000 C 
ENDROOT
BRANCH   1   6
ATOM      3  C   UNL     1      91.606  64.864  85.011  0.00  0.00    +0.000 C 
ATOM      4  C   UNL     1      90.758  66.034  85.311  0.00  0.00    +0.000 A 
ATOM      5  C   UNL     1      90.083  66.454  86.437  0.00  0.00    +0.000 A 
ATOM      6  C   UNL     1      89.439  67.671  86.090  0.00  0.00    +0.000 A 
ATOM      7  C   UNL     1      89.766  67.912  84.768  0.00  0.00    +0.000 A 
ATOM      8  O   UNL     1      90.568  66.916  84.293  0.00  0.00    +0.000 OA
ATOM      9  C   UNL     1      89.434  68.984  83.806  0.00  0.00    +0.000 C 
ENDBRANCH   1   6
BRANCH   2  10
ATOM     10  C   UNL     1      88.107  70.493  88.297  0.00  0.00    +0.000 A 
ATOM     11  C   UNL     1      86.840  70.886  87.846  0.00  0.00    +0.000 A 
ATOM     12  C   UNL     1      86.007  71.660  88.659  0.00  0.00    +0.000 A 
ATOM     13  C   UNL     1      86.427  72.038  89.933  0.00  0.00    +0.000 A 
ATOM     14  C   UNL     1      87.679  71.638  90.397  0.00  0.00    +0.000 A 
ATOM     15  C   UNL     1      88.512  70.865  89.585  0.00  0.00    +0.000 A 
ENDBRANCH   2  10
TORSDOF 2
ENDMDL
