REMARK  Name = *****
REMARK  4 active torsions:
REMARK  status: ('A' for Active; 'I' for Inactive)
REMARK    1  A    between atoms: C_4  and  C_7
REMARK    2  A    between atoms: C_7  and  N_8
REMARK    3  A    between atoms: N_8  and  C_9
REMARK    4  A    between atoms: C_9  and  C_10
REMARK                            x       y       z     vdW  Elec       q    Type
REMARK                         _______ _______ _______ _____ _____    ______ ____
ROOT
ATOM      1  C   UNL     1      -2.792   0.274  -0.222  0.00  0.00    +0.000 C 
ENDROOT
BRANCH   1   5
ATOM      2  C   UNL     1       1.449  -0.033   0.092  0.00  0.00    +0.000 A 
ATOM      3  C   UNL     1       0.678  -1.193   0.002  0.00  0.00    +0.000 A 
ATOM      4  C   UNL     1      -0.710  -1.101  -0.102  0.00  0.00    +0.000 A 
ATOM      5  C   UNL     1      -1.325   0.155  -0.114  0.00  0.00    +0.000 A 
ATOM      6  C   UNL     1      -0.555   1.318  -0.023  0.00  0.00    +0.000 A 
ATOM      7  C   UNL     1       0.834   1.220   0.080  0.00  0.00    +0.000 A 
ENDBRANCH   1   5
BRANCH   1   8
ATOM      8  N   UNL     1      -3.549  -0.764  -0.329  0.00  0.00    +0.000 NA
BRANCH   8   9
ATOM      9  C   UNL     1      -4.979  -0.441  -0.421  0.00  0.00    +0.000 C 
BRANCH   9  10
ATOM     10  C   UNL     1      -5.778  -1.705  -0.555  0.00  0.00    +0.000 A 
ATOM     11  C   UNL     1      -5.402  -2.918  -1.103  0.00  0.00    +0.000 A 
ATOM     12  C   UNL     1      -6.445  -3.886  -1.058  0.00  0.00    +0.000 A 
ATOM     13  C   UNL     1      -7.590  -3.380  -0.484  0.00  0.00    +0.000 A 
ATOM     14  S   UNL     1      -7.404  -1.748  -0.009  0.00  0.00    +0.000 S 
ENDBRANCH   9  10
ENDBRANCH   8   9
ENDBRANCH   1   8
TORSDOF 4
