MODEL 1
REMARK VINA RESULT:      -4.5      0.000      0.000
REMARK  Name = *****
REMARK  2 active torsions:
REMARK  status: ('A' for Active; 'I' for Inactive)
REMARK    1  A    between atoms: C_2  and  C_11
REMARK    2  A    between atoms: C_3  and  C_4
REMARK                            x       y       z     vdW  Elec       q    Type
REMARK                         _______ _______ _______ _____ _____    ______ ____
ROOT
ATOM      1  C   UNL     1      89.683  65.674  85.919  0.00  0.00    +0.000 C 
ATOM      2  C   UNL     1      89.738  66.953  86.709  0.00  0.00    +0.000 C 
ATOM      3  C   UNL     1      88.461  66.119  86.681  0.00  0.00    +0.000 C 
ENDROOT
BRANCH   3   4
ATOM      4  C   UNL     1      88.011  65.359  87.917  0.00  0.00    +0.000 A 
ATOM      5  C   UNL     1      88.574  64.102  88.216  0.00  0.00    +0.000 A 
ATOM      6  C   UNL     1      88.198  63.372  89.348  0.00  0.00    +0.000 A 
ATOM      7  C   UNL     1      87.251  63.888  90.224  0.00  0.00    +0.000 A 
ATOM      8  C   UNL     1      86.688  65.136  89.972  0.00  0.00    +0.000 A 
ATOM      9  C   UNL     1      87.068  65.864  88.836  0.00  0.00    +0.000 A 
ATOM     10 BR   UNL     1      86.278  67.578  88.603  0.00  0.00    +0.000 Br
ENDBRANCH   3   4
BRANCH   2  11
ATOM     11  C   UNL     1      89.773  68.287  86.003  0.00  0.00    +0.000 A 
ATOM     12  C   UNL     1      89.632  69.492  86.711  0.00  0.00    +0.000 A 
ATOM     13  C   UNL     1      89.682  70.729  86.063  0.00  0.00    +0.000 A 
ATOM     14  C   UNL     1      89.882  70.786  84.687  0.00  0.00    +0.000 A 
ATOM     15  C   UNL     1      90.035  69.607  83.963  0.00  0.00    +0.000 A 
ATOM     16  C   UNL     1      89.984  68.374  84.618  0.00  0.00    +0.000 A 
ENDBRANCH   2  11
TORSDOF 2
ENDMDL
