MODEL 1
REMARK VINA RESULT:      -4.7      0.000      0.000
REMARK  Name = *****
REMARK  3 active torsions:
REMARK  status: ('A' for Active; 'I' for Inactive)
REMARK    1  A    between atoms: C_6  and  C_7
REMARK    2  A    between atoms: C_7  and  N_9
REMARK    3  A    between atoms: N_9  and  C_10
REMARK                            x       y       z     vdW  Elec       q    Type
REMARK                         _______ _______ _______ _____ _____    ______ ____
ROOT
ATOM      1  N   UNL     1     102.811 127.350  83.154  0.00  0.00    +0.000 N 
ATOM      2  H   UNL     1     103.111 126.992  84.021  0.00  0.00    +0.000 HD
ENDROOT
BRANCH   1   3
ATOM      3  C   UNL     1     101.437 127.688  83.124  0.00  0.00    +0.000 A 
ATOM      4  C   UNL     1     100.885 128.895  83.552  0.00  0.00    +0.000 A 
ATOM      5  C   UNL     1      99.510 129.116  83.454  0.00  0.00    +0.000 A 
ATOM      6  C   UNL     1      98.657 128.158  82.928  0.00  0.00    +0.000 A 
ATOM      7  C   UNL     1      99.204 126.965  82.490  0.00  0.00    +0.000 A 
ATOM      8  C   UNL     1     100.575 126.725  82.577  0.00  0.00    +0.000 A 
ATOM      9  F   UNL     1      98.406 126.024  81.969  0.00  0.00    +0.000 F 
ATOM     10  F   UNL     1      99.002 130.285  83.866  0.00  0.00    +0.000 F 
ENDBRANCH   1   3
BRANCH   1  11
ATOM     11  C   UNL     1     103.820 127.424  82.202  0.00  0.00    +0.000 C 
ATOM     12  S   UNL     1     104.684 128.759  81.672  0.00  0.00    +0.000 S 
BRANCH  11  18
ATOM     13  C   UNL     1     104.575 125.970  80.320  0.00  0.00    +0.000 A 
ATOM     14  C   UNL     1     104.861 124.713  79.785  0.00  0.00    +0.000 A 
ATOM     15  C   UNL     1     104.716 123.579  80.578  0.00  0.00    +0.000 A 
ATOM     16  C   UNL     1     104.290 123.674  81.900  0.00  0.00    +0.000 A 
ATOM     17  C   UNL     1     104.003 124.927  82.444  0.00  0.00    +0.000 A 
ATOM     18  C   UNL     1     104.150 126.075  81.652  0.00  0.00    +0.000 A 
ATOM     19  F   UNL     1     104.988 122.375  80.061  0.00  0.00    +0.000 F 
ENDBRANCH  11  18
ENDBRANCH   1  11
TORSDOF 3
ENDMDL
