MODEL 1
REMARK VINA RESULT:      -4.2      0.000      0.000
REMARK  Name = *****
REMARK  3 active torsions:
REMARK  status: ('A' for Active; 'I' for Inactive)
REMARK    1  A    between atoms: C_3  and  C_6
REMARK    2  A    between atoms: C_6  and  C_7
REMARK    3  A    between atoms: C_7  and  C_8
REMARK                            x       y       z     vdW  Elec       q    Type
REMARK                         _______ _______ _______ _____ _____    ______ ____
ROOT
ATOM      1  C   UNL     1      87.898  70.403  87.909  0.00  0.00    +0.000 C 
ATOM      2 CL   UNL     1      88.521  71.177  89.400  0.00  0.00    +0.000 Cl
ENDROOT
BRANCH   1   3
ATOM      3  C   UNL     1      86.658  71.140  87.439  0.00  0.00    +0.000 A 
ATOM      4  C   UNL     1      85.688  71.606  88.343  0.00  0.00    +0.000 A 
ATOM      5  C   UNL     1      84.551  72.275  87.887  0.00  0.00    +0.000 A 
ATOM      6  C   UNL     1      84.366  72.490  86.524  0.00  0.00    +0.000 A 
ATOM      7  C   UNL     1      85.319  72.037  85.615  0.00  0.00    +0.000 A 
ATOM      8  C   UNL     1      86.458  71.368  86.069  0.00  0.00    +0.000 A 
ENDBRANCH   1   3
BRANCH   1   9
ATOM      9  C   UNL     1      87.645  68.900  88.123  0.00  0.00    +0.000 C 
BRANCH   9  12
ATOM     10  C   UNL     1      89.364  65.977  86.510  0.00  0.00    +0.000 C 
ATOM     11  C   UNL     1      88.177  66.524  87.303  0.00  0.00    +0.000 C 
ATOM     12  C   UNL     1      88.075  68.017  86.945  0.00  0.00    +0.000 C 
ATOM     13  C   UNL     1      89.471  68.318  86.480  0.00  0.00    +0.000 C 
ATOM     14  C   UNL     1      90.169  67.203  86.242  0.00  0.00    +0.000 C 
ENDBRANCH   9  12
ENDBRANCH   1   9
TORSDOF 3
ENDMDL
