MODEL 1
REMARK VINA RESULT:      -4.9      0.000      0.000
REMARK  Name = *****
REMARK  6 active torsions:
REMARK  status: ('A' for Active; 'I' for Inactive)
REMARK    1  A    between atoms: C_1  and  C_2
REMARK    2  A    between atoms: C_3  and  C_9
REMARK    3  A    between atoms: C_4  and  C_8
REMARK    4  A    between atoms: C_9  and  C_10
REMARK    5  A    between atoms: C_10  and  C_11
REMARK    6  A    between atoms: C_11  and  C_13
REMARK                            x       y       z     vdW  Elec       q    Type
REMARK                         _______ _______ _______ _____ _____    ______ ____
ROOT
ATOM      1  C   UNL     1      88.097  68.913  85.664  0.00  0.00    +0.000 C 
ENDROOT
BRANCH   1   2
ATOM      2  C   UNL     1      89.093  68.027  86.386  0.00  0.00    +0.000 C 
ATOM      3  O   UNL     1      90.256  68.377  86.582  0.00  0.00    +0.000 OA
BRANCH   2   4
ATOM      4  C   UNL     1      88.662  66.687  86.883  0.00  0.00    +0.000 A 
ATOM      5  C   UNL     1      87.617  66.505  87.794  0.00  0.00    +0.000 A 
ATOM      6  C   UNL     1      87.253  65.232  88.228  0.00  0.00    +0.000 A 
ATOM      7  C   UNL     1      87.941  64.128  87.747  0.00  0.00    +0.000 A 
ATOM      8  C   UNL     1      88.983  64.275  86.839  0.00  0.00    +0.000 A 
ATOM      9  C   UNL     1      89.344  65.553  86.406  0.00  0.00    +0.000 A 
ATOM     10  F   UNL     1      87.595  62.902  88.161  0.00  0.00    +0.000 F 
ATOM     11  F   UNL     1      86.921  67.542  88.277  0.00  0.00    +0.000 F 
ENDBRANCH   2   4
ENDBRANCH   1   2
BRANCH   1  12
ATOM     12  C   UNL     1      88.332  70.395  85.973  0.00  0.00    +0.000 C 
BRANCH  12  15
ATOM     13  C   UNL     1      88.364  70.412  88.964  0.00  0.00    +0.000 C 
ATOM     14  C   UNL     1      87.203  70.970  88.185  0.00  0.00    +0.000 A 
ATOM     15  C   UNL     1      87.184  70.995  86.767  0.00  0.00    +0.000 A 
ATOM     16  C   UNL     1      86.068  71.561  86.100  0.00  0.00    +0.000 A 
ATOM     17  C   UNL     1      85.009  72.096  86.851  0.00  0.00    +0.000 A 
ATOM     18  C   UNL     1      85.036  72.072  88.241  0.00  0.00    +0.000 A 
ATOM     19  C   UNL     1      86.126  71.516  88.902  0.00  0.00    +0.000 A 
ATOM     20  C   UNL     1      85.988  71.647  84.598  0.00  0.00    +0.000 C 
ENDBRANCH  12  15
ENDBRANCH   1  12
TORSDOF 4
ENDMDL
