MODEL 1
REMARK VINA RESULT:      -4.9      0.000      0.000
REMARK  Name = *****
REMARK  4 active torsions:
REMARK  status: ('A' for Active; 'I' for Inactive)
REMARK    1  A    between atoms: C_1  and  O_2
REMARK    2  A    between atoms: O_2  and  C_3
REMARK    3  A    between atoms: C_3  and  C_11
REMARK    4  A    between atoms: C_4  and  C_5
REMARK                            x       y       z     vdW  Elec       q    Type
REMARK                         _______ _______ _______ _____ _____    ______ ____
ROOT
ATOM      1  C   UNL     1     102.860 126.037  81.462  0.00  0.00    +0.000 C 
ATOM      2  C   UNL     1     101.899 125.977  82.402  0.00  0.00    +0.000 C 
ENDROOT
BRANCH   1   3
ATOM      3  C   UNL     1     103.817 124.928  81.260  0.00  0.00    +0.000 A 
ATOM      4  C   UNL     1     104.467 124.737  80.028  0.00  0.00    +0.000 A 
ATOM      5  C   UNL     1     105.380 123.694  79.863  0.00  0.00    +0.000 A 
ATOM      6  C   UNL     1     105.650 122.843  80.928  0.00  0.00    +0.000 A 
ATOM      7  C   UNL     1     105.027 123.016  82.157  0.00  0.00    +0.000 A 
ATOM      8  C   UNL     1     104.114 124.060  82.323  0.00  0.00    +0.000 A 
ATOM      9  F   UNL     1     106.527 121.843  80.768  0.00  0.00    +0.000 F 
ENDBRANCH   1   3
BRANCH   2  10
ATOM     10  C   UNL     1     100.931 127.038  82.721  0.00  0.00    +0.000 A 
ATOM     11  C   UNL     1      99.587 126.856  82.368  0.00  0.00    +0.000 A 
ATOM     12  C   UNL     1      98.631 127.824  82.683  0.00  0.00    +0.000 A 
ATOM     13  C   UNL     1      99.006 128.978  83.366  0.00  0.00    +0.000 A 
ATOM     14  C   UNL     1     100.336 129.164  83.737  0.00  0.00    +0.000 A 
ATOM     15  C   UNL     1     101.293 128.195  83.423  0.00  0.00    +0.000 A 
ENDBRANCH   2  10
BRANCH   1  17
ATOM     16  C   UNL     1     104.157 127.942  81.270  0.00  0.00    +0.000 C 
ATOM     17  O   UNL     1     103.094 127.173  80.708  0.00  0.00    +0.000 OA
ENDBRANCH   1  17
TORSDOF 3
ENDMDL
