MODEL 1
REMARK VINA RESULT:      -5.0      0.000      0.000
REMARK  Name = *****
REMARK  1 active torsions:
REMARK  status: ('A' for Active; 'I' for Inactive)
REMARK    1  A    between atoms: C_9  and  C_11
REMARK                            x       y       z     vdW  Elec       q    Type
REMARK                         _______ _______ _______ _____ _____    ______ ____
ROOT
ATOM      1  C   UNL     1     106.296 123.361  79.951  0.00  0.00    +0.000 C 
ATOM      2  C   UNL     1     105.167 122.470  80.452  0.00  0.00    +0.000 C 
ATOM      3  C   UNL     1     104.378 123.175  81.552  0.00  0.00    +0.000 C 
ATOM      4  C   UNL     1     104.011 124.598  81.204  0.00  0.00    +0.000 A 
ATOM      5  C   UNL     1     104.680 125.299  80.190  0.00  0.00    +0.000 A 
ATOM      6  C   UNL     1     105.733 124.640  79.333  0.00  0.00    +0.000 C 
ATOM      7  C   UNL     1     104.320 126.626  79.929  0.00  0.00    +0.000 A 
ATOM      8  C   UNL     1     103.328 127.259  80.682  0.00  0.00    +0.000 A 
ATOM      9  C   UNL     1     102.657 126.583  81.709  0.00  0.00    +0.000 A 
ATOM     10  C   UNL     1     103.020 125.251  81.961  0.00  0.00    +0.000 A 
ENDROOT
BRANCH   9  11
ATOM     11  C   UNL     1     101.626 127.260  82.511  0.00  0.00    +0.000 C 
ATOM     12  C   UNL     1     101.806 128.301  83.339  0.00  0.00    +0.000 C 
ATOM     13  C   UNL     1     100.540 128.708  84.018  0.00  0.00    +0.000 C 
ATOM     14  C   UNL     1      99.476 127.978  83.205  0.00  0.00    +0.000 C 
ATOM     15  C   UNL     1     100.194 126.808  82.534  0.00  0.00    +0.000 C 
ENDBRANCH   9  11
TORSDOF 1
ENDMDL
