MODEL 1
REMARK VINA RESULT:      -4.5      0.000      0.000
REMARK  Name = *****
REMARK  4 active torsions:
REMARK  status: ('A' for Active; 'I' for Inactive)
REMARK    1  A    between atoms: C_4  and  C_7
REMARK    2  A    between atoms: C_7  and  O_8
REMARK    3  A    between atoms: O_8  and  C_9
REMARK    4  A    between atoms: C_14  and  C_15
REMARK                            x       y       z     vdW  Elec       q    Type
REMARK                         _______ _______ _______ _____ _____    ______ ____
ROOT
ATOM      1  C   UNL     1     100.860 127.664  83.837  0.00  0.00    +0.000 A 
ATOM      2  C   UNL     1     101.807 128.603  84.265  0.00  0.00    +0.000 A 
ATOM      3  C   UNL     1     101.454 129.943  84.445  0.00  0.00    +0.000 A 
ATOM      4  C   UNL     1     100.153 130.368  84.193  0.00  0.00    +0.000 A 
ATOM      5  C   UNL     1      99.197 129.446  83.774  0.00  0.00    +0.000 A 
ATOM      6  C   UNL     1      99.541 128.093  83.610  0.00  0.00    +0.000 A 
ENDROOT
BRANCH   6   7
ATOM      7  C   UNL     1      98.457 127.163  83.188  0.00  0.00    +0.000 C 
ATOM      8  O   UNL     1      98.247 127.079  81.976  0.00  0.00    +0.000 OA
ATOM      9 CL   UNL     1      97.485 126.357  84.398  0.00  0.00    +0.000 Cl
ENDBRANCH   6   7
BRANCH   1  10
ATOM     10  O   UNL     1     101.139 126.350  83.581  0.00  0.00    +0.000 OA
BRANCH  10  11
ATOM     11  C   UNL     1     102.415 125.842  83.967  0.00  0.00    +0.000 C 
BRANCH  11  15
ATOM     12  C   UNL     1     104.374 124.225  80.478  0.00  0.00    +0.000 A 
ATOM     13  C   UNL     1     103.548 125.342  80.357  0.00  0.00    +0.000 A 
ATOM     14  C   UNL     1     102.911 125.866  81.484  0.00  0.00    +0.000 A 
ATOM     15  C   UNL     1     103.094 125.278  82.743  0.00  0.00    +0.000 A 
ATOM     16  C   UNL     1     103.927 124.154  82.850  0.00  0.00    +0.000 A 
ATOM     17  C   UNL     1     104.562 123.631  81.723  0.00  0.00    +0.000 A 
ENDBRANCH  11  15
ENDBRANCH  10  11
ENDBRANCH   1  10
TORSDOF 4
ENDMDL
