REMARK  Name = *****
REMARK  5 active torsions:
REMARK  status: ('A' for Active; 'I' for Inactive)
REMARK    1  A    between atoms: C_1  and  O_2
REMARK    2  A    between atoms: O_2  and  C_3
REMARK    3  A    between atoms: C_3  and  C_5
REMARK    4  A    between atoms: C_10  and  C_11
REMARK    5  A    between atoms: C_12  and  C_13
REMARK                            x       y       z     vdW  Elec       q    Type
REMARK                         _______ _______ _______ _____ _____    ______ ____
ROOT
ATOM      1  C   UNL     1       4.565  -0.668  -1.073  0.00  0.00    +0.000 A 
ATOM      2  C   UNL     1       5.286  -0.999   0.087  0.00  0.00    +0.000 A 
ATOM      3  C   UNL     1       6.681  -0.993   0.076  0.00  0.00    +0.000 A 
ATOM      4  C   UNL     1       7.364  -0.655  -1.089  0.00  0.00    +0.000 A 
ATOM      5  C   UNL     1       6.654  -0.324  -2.246  0.00  0.00    +0.000 A 
ATOM      6  C   UNL     1       5.252  -0.327  -2.248  0.00  0.00    +0.000 A 
ENDROOT
BRANCH   1   7
ATOM      7  C   UNL     1       3.084  -0.654  -1.018  0.00  0.00    +0.000 C 
ATOM      8  O   UNL     1       2.375   0.211  -1.502  0.00  0.00    +0.000 OA
BRANCH   7  10
ATOM      9  C   UNL     1       1.238  -1.865  -0.262  0.00  0.00    +0.000 C 
ATOM     10  O   UNL     1       2.660  -1.759  -0.351  0.00  0.00    +0.000 OA
ENDBRANCH   7  10
ENDBRANCH   1   7
BRANCH   6  11
ATOM     11  C   UNL     1       4.580  -0.012  -3.474  0.00  0.00    +0.000 C 
ATOM     12  C   UNL     1       4.018   0.247  -4.504  0.00  0.00    +0.000 C 
BRANCH  12  13
ATOM     13  C   UNL     1       3.344   0.553  -5.722  0.00  0.00    +0.000 A 
ATOM     14  C   UNL     1       3.964   0.925  -6.896  0.00  0.00    +0.000 A 
ATOM     15  C   UNL     1       3.030   1.169  -7.946  0.00  0.00    +0.000 A 
ATOM     16  C   UNL     1       1.730   0.973  -7.534  0.00  0.00    +0.000 A 
ATOM     17  S   UNL     1       1.644   0.496  -5.892  0.00  0.00    +0.000 S 
ENDBRANCH  12  13
ENDBRANCH   6  11
TORSDOF 4
