MODEL 1
REMARK VINA RESULT:      -4.4      0.000      0.000
REMARK  Name = *****
REMARK  6 active torsions:
REMARK  status: ('A' for Active; 'I' for Inactive)
REMARK    1  A    between atoms: C_1  and  C_2
REMARK    2  A    between atoms: C_2  and  N_3
REMARK    3  A    between atoms: N_3  and  C_4
REMARK    4  A    between atoms: N_3  and  C_10
REMARK    5  A    between atoms: C_10  and  C_11
REMARK    6  A    between atoms: C_10  and  C_12
REMARK                            x       y       z     vdW  Elec       q    Type
REMARK                         _______ _______ _______ _____ _____    ______ ____
ROOT
ATOM      1  N   UNL     1     102.708 127.404  82.481  0.00  0.00    +0.000 N 
ENDROOT
BRANCH   1   2
ATOM      2  C   UNL     1     101.363 127.629  82.807  0.00  0.00    +0.000 A 
ATOM      3  C   UNL     1     100.924 128.729  83.559  0.00  0.00    +0.000 A 
ATOM      4  C   UNL     1      99.571 128.917  83.867  0.00  0.00    +0.000 A 
ATOM      5  C   UNL     1      98.621 127.999  83.437  0.00  0.00    +0.000 A 
ATOM      6  C   UNL     1      99.025 126.891  82.701  0.00  0.00    +0.000 A 
ATOM      7  C   UNL     1     100.379 126.712  82.396  0.00  0.00    +0.000 A 
ENDBRANCH   1   2
BRANCH   1   9
ATOM      8  C   UNL     1     104.450 127.889  84.165  0.00  0.00    +0.000 C 
ATOM      9  C   UNL     1     103.736 128.369  82.908  0.00  0.00    +0.000 C 
ENDBRANCH   1   9
BRANCH   1  10
ATOM     10  C   UNL     1     102.950 126.683  81.201  0.00  0.00    +0.000 C 
ATOM     11  C   UNL     1     103.717 127.589  80.224  0.00  0.00    +0.000 C 
BRANCH  10  12
ATOM     12  C   UNL     1     103.576 125.314  81.474  0.00  0.00    +0.000 A 
ATOM     13  C   UNL     1     104.209 124.637  80.414  0.00  0.00    +0.000 A 
ATOM     14  C   UNL     1     104.812 123.392  80.609  0.00  0.00    +0.000 A 
ATOM     15  C   UNL     1     104.796 122.802  81.868  0.00  0.00    +0.000 A 
ATOM     16  C   UNL     1     104.179 123.456  82.932  0.00  0.00    +0.000 A 
ATOM     17  C   UNL     1     103.576 124.703  82.737  0.00  0.00    +0.000 A 
ENDBRANCH  10  12
ENDBRANCH   1  10
TORSDOF 4
ENDMDL
