MODEL 1
REMARK VINA RESULT:      -4.4      0.000      0.000
REMARK  Name = *****
REMARK  3 active torsions:
REMARK  status: ('A' for Active; 'I' for Inactive)
REMARK    1  A    between atoms: C_1  and  C_2
REMARK    2  A    between atoms: C_2  and  N_11
REMARK    3  A    between atoms: C_3  and  C_4
REMARK                            x       y       z     vdW  Elec       q    Type
REMARK                         _______ _______ _______ _____ _____    ______ ____
ROOT
ATOM      1  C   UNL     1     103.988 124.122  82.917  0.00  0.00    +0.000 C 
ATOM      2  C   UNL     1     103.969 124.474  81.439  0.00  0.00    +0.000 C 
ATOM      3  C   UNL     1     103.275 125.549  81.006  0.00  0.00    +0.000 C 
ENDROOT
BRANCH   3   4
ATOM      4  C   UNL     1     102.509 126.481  81.839  0.00  0.00    +0.000 A 
ATOM      5  C   UNL     1     103.124 127.617  82.379  0.00  0.00    +0.000 A 
ATOM      6  C   UNL     1     102.389 128.503  83.170  0.00  0.00    +0.000 A 
ATOM      7  C   UNL     1     101.041 128.252  83.420  0.00  0.00    +0.000 A 
ATOM      8  C   UNL     1     100.420 127.124  82.886  0.00  0.00    +0.000 A 
ATOM      9  C   UNL     1     101.156 126.238  82.093  0.00  0.00    +0.000 A 
ATOM     10 CL   UNL     1     100.137 129.342  84.396  0.00  0.00    +0.000 Cl
ENDBRANCH   3   4
BRANCH   2  11
ATOM     11  N   UNL     1     104.703 123.636  80.571  0.00  0.00    +0.000 N 
ATOM     12  C   UNL     1     104.798 122.173  80.736  0.00  0.00    +0.000 C 
ATOM     13  C   UNL     1     106.193 121.808  81.247  0.00  0.00    +0.000 C 
ATOM     14  C   UNL     1     107.283 122.343  80.320  0.00  0.00    +0.000 C 
ATOM     15  C   UNL     1     107.100 123.839  80.062  0.00  0.00    +0.000 C 
ATOM     16  C   UNL     1     105.680 124.141  79.587  0.00  0.00    +0.000 C 
ENDBRANCH   2  11
TORSDOF 2
ENDMDL
