MODEL 1
REMARK VINA RESULT:      -4.6      0.000      0.000
REMARK  Name = *****
REMARK  6 active torsions:
REMARK  status: ('A' for Active; 'I' for Inactive)
REMARK    1  A    between atoms: C_1  and  C_2
REMARK    2  A    between atoms: C_4  and  C_17
REMARK    3  A    between atoms: C_5  and  C_8
REMARK    4  A    between atoms: C_8  and  O_9
REMARK    5  A    between atoms: O_9  and  C_10
REMARK    6  A    between atoms: C_10  and  C_11
REMARK                            x       y       z     vdW  Elec       q    Type
REMARK                         _______ _______ _______ _____ _____    ______ ____
ROOT
ATOM      1  C   UNL     1     103.577 126.538  80.243  0.00  0.00    +0.000 C 
ENDROOT
BRANCH   1   6
ATOM      2  C   UNL     1     100.952 128.276  85.169  0.00  0.00    +0.000 C 
ATOM      3  C   UNL     1     101.645 127.813  83.923  0.00  0.00    +0.000 A 
ATOM      4  C   UNL     1     102.737 128.523  83.411  0.00  0.00    +0.000 A 
ATOM      5  C   UNL     1     103.379 128.121  82.227  0.00  0.00    +0.000 A 
ATOM      6  C   UNL     1     102.901 126.993  81.522  0.00  0.00    +0.000 A 
ATOM      7  C   UNL     1     101.800 126.294  82.042  0.00  0.00    +0.000 A 
ATOM      8  C   UNL     1     101.175 126.702  83.223  0.00  0.00    +0.000 A 
ATOM      9  C   UNL     1     104.552 128.921  81.728  0.00  0.00    +0.000 C 
ENDBRANCH   1   6
BRANCH   1  10
ATOM     10  O   UNL     1     103.448 125.130  80.040  0.00  0.00    +0.000 OA
BRANCH  10  11
ATOM     11  C   UNL     1     104.706 124.468  80.150  0.00  0.00    +0.000 C 
BRANCH  11  12
ATOM     12  C   UNL     1     104.607 123.313  81.117  0.00  0.00    +0.000 A 
ATOM     13  C   UNL     1     104.727 121.986  80.678  0.00  0.00    +0.000 A 
ATOM     14  C   UNL     1     104.673 120.928  81.587  0.00  0.00    +0.000 A 
ATOM     15  C   UNL     1     104.510 121.184  82.946  0.00  0.00    +0.000 A 
ATOM     16  C   UNL     1     104.404 122.497  83.399  0.00  0.00    +0.000 A 
ATOM     17  C   UNL     1     104.456 123.557  82.491  0.00  0.00    +0.000 A 
ENDBRANCH  11  12
ENDBRANCH  10  11
ENDBRANCH   1  10
TORSDOF 4
ENDMDL
