MODEL 1
REMARK VINA RESULT:      -4.2      0.000      0.000
REMARK  Name = *****
REMARK  4 active torsions:
REMARK  status: ('A' for Active; 'I' for Inactive)
REMARK    1  A    between atoms: C_1  and  O_2
REMARK    2  A    between atoms: O_2  and  C_3
REMARK    3  A    between atoms: C_6  and  C_9
REMARK    4  A    between atoms: C_10  and  C_11
REMARK                            x       y       z     vdW  Elec       q    Type
REMARK                         _______ _______ _______ _____ _____    ______ ____
ROOT
ATOM      1  C   UNL     1      99.723 128.862  83.605  0.00  0.00    +0.000 A 
ATOM      2  C   UNL     1      99.181 127.755  82.950  0.00  0.00    +0.000 A 
ATOM      3  C   UNL     1     100.022 126.776  82.407  0.00  0.00    +0.000 A 
ATOM      4  C   UNL     1     101.414 126.894  82.503  0.00  0.00    +0.000 A 
ATOM      5  C   UNL     1     101.952 127.997  83.174  0.00  0.00    +0.000 A 
ATOM      6  C   UNL     1     101.111 128.974  83.714  0.00  0.00    +0.000 A 
ENDROOT
BRANCH   1   8
ATOM      7  C   UNL     1      99.551 131.194  84.027  0.00  0.00    +0.000 C 
ATOM      8  O   UNL     1      99.019 129.885  84.176  0.00  0.00    +0.000 OA
ENDBRANCH   1   8
BRANCH   4   9
ATOM      9  C   UNL     1     102.321 125.867  81.972  0.00  0.00    +0.000 C 
ATOM     10  C   UNL     1     103.338 126.140  81.137  0.00  0.00    +0.000 C 
BRANCH  10  11
ATOM     11  C   UNL     1     104.267 125.196  80.587  0.00  0.00    +0.000 A 
ATOM     12  C   UNL     1     105.238 125.482  79.647  0.00  0.00    +0.000 A 
ATOM     13  S   UNL     1     106.169 124.108  79.225  0.00  0.00    +0.000 S 
ATOM     14  C   UNL     1     105.284 123.113  80.298  0.00  0.00    +0.000 A 
ATOM     15  C   UNL     1     104.303 123.817  80.963  0.00  0.00    +0.000 A 
ENDBRANCH  10  11
ENDBRANCH   4   9
TORSDOF 3
ENDMDL
