MODEL 1
REMARK VINA RESULT:      -4.9      0.000      0.000
REMARK  Name = *****
REMARK  3 active torsions:
REMARK  status: ('A' for Active; 'I' for Inactive)
REMARK    1  A    between atoms: C_3  and  C_7
REMARK    2  A    between atoms: C_8  and  C_9
REMARK    3  A    between atoms: C_9  and  C_10
REMARK                            x       y       z     vdW  Elec       q    Type
REMARK                         _______ _______ _______ _____ _____    ______ ____
ROOT
ATOM      1  C   UNL     1     103.118 126.110  81.792  0.00  0.00    +0.000 A 
ATOM      2  C   UNL     1     103.293 125.000  82.625  0.00  0.00    +0.000 A 
ATOM      3  C   UNL     1     104.017 123.889  82.201  0.00  0.00    +0.000 A 
ATOM      4  C   UNL     1     104.584 123.873  80.934  0.00  0.00    +0.000 A 
ATOM      5  C   UNL     1     104.429 124.966  80.094  0.00  0.00    +0.000 A 
ATOM      6  C   UNL     1     103.704 126.076  80.521  0.00  0.00    +0.000 A 
ATOM      7  F   UNL     1     103.565 127.125  79.698  0.00  0.00    +0.000 F 
ATOM      8  F   UNL     1     104.976 124.954  78.871  0.00  0.00    +0.000 F 
ATOM      9  F   UNL     1     105.280 122.804  80.525  0.00  0.00    +0.000 F 
ATOM     10  F   UNL     1     104.167 122.838  83.018  0.00  0.00    +0.000 F 
ATOM     11  F   UNL     1     102.757 125.006  83.854  0.00  0.00    +0.000 F 
ENDROOT
BRANCH   1  12
ATOM     12  C   UNL     1     102.361 127.321  82.260  0.00  0.00    +0.000 C 
BRANCH  12  14
ATOM     13  C   UNL     1     100.170 127.729  83.414  0.00  0.00    +0.000 C 
ATOM     14  C   UNL     1     100.925 127.005  82.570  0.00  0.00    +0.000 C 
BRANCH  13  17
ATOM     15  C   UNL     1      96.807 127.545  85.147  0.00  0.00    +0.000 A 
ATOM     16  C   UNL     1      98.135 127.891  84.895  0.00  0.00    +0.000 A 
ATOM     17  C   UNL     1      98.766 127.439  83.734  0.00  0.00    +0.000 A 
ATOM     18  C   UNL     1      98.015 126.624  82.888  0.00  0.00    +0.000 A 
ATOM     19  N   UNL     1      96.725 126.268  83.105  0.00  0.00    +0.000 NA
ATOM     20  C   UNL     1      96.150 126.741  84.231  0.00  0.00    +0.000 A 
ENDBRANCH  13  17
ENDBRANCH  12  14
ENDBRANCH   1  12
TORSDOF 3
ENDMDL
