REMARK  Name = *****
REMARK  5 active torsions:
REMARK  status: ('A' for Active; 'I' for Inactive)
REMARK    1  A    between atoms: C_1  and  N_2
REMARK    2  A    between atoms: N_2  and  C_3
REMARK    3  A    between atoms: N_2  and  C_9
REMARK    4  A    between atoms: C_9  and  O_11
REMARK    5  A    between atoms: O_11  and  C_12
REMARK                            x       y       z     vdW  Elec       q    Type
REMARK                         _______ _______ _______ _____ _____    ______ ____
ROOT
ATOM      1  C   UNL     1       3.155  -1.096   0.818  0.00  0.00    +0.000 C 
ATOM      2  S   UNL     1       2.443  -2.491   1.430  0.00  0.00    +0.000 S 
ENDROOT
BRANCH   1   4
ATOM      3  C   UNL     1       1.017   0.059   0.231  0.00  0.00    +0.000 C 
ATOM      4  N   UNL     1       2.483  -0.021   0.200  0.00  0.00    +0.000 N 
BRANCH   4   5
ATOM      5  C   UNL     1       3.174   1.097  -0.387  0.00  0.00    +0.000 A 
ATOM      6  C   UNL     1       2.631   2.390  -0.322  0.00  0.00    +0.000 A 
ATOM      7  C   UNL     1       3.286   3.480  -0.906  0.00  0.00    +0.000 A 
ATOM      8  C   UNL     1       4.490   3.293  -1.577  0.00  0.00    +0.000 A 
ATOM      9  C   UNL     1       5.035   2.016  -1.669  0.00  0.00    +0.000 A 
ATOM     10  C   UNL     1       4.379   0.928  -1.084  0.00  0.00    +0.000 A 
ENDBRANCH   4   5
ENDBRANCH   1   4
BRANCH   1  11
ATOM     11  O   UNL     1       4.534  -0.876   1.006  0.00  0.00    +0.000 OA
BRANCH  11  12
ATOM     12  C   UNL     1       5.481  -1.806   1.500  0.00  0.00    +0.000 A 
ATOM     13  C   UNL     1       5.925  -2.844   0.682  0.00  0.00    +0.000 A 
ATOM     14  C   UNL     1       6.896  -3.717   1.171  0.00  0.00    +0.000 A 
ATOM     15  C   UNL     1       7.417  -3.528   2.454  0.00  0.00    +0.000 A 
ATOM     16  C   UNL     1       6.979  -2.470   3.254  0.00  0.00    +0.000 A 
ATOM     17  C   UNL     1       6.006  -1.594   2.772  0.00  0.00    +0.000 A 
ATOM     18 CL   UNL     1       8.619  -4.605   3.051  0.00  0.00    +0.000 Cl
ENDBRANCH  11  12
ENDBRANCH   1  11
TORSDOF 4
