MODEL 1
REMARK VINA RESULT:      -4.5      0.000      0.000
REMARK  Name = *****
REMARK  4 active torsions:
REMARK  status: ('A' for Active; 'I' for Inactive)
REMARK    1  A    between atoms: C_4  and  C_7
REMARK    2  A    between atoms: C_7  and  N_8
REMARK    3  A    between atoms: N_8  and  C_9
REMARK    4  A    between atoms: C_9  and  C_11
REMARK                            x       y       z     vdW  Elec       q    Type
REMARK                         _______ _______ _______ _____ _____    ______ ____
ROOT
ATOM      1  N   UNL     1      87.754  62.588  86.863  0.00  0.00    +0.000 N 
ATOM      2  H   UNL     1      88.359  61.873  87.164  0.00  0.00    +0.000 HD
ENDROOT
BRANCH   1   3
ATOM      3  C   UNL     1      86.762  62.962  87.752  0.00  0.00    +0.000 C 
ATOM      4  S   UNL     1      85.117  62.971  87.425  0.00  0.00    +0.000 S 
BRANCH   3   5
ATOM      5  C   UNL     1      87.294  63.368  89.084  0.00  0.00    +0.000 A 
ATOM      6  C   UNL     1      86.426  63.630  90.153  0.00  0.00    +0.000 A 
ATOM      7  C   UNL     1      86.946  64.024  91.388  0.00  0.00    +0.000 A 
ATOM      8  C   UNL     1      88.323  64.153  91.545  0.00  0.00    +0.000 A 
ATOM      9  C   UNL     1      89.194  63.896  90.490  0.00  0.00    +0.000 A 
ATOM     10  C   UNL     1      88.680  63.502  89.253  0.00  0.00    +0.000 A 
ATOM     11  F   UNL     1      88.818  64.532  92.730  0.00  0.00    +0.000 F 
ENDBRANCH   3   5
ENDBRANCH   1   3
BRANCH   1  12
ATOM     12  C   UNL     1      88.007  63.127  85.534  0.00  0.00    +0.000 C 
BRANCH  12  16
ATOM     13  C   UNL     1      91.173  66.049  85.664  0.00  0.00    +0.000 A 
ATOM     14  C   UNL     1      89.905  66.370  86.144  0.00  0.00    +0.000 A 
ATOM     15  C   UNL     1      88.885  65.419  86.108  0.00  0.00    +0.000 A 
ATOM     16  C   UNL     1      89.124  64.136  85.596  0.00  0.00    +0.000 A 
ATOM     17  C   UNL     1      90.401  63.827  85.107  0.00  0.00    +0.000 A 
ATOM     18  C   UNL     1      91.422  64.780  85.144  0.00  0.00    +0.000 A 
ENDBRANCH  12  16
ENDBRANCH   1  12
TORSDOF 4
ENDMDL
