MODEL 1
REMARK VINA RESULT:      -4.8      0.000      0.000
REMARK  Name = *****
REMARK  3 active torsions:
REMARK  status: ('A' for Active; 'I' for Inactive)
REMARK    1  A    between atoms: C_7  and  O_8
REMARK    2  A    between atoms: O_8  and  C_9
REMARK    3  A    between atoms: C_9  and  C_11
REMARK                            x       y       z     vdW  Elec       q    Type
REMARK                         _______ _______ _______ _____ _____    ______ ____
ROOT
ATOM      1  C   UNL     1     103.467 126.037  81.775  0.00  0.00    +0.000 A 
ATOM      2  C   UNL     1     103.507 124.888  82.561  0.00  0.00    +0.000 A 
ATOM      3  C   UNL     1     104.096 123.729  82.067  0.00  0.00    +0.000 A 
ATOM      4  C   UNL     1     104.648 123.715  80.793  0.00  0.00    +0.000 A 
ATOM      5  C   UNL     1     104.615 124.862  80.011  0.00  0.00    +0.000 A 
ATOM      6  C   UNL     1     104.028 126.024  80.501  0.00  0.00    +0.000 A 
ATOM      7  F   UNL     1     103.987 127.115  79.722  0.00  0.00    +0.000 F 
ATOM      8  F   UNL     1     105.143 124.848  78.780  0.00  0.00    +0.000 F 
ATOM      9  F   UNL     1     105.212 122.596  80.319  0.00  0.00    +0.000 F 
ATOM     10  F   UNL     1     104.134 122.624  82.825  0.00  0.00    +0.000 F 
ATOM     11  F   UNL     1     103.003 124.889  83.804  0.00  0.00    +0.000 F 
ENDROOT
BRANCH   1  12
ATOM     12  C   UNL     1     102.871 127.270  82.283  0.00  0.00    +0.000 C 
ATOM     13  O   UNL     1     103.519 128.225  82.670  0.00  0.00    +0.000 OA
BRANCH  12  14
ATOM     14  O   UNL     1     101.526 127.168  82.192  0.00  0.00    +0.000 OA
BRANCH  14  21
ATOM     15  C   UNL     1      98.408 128.215  84.882  0.00  0.00    +0.000 C 
ATOM     16  C   UNL     1      98.779 126.734  84.714  0.00  0.00    +0.000 C 
ATOM     17  C   UNL     1      99.442 126.700  83.328  0.00  0.00    +0.000 C 
ATOM     18  C   UNL     1      98.603 127.726  82.561  0.00  0.00    +0.000 C 
ATOM     19  C   UNL     1      98.887 128.843  83.562  0.00  0.00    +0.000 C 
ATOM     20  C   UNL     1     100.426 128.888  83.555  0.00  0.00    +0.000 C 
ATOM     21  C   UNL     1     100.814 127.402  83.417  0.00  0.00    +0.000 C 
ENDBRANCH  14  21
ENDBRANCH  12  14
ENDBRANCH   1  12
TORSDOF 3
ENDMDL
