MODEL 1
REMARK VINA RESULT:      -4.8      0.000      0.000
REMARK  Name = *****
REMARK  2 active torsions:
REMARK  status: ('A' for Active; 'I' for Inactive)
REMARK    1  A    between atoms: C_5  and  C_7
REMARK    2  A    between atoms: C_7  and  C_8
REMARK                            x       y       z     vdW  Elec       q    Type
REMARK                         _______ _______ _______ _____ _____    ______ ____
ROOT
ATOM      1  C   UNL     1      89.243  68.750  86.926  0.00  0.00    +0.000 A 
ATOM      2  N   UNL     1      88.304  67.865  87.212  0.00  0.00    +0.000 NA
ATOM      3  C   UNL     1      88.822  66.684  86.743  0.00  0.00    +0.000 A 
ATOM      4  C   UNL     1      88.307  65.382  86.753  0.00  0.00    +0.000 A 
ATOM      5  C   UNL     1      89.083  64.359  86.186  0.00  0.00    +0.000 A 
ATOM      6  C   UNL     1      90.339  64.628  85.625  0.00  0.00    +0.000 A 
ATOM      7  C   UNL     1      90.866  65.925  85.606  0.00  0.00    +0.000 A 
ATOM      8  C   UNL     1      90.066  66.908  86.176  0.00  0.00    +0.000 A 
ATOM      9  O   UNL     1      90.342  68.239  86.285  0.00  0.00    +0.000 OA
ENDROOT
BRANCH   1  10
ATOM     10  C   UNL     1      89.250  70.213  87.197  0.00  0.00    +0.000 C 
BRANCH  10  15
ATOM     11  C   UNL     1      85.910  71.616  86.023  0.00  0.00    +0.000 A 
ATOM     12  C   UNL     1      85.249  71.864  87.223  0.00  0.00    +0.000 A 
ATOM     13  C   UNL     1      85.879  71.578  88.433  0.00  0.00    +0.000 A 
ATOM     14  C   UNL     1      87.174  71.048  88.448  0.00  0.00    +0.000 A 
ATOM     15  C   UNL     1      87.859  70.805  87.247  0.00  0.00    +0.000 A 
ATOM     16  C   UNL     1      87.202  71.089  86.034  0.00  0.00    +0.000 A 
ATOM     17 CL   UNL     1      87.878  70.715  89.990  0.00  0.00    +0.000 Cl
ENDBRANCH  10  15
ENDBRANCH   1  10
TORSDOF 2
ENDMDL
