MODEL 1
REMARK VINA RESULT:      -5.0      0.000      0.000
REMARK  Name = *****
REMARK  8 active torsions:
REMARK  status: ('A' for Active; 'I' for Inactive)
REMARK    1  A    between atoms: C_1  and  C_2
REMARK    2  A    between atoms: C_4  and  C_20
REMARK    3  A    between atoms: C_5  and  C_8
REMARK    4  A    between atoms: C_8  and  C_9
REMARK    5  A    between atoms: C_9  and  C_10
REMARK    6  A    between atoms: C_10  and  C_12
REMARK    7  A    between atoms: C_13  and  C_19
REMARK    8  A    between atoms: C_15  and  C_18
REMARK                            x       y       z     vdW  Elec       q    Type
REMARK                         _______ _______ _______ _____ _____    ______ ____
ROOT
ATOM      1  C   UNL     1      89.466  68.444  86.513  0.00  0.00    +0.000 C 
ENDROOT
BRANCH   1   2
ATOM      2  C   UNL     1      89.325  69.952  86.601  0.00  0.00    +0.000 C 
ATOM      3  O   UNL     1      89.988  70.720  85.909  0.00  0.00    +0.000 OA
BRANCH   2   4
ATOM      4  C   UNL     1      88.291  70.498  87.518  0.00  0.00    +0.000 A 
ATOM      5  C   UNL     1      87.100  71.055  87.016  0.00  0.00    +0.000 A 
ATOM      6  C   UNL     1      86.167  71.578  87.927  0.00  0.00    +0.000 A 
ATOM      7  C   UNL     1      86.404  71.552  89.309  0.00  0.00    +0.000 A 
ATOM      8  C   UNL     1      87.587  70.982  89.788  0.00  0.00    +0.000 A 
ATOM      9  C   UNL     1      88.532  70.467  88.899  0.00  0.00    +0.000 A 
ATOM     10  C   UNL     1      85.374  72.082  90.263  0.00  0.00    +0.000 C 
ATOM     11  C   UNL     1      86.809  71.129  85.544  0.00  0.00    +0.000 C 
ENDBRANCH   2   4
ENDBRANCH   1   2
BRANCH   1  12
ATOM     12  C   UNL     1      88.097  67.785  86.353  0.00  0.00    +0.000 C 
BRANCH  12  17
ATOM     13  C   UNL     1      87.370  63.481  90.224  0.00  0.00    +0.000 C 
ATOM     14  C   UNL     1      87.565  64.607  89.254  0.00  0.00    +0.000 A 
ATOM     15  C   UNL     1      86.678  65.691  89.237  0.00  0.00    +0.000 A 
ATOM     16  C   UNL     1      86.820  66.741  88.314  0.00  0.00    +0.000 A 
ATOM     17  C   UNL     1      87.882  66.704  87.389  0.00  0.00    +0.000 A 
ATOM     18  C   UNL     1      88.758  65.604  87.398  0.00  0.00    +0.000 A 
ATOM     19  C   UNL     1      88.598  64.566  88.316  0.00  0.00    +0.000 A 
ATOM     20  C   UNL     1      85.847  67.887  88.363  0.00  0.00    +0.000 C 
ENDBRANCH  12  17
ENDBRANCH   1  12
TORSDOF 4
ENDMDL
