MODEL 1
REMARK VINA RESULT:      -4.8      0.000      0.000
REMARK  Name = *****
REMARK  6 active torsions:
REMARK  status: ('A' for Active; 'I' for Inactive)
REMARK    1  A    between atoms: C_1  and  C_2
REMARK    2  A    between atoms: C_5  and  S_8
REMARK    3  A    between atoms: S_8  and  N_10
REMARK    4  A    between atoms: N_10  and  C_11
REMARK    5  A    between atoms: N_10  and  C_12
REMARK    6  A    between atoms: C_16  and  C_18
REMARK                            x       y       z     vdW  Elec       q    Type
REMARK                         _______ _______ _______ _____ _____    ______ ____
ROOT
ATOM      1  S   UNL     1      89.112  70.464  86.656  0.00  0.00    +0.000 S 
ATOM      2  O   UNL     1      90.218  70.751  85.681  0.00  0.00    +0.000 OA
ENDROOT
BRANCH   1   7
ATOM      3  C   UNL     1      88.907  64.328  86.935  0.00  0.00    +0.000 C 
ATOM      4  C   UNL     1      88.964  65.826  86.889  0.00  0.00    +0.000 A 
ATOM      5  C   UNL     1      87.925  66.593  87.429  0.00  0.00    +0.000 A 
ATOM      6  C   UNL     1      87.963  67.989  87.357  0.00  0.00    +0.000 A 
ATOM      7  C   UNL     1      89.029  68.640  86.725  0.00  0.00    +0.000 A 
ATOM      8  C   UNL     1      90.064  67.870  86.180  0.00  0.00    +0.000 A 
ATOM      9  C   UNL     1      90.027  66.475  86.252  0.00  0.00    +0.000 A 
ENDBRANCH   1   7
BRANCH   1  10
ATOM     10  N   UNL     1      87.601  70.624  85.892  0.00  0.00    +0.000 N 
ATOM     11  C   UNL     1      87.670  70.894  84.455  0.00  0.00    +0.000 C 
BRANCH  10  12
ATOM     12  C   UNL     1      86.532  71.211  86.621  0.00  0.00    +0.000 A 
ATOM     13  C   UNL     1      86.496  71.243  88.027  0.00  0.00    +0.000 A 
ATOM     14  C   UNL     1      85.438  71.834  88.727  0.00  0.00    +0.000 A 
ATOM     15  C   UNL     1      84.385  72.427  88.040  0.00  0.00    +0.000 A 
ATOM     16  C   UNL     1      84.391  72.446  86.647  0.00  0.00    +0.000 A 
ATOM     17  C   UNL     1      85.453  71.834  85.957  0.00  0.00    +0.000 A 
ATOM     18  C   UNL     1      83.251  73.060  85.887  0.00  0.00    +0.000 C 
ENDBRANCH  10  12
ENDBRANCH   1  10
TORSDOF 3
ENDMDL
