MODEL 1
REMARK VINA RESULT:      -4.5      0.000      0.000
REMARK  Name = *****
REMARK  6 active torsions:
REMARK  status: ('A' for Active; 'I' for Inactive)
REMARK    1  A    between atoms: C_1  and  N_2
REMARK    2  A    between atoms: N_2  and  C_3
REMARK    3  A    between atoms: N_2  and  C_18
REMARK    4  A    between atoms: C_8  and  C_9
REMARK    5  A    between atoms: C_10  and  C_11
REMARK    6  A    between atoms: C_14  and  C_17
REMARK                            x       y       z     vdW  Elec       q    Type
REMARK                         _______ _______ _______ _____ _____    ______ ____
ROOT
ATOM      1  C   UNL     1     101.209 128.084  83.680  0.00  0.00    +0.000 A 
ATOM      2  C   UNL     1     100.113 128.928  83.947  0.00  0.00    +0.000 A 
ATOM      3  C   UNL     1      98.851 128.685  83.401  0.00  0.00    +0.000 A 
ATOM      4  C   UNL     1      98.656 127.588  82.573  0.00  0.00    +0.000 A 
ATOM      5  C   UNL     1      99.723 126.734  82.293  0.00  0.00    +0.000 A 
ATOM      6  C   UNL     1     100.997 126.971  82.838  0.00  0.00    +0.000 A 
ENDROOT
BRANCH   1   8
ATOM      7  C   UNL     1     102.734 129.871  84.168  0.00  0.00    +0.000 C 
ATOM      8  N   UNL     1     102.426 128.447  84.298  0.00  0.00    +0.000 N 
ATOM      9  C   UNL     1     102.590 127.900  85.644  0.00  0.00    +0.000 C 
ENDBRANCH   1   8
BRANCH   6  10
ATOM     10  C   UNL     1     102.030 126.036  82.500  0.00  0.00    +0.000 C 
ATOM     11  C   UNL     1     102.889 125.250  82.200  0.00  0.00    +0.000 C 
BRANCH  11  12
ATOM     12  C   UNL     1     103.916 124.319  81.851  0.00  0.00    +0.000 A 
ATOM     13  C   UNL     1     104.438 123.459  82.818  0.00  0.00    +0.000 A 
ATOM     14  C   UNL     1     105.441 122.547  82.476  0.00  0.00    +0.000 A 
ATOM     15  C   UNL     1     105.936 122.495  81.168  0.00  0.00    +0.000 A 
ATOM     16  C   UNL     1     105.395 123.350  80.200  0.00  0.00    +0.000 A 
ATOM     17  C   UNL     1     104.394 124.263  80.541  0.00  0.00    +0.000 A 
ATOM     18  C   UNL     1     106.986 121.491  80.792  0.00  0.00    +0.000 C 
ENDBRANCH  11  12
ENDBRANCH   6  10
TORSDOF 3
ENDMDL
