REMARK  Name = *****
REMARK  6 active torsions:
REMARK  status: ('A' for Active; 'I' for Inactive)
REMARK    1  A    between atoms: C_1  and  C_2
REMARK    2  A    between atoms: C_3  and  C_9
REMARK    3  A    between atoms: C_4  and  C_8
REMARK    4  A    between atoms: C_9  and  O_10
REMARK    5  A    between atoms: O_10  and  C_11
REMARK    6  A    between atoms: C_11  and  C_12
REMARK                            x       y       z     vdW  Elec       q    Type
REMARK                         _______ _______ _______ _____ _____    ______ ____
ROOT
ATOM      1  C   UNL     1      -0.092   2.528  -0.367  0.00  0.00    +0.000 C 
ENDROOT
BRANCH   1   4
ATOM      2  C   UNL     1      -0.326   1.214   2.307  0.00  0.00    +0.000 C 
ATOM      3  C   UNL     1      -0.130   0.410   1.049  0.00  0.00    +0.000 A 
ATOM      4  C   UNL     1      -0.013   1.023  -0.223  0.00  0.00    +0.000 A 
ATOM      5  C   UNL     1       0.219   0.210  -1.361  0.00  0.00    +0.000 A 
ATOM      6  C   UNL     1       0.271  -1.186  -1.221  0.00  0.00    +0.000 A 
ATOM      7  C   UNL     1       0.120  -1.781   0.027  0.00  0.00    +0.000 A 
ATOM      8  C   UNL     1      -0.075  -0.989   1.154  0.00  0.00    +0.000 A 
ATOM      9  C   UNL     1       0.405   0.802  -2.733  0.00  0.00    +0.000 C 
ENDBRANCH   1   4
BRANCH   1  10
ATOM     10  O   UNL     1       1.229   3.056  -0.385  0.00  0.00    +0.000 OA
BRANCH  10  11
ATOM     11  C   UNL     1       1.227   4.478  -0.476  0.00  0.00    +0.000 C 
BRANCH  11  12
ATOM     12  C   UNL     1       2.632   5.012  -0.619  0.00  0.00    +0.000 A 
ATOM     13  C   UNL     1       2.842   6.265  -1.215  0.00  0.00    +0.000 A 
ATOM     14  C   UNL     1       4.129   6.794  -1.330  0.00  0.00    +0.000 A 
ATOM     15  C   UNL     1       5.222   6.081  -0.841  0.00  0.00    +0.000 A 
ATOM     16  C   UNL     1       5.028   4.842  -0.234  0.00  0.00    +0.000 A 
ATOM     17  C   UNL     1       3.741   4.313  -0.119  0.00  0.00    +0.000 A 
ENDBRANCH  11  12
ENDBRANCH  10  11
ENDBRANCH   1  10
TORSDOF 4
