REMARK  Name = *****
REMARK  5 active torsions:
REMARK  status: ('A' for Active; 'I' for Inactive)
REMARK    1  A    between atoms: C_1  and  C_2
REMARK    2  A    between atoms: C_4  and  O_9
REMARK    3  A    between atoms: C_5  and  C_8
REMARK    4  A    between atoms: O_9  and  C_10
REMARK    5  A    between atoms: C_10  and  C_12
REMARK                            x       y       z     vdW  Elec       q    Type
REMARK                         _______ _______ _______ _____ _____    ______ ____
ROOT
ATOM      1  O   UNL     1      -1.188   2.555  -0.170  0.00  0.00    +0.000 OA
ENDROOT
BRANCH   1   5
ATOM      2  C   UNL     1       2.973  -0.081  -0.216  0.00  0.00    +0.000 C 
ATOM      3  C   UNL     1       1.483   0.011  -0.074  0.00  0.00    +0.000 A 
ATOM      4  C   UNL     1       0.837   1.248  -0.158  0.00  0.00    +0.000 A 
ATOM      5  C   UNL     1      -0.553   1.314  -0.037  0.00  0.00    +0.000 A 
ATOM      6  C   UNL     1      -1.335   0.164   0.119  0.00  0.00    +0.000 A 
ATOM      7  C   UNL     1      -0.681  -1.072   0.189  0.00  0.00    +0.000 A 
ATOM      8  C   UNL     1       0.713  -1.148   0.089  0.00  0.00    +0.000 A 
ATOM      9  C   UNL     1      -2.828   0.245   0.222  0.00  0.00    +0.000 C 
ENDBRANCH   1   5
BRANCH   1  10
ATOM     10  C   UNL     1      -1.102   3.353   0.954  0.00  0.00    +0.000 C 
ATOM     11  O   UNL     1      -0.542   3.095   2.009  0.00  0.00    +0.000 OA
BRANCH  10  12
ATOM     12  C   UNL     1      -1.816   4.639   0.711  0.00  0.00    +0.000 A 
ATOM     13  C   UNL     1      -2.488   4.918  -0.488  0.00  0.00    +0.000 A 
ATOM     14  C   UNL     1      -3.143   6.143  -0.658  0.00  0.00    +0.000 A 
ATOM     15  C   UNL     1      -3.128   7.089   0.366  0.00  0.00    +0.000 A 
ATOM     16  C   UNL     1      -2.464   6.822   1.561  0.00  0.00    +0.000 A 
ATOM     17  C   UNL     1      -1.809   5.599   1.734  0.00  0.00    +0.000 A 
ATOM     18 CL   UNL     1      -3.935   8.592   0.152  0.00  0.00    +0.000 Cl
ENDBRANCH  10  12
ENDBRANCH   1  10
TORSDOF 3
