MODEL 1
REMARK VINA RESULT:      -4.5      0.000      0.000
REMARK  Name = *****
REMARK  2 active torsions:
REMARK  status: ('A' for Active; 'I' for Inactive)
REMARK    1  A    between atoms: C_5  and  N_7
REMARK    2  A    between atoms: C_8  and  C_9
REMARK                            x       y       z     vdW  Elec       q    Type
REMARK                         _______ _______ _______ _____ _____    ______ ____
ROOT
ATOM      1  N   UNL     1     101.907 125.971  82.886  0.00  0.00    +0.000 NA
ATOM      2  C   UNL     1     102.565 125.914  81.775  0.00  0.00    +0.000 C 
ENDROOT
BRANCH   1   7
ATOM      3  C   UNL     1      98.644 127.662  82.530  0.00  0.00    +0.000 A 
ATOM      4  C   UNL     1      98.866 128.910  83.103  0.00  0.00    +0.000 A 
ATOM      5  C   UNL     1     100.121 129.220  83.632  0.00  0.00    +0.000 A 
ATOM      6  C   UNL     1     101.170 128.289  83.591  0.00  0.00    +0.000 A 
ATOM      7  C   UNL     1     100.959 127.019  82.995  0.00  0.00    +0.000 A 
ATOM      8  C   UNL     1      99.682 126.731  82.484  0.00  0.00    +0.000 A 
ATOM      9  S   UNL     1     102.668 128.800  84.308  0.00  0.00    +0.000 S 
ENDBRANCH   1   7
BRANCH   2  10
ATOM     10  C   UNL     1     103.613 124.901  81.543  0.00  0.00    +0.000 A 
ATOM     11  C   UNL     1     104.036 124.057  82.574  0.00  0.00    +0.000 A 
ATOM     12  C   UNL     1     105.023 123.100  82.329  0.00  0.00    +0.000 A 
ATOM     13  C   UNL     1     105.584 122.996  81.055  0.00  0.00    +0.000 A 
ATOM     14  C   UNL     1     105.169 123.842  80.025  0.00  0.00    +0.000 A 
ATOM     15  C   UNL     1     104.181 124.798  80.269  0.00  0.00    +0.000 A 
ATOM     16 CL   UNL     1     106.799 121.814  80.751  0.00  0.00    +0.000 Cl
ENDBRANCH   2  10
TORSDOF 2
ENDMDL
