MODEL 1
REMARK VINA RESULT:      -3.6      0.000      0.000
REMARK  Name = *****
REMARK  5 active torsions:
REMARK  status: ('A' for Active; 'I' for Inactive)
REMARK    1  A    between atoms: C_1  and  C_2
REMARK    2  A    between atoms: C_7  and  C_8
REMARK    3  A    between atoms: C_8  and  O_10
REMARK    4  A    between atoms: O_10  and  C_11
REMARK    5  A    between atoms: C_11  and  C_12
REMARK                            x       y       z     vdW  Elec       q    Type
REMARK                         _______ _______ _______ _____ _____    ______ ____
ROOT
ATOM      1  C   UNL     1      89.342  67.987  85.781  0.00  0.00    +0.000 C 
ATOM      2  O   UNL     1      90.333  67.844  86.489  0.00  0.00    +0.000 OA
ENDROOT
BRANCH   1   9
ATOM      3  C   UNL     1      90.724  70.518  83.245  0.00  0.00    +0.000 C 
ATOM      4  C   UNL     1      90.261  70.002  84.614  0.00  0.00    +0.000 C 
ATOM      5  C   UNL     1      89.526  71.106  85.400  0.00  0.00    +0.000 C 
ATOM      6  C   UNL     1      88.088  71.274  85.005  0.00  0.00    +0.000 C 
ATOM      7  C   UNL     1      87.404  70.357  84.306  0.00  0.00    +0.000 C 
ATOM      8  C   UNL     1      87.994  69.046  83.868  0.00  0.00    +0.000 C 
ATOM      9  C   UNL     1      89.382  68.743  84.459  0.00  0.00    +0.000 C 
ENDBRANCH   1   9
BRANCH   1  10
ATOM     10  O   UNL     1      88.093  67.562  86.100  0.00  0.00    +0.000 OA
BRANCH  10  11
ATOM     11  C   UNL     1      87.746  67.620  87.488  0.00  0.00    +0.000 C 
BRANCH  11  12
ATOM     12  C   UNL     1      87.223  68.995  87.814  0.00  0.00    +0.000 A 
ATOM     13  C   UNL     1      88.002  69.893  88.558  0.00  0.00    +0.000 A 
ATOM     14  C   UNL     1      87.508  71.157  88.882  0.00  0.00    +0.000 A 
ATOM     15  C   UNL     1      86.229  71.531  88.475  0.00  0.00    +0.000 A 
ATOM     16  C   UNL     1      85.440  70.641  87.747  0.00  0.00    +0.000 A 
ATOM     17  C   UNL     1      85.933  69.377  87.421  0.00  0.00    +0.000 A 
ENDBRANCH  11  12
ENDBRANCH  10  11
ENDBRANCH   1  10
TORSDOF 4
ENDMDL
