MODEL 1
REMARK VINA RESULT:      -4.3      0.000      0.000
REMARK  Name = *****
REMARK  5 active torsions:
REMARK  status: ('A' for Active; 'I' for Inactive)
REMARK    1  A    between atoms: C_1  and  C_2
REMARK    2  A    between atoms: C_7  and  C_8
REMARK    3  A    between atoms: C_8  and  O_9
REMARK    4  A    between atoms: O_9  and  C_10
REMARK    5  A    between atoms: C_10  and  C_11
REMARK                            x       y       z     vdW  Elec       q    Type
REMARK                         _______ _______ _______ _____ _____    ______ ____
ROOT
ATOM      1  C   UNL     1     104.874 124.399  80.484  0.00  0.00    +0.000 C 
ENDROOT
BRANCH   1   8
ATOM      2  C   UNL     1     104.662 124.530  83.442  0.00  0.00    +0.000 C 
ATOM      3  C   UNL     1     104.604 123.212  82.717  0.00  0.00    +0.000 A 
ATOM      4  C   UNL     1     104.446 122.032  83.464  0.00  0.00    +0.000 A 
ATOM      5  C   UNL     1     104.386 120.791  82.833  0.00  0.00    +0.000 A 
ATOM      6  C   UNL     1     104.483 120.712  81.448  0.00  0.00    +0.000 A 
ATOM      7  C   UNL     1     104.640 121.876  80.693  0.00  0.00    +0.000 A 
ATOM      8  C   UNL     1     104.703 123.138  81.308  0.00  0.00    +0.000 A 
ENDBRANCH   1   8
BRANCH   1   9
ATOM      9  O   UNL     1     103.625 124.970  80.092  0.00  0.00    +0.000 OA
BRANCH   9  10
ATOM     10  C   UNL     1     103.656 126.393  80.185  0.00  0.00    +0.000 C 
BRANCH  10  11
ATOM     11  C   UNL     1     102.896 126.875  81.397  0.00  0.00    +0.000 A 
ATOM     12  C   UNL     1     101.798 126.137  81.868  0.00  0.00    +0.000 A 
ATOM     13  C   UNL     1     101.111 126.538  83.015  0.00  0.00    +0.000 A 
ATOM     14  C   UNL     1     101.517 127.675  83.711  0.00  0.00    +0.000 A 
ATOM     15  C   UNL     1     102.613 128.409  83.262  0.00  0.00    +0.000 A 
ATOM     16  C   UNL     1     103.302 128.008  82.116  0.00  0.00    +0.000 A 
ENDBRANCH  10  11
ENDBRANCH   9  10
ENDBRANCH   1   9
TORSDOF 4
ENDMDL
