REMARK  Name = *****
REMARK  4 active torsions:
REMARK  status: ('A' for Active; 'I' for Inactive)
REMARK    1  A    between atoms: C_1  and  C_2
REMARK    2  A    between atoms: C_5  and  C_8
REMARK    3  A    between atoms: C_9  and  C_10
REMARK    4  A    between atoms: C_15  and  C_16
REMARK                            x       y       z     vdW  Elec       q    Type
REMARK                         _______ _______ _______ _____ _____    ______ ____
ROOT
ATOM      1  C   UNL     1      -3.275   0.144   0.081  0.00  0.00    +0.000 C 
ATOM      2  C   UNL     1      -4.022   1.220  -0.215  0.00  0.00    +0.000 C 
ENDROOT
BRANCH   1   7
ATOM      3  C   UNL     1       2.510  -0.023  -0.089  0.00  0.00    +0.000 C 
ATOM      4  C   UNL     1       1.012   0.023  -0.019  0.00  0.00    +0.000 A 
ATOM      5  C   UNL     1       0.357   1.163   0.456  0.00  0.00    +0.000 A 
ATOM      6  C   UNL     1      -1.040   1.217   0.490  0.00  0.00    +0.000 A 
ATOM      7  C   UNL     1      -1.806   0.138   0.031  0.00  0.00    +0.000 A 
ATOM      8  C   UNL     1      -1.148  -1.003  -0.440  0.00  0.00    +0.000 A 
ATOM      9  C   UNL     1       0.249  -1.056  -0.476  0.00  0.00    +0.000 A 
ENDBRANCH   1   7
BRANCH   2  10
ATOM     10  C   UNL     1      -5.493   1.213  -0.146  0.00  0.00    +0.000 A 
ATOM     11  C   UNL     1      -6.214   0.231  -0.845  0.00  0.00    +0.000 A 
ATOM     12  C   UNL     1      -7.610   0.213  -0.816  0.00  0.00    +0.000 A 
ATOM     13  C   UNL     1      -8.306   1.178  -0.093  0.00  0.00    +0.000 A 
ATOM     14  C   UNL     1      -7.606   2.166   0.598  0.00  0.00    +0.000 A 
ATOM     15  C   UNL     1      -6.203   2.193   0.574  0.00  0.00    +0.000 A 
BRANCH  15  16
ATOM     16  C   UNL     1      -5.526   3.228   1.303  0.00  0.00    +0.000 C 
ATOM     17  N   UNL     1      -4.990   4.076   1.889  0.00  0.00    +0.000 NA
ENDBRANCH  15  16
ENDBRANCH   2  10
TORSDOF 3
