MODEL 1
REMARK VINA RESULT:      -4.3      0.000      0.000
REMARK  Name = *****
REMARK  5 active torsions:
REMARK  status: ('A' for Active; 'I' for Inactive)
REMARK    1  A    between atoms: C_1  and  O_2
REMARK    2  A    between atoms: O_2  and  C_3
REMARK    3  A    between atoms: C_3  and  C_4
REMARK    4  A    between atoms: C_3  and  C_10
REMARK    5  A    between atoms: C_10  and  C_11
REMARK                            x       y       z     vdW  Elec       q    Type
REMARK                         _______ _______ _______ _____ _____    ______ ____
ROOT
ATOM      1  C   UNL     1      88.263  69.451  87.333  0.00  0.00    +0.000 C 
ENDROOT
BRANCH   1   2
ATOM      2  C   UNL     1      89.023  69.604  86.021  0.00  0.00    +0.000 A 
ATOM      3  C   UNL     1      89.736  70.783  85.756  0.00  0.00    +0.000 A 
ATOM      4  C   UNL     1      90.417  70.945  84.548  0.00  0.00    +0.000 A 
ATOM      5  C   UNL     1      90.391  69.935  83.590  0.00  0.00    +0.000 A 
ATOM      6  C   UNL     1      89.682  68.761  83.837  0.00  0.00    +0.000 A 
ATOM      7  C   UNL     1      89.002  68.596  85.044  0.00  0.00    +0.000 A 
ENDBRANCH   1   2
BRANCH   1   9
ATOM      8  C   UNL     1      87.041  67.563  88.129  0.00  0.00    +0.000 C 
ATOM      9  O   UNL     1      87.108  68.610  87.169  0.00  0.00    +0.000 OA
ENDBRANCH   1   9
BRANCH   1  10
ATOM     10  C   UNL     1      87.884  70.840  87.914  0.00  0.00    +0.000 C 
ATOM     11 BR   UNL     1      88.125  70.822  89.876  0.00  0.00    +0.000 Br
BRANCH  10  12
ATOM     12  C   UNL     1      86.510  71.399  87.601  0.00  0.00    +0.000 A 
ATOM     13  C   UNL     1      86.081  71.650  86.288  0.00  0.00    +0.000 A 
ATOM     14  C   UNL     1      84.814  72.180  86.037  0.00  0.00    +0.000 A 
ATOM     15  C   UNL     1      83.956  72.470  87.094  0.00  0.00    +0.000 A 
ATOM     16  C   UNL     1      84.364  72.230  88.403  0.00  0.00    +0.000 A 
ATOM     17  C   UNL     1      85.630  71.700  88.656  0.00  0.00    +0.000 A 
ENDBRANCH  10  12
ENDBRANCH   1  10
TORSDOF 4
ENDMDL
