MODEL 1
REMARK VINA RESULT:      -4.3      0.000      0.000
REMARK  Name = *****
REMARK  2 active torsions:
REMARK  status: ('A' for Active; 'I' for Inactive)
REMARK    1  A    between atoms: C_4  and  C_7
REMARK    2  A    between atoms: N_8  and  C_9
REMARK                            x       y       z     vdW  Elec       q    Type
REMARK                         _______ _______ _______ _____ _____    ______ ____
ROOT
ATOM      1  C   UNL     1     101.894 125.960  82.243  0.00  0.00    +0.000 C 
ATOM      2  N   UNL     1     102.864 125.587  83.016  0.00  0.00    +0.000 NA
ENDROOT
BRANCH   2   3
ATOM      3  C   UNL     1     103.728 124.591  82.495  0.00  0.00    +0.000 A 
ATOM      4  C   UNL     1     103.879 124.598  81.098  0.00  0.00    +0.000 A 
ATOM      5  C   UNL     1     104.689 123.671  80.441  0.00  0.00    +0.000 A 
ATOM      6  C   UNL     1     105.363 122.704  81.179  0.00  0.00    +0.000 A 
ATOM      7  C   UNL     1     105.221 122.664  82.568  0.00  0.00    +0.000 A 
ATOM      8  C   UNL     1     104.408 123.591  83.237  0.00  0.00    +0.000 A 
ATOM      9  S   UNL     1     104.308 123.408  84.961  0.00  0.00    +0.000 S 
ENDBRANCH   2   3
BRANCH   1  13
ATOM     10  C   UNL     1      99.080 128.947  83.404  0.00  0.00    +0.000 A 
ATOM     11  C   UNL     1     100.436 129.134  83.679  0.00  0.00    +0.000 A 
ATOM     12  C   UNL     1     101.366 128.164  83.299  0.00  0.00    +0.000 A 
ATOM     13  C   UNL     1     100.934 127.006  82.645  0.00  0.00    +0.000 A 
ATOM     14  C   UNL     1      99.578 126.821  82.365  0.00  0.00    +0.000 A 
ATOM     15  C   UNL     1      98.652 127.793  82.745  0.00  0.00    +0.000 A 
ENDBRANCH   1  13
TORSDOF 2
ENDMDL
