MODEL 1
REMARK VINA RESULT:      -4.1      0.000      0.000
REMARK  Name = *****
REMARK  3 active torsions:
REMARK  status: ('A' for Active; 'I' for Inactive)
REMARK    1  A    between atoms: C_4  and  C_7
REMARK    2  A    between atoms: C_7  and  C_16
REMARK    3  A    between atoms: N_8  and  C_10
REMARK                            x       y       z     vdW  Elec       q    Type
REMARK                         _______ _______ _______ _____ _____    ______ ____
ROOT
ATOM      1  C   UNL     1     103.043 125.852  83.497  0.00  0.00    +0.000 C 
ATOM      2  N   UNL     1     101.726 126.029  84.161  0.00  0.00    +0.000 N 
ATOM      3  O   UNL     1     102.883 126.414  84.813  0.00  0.00    +0.000 OA
ENDROOT
BRANCH   1   7
ATOM      4  C   UNL     1     104.352 128.558  80.351  0.00  0.00    +0.000 A 
ATOM      5  C   UNL     1     104.666 128.829  81.679  0.00  0.00    +0.000 A 
ATOM      6  C   UNL     1     104.241 127.962  82.688  0.00  0.00    +0.000 A 
ATOM      7  C   UNL     1     103.488 126.807  82.397  0.00  0.00    +0.000 A 
ATOM      8  C   UNL     1     103.196 126.554  81.043  0.00  0.00    +0.000 A 
ATOM      9  C   UNL     1     103.617 127.421  80.031  0.00  0.00    +0.000 A 
ENDBRANCH   1   7
BRANCH   2  10
ATOM     10  C   UNL     1     100.823 127.050  83.771  0.00  0.00    +0.000 A 
ATOM     11  C   UNL     1      99.778 126.698  82.904  0.00  0.00    +0.000 A 
ATOM     12  C   UNL     1      98.845 127.648  82.480  0.00  0.00    +0.000 A 
ATOM     13  C   UNL     1      98.938 128.963  82.929  0.00  0.00    +0.000 A 
ATOM     14  C   UNL     1      99.957 129.325  83.806  0.00  0.00    +0.000 A 
ATOM     15  C   UNL     1     100.888 128.373  84.231  0.00  0.00    +0.000 A 
ENDBRANCH   2  10
BRANCH   1  16
ATOM     16  C   UNL     1     103.564 124.502  83.558  0.00  0.00    +0.000 C 
ATOM     17  N   UNL     1     103.971 123.413  83.595  0.00  0.00    +0.000 NA
ENDBRANCH   1  16
TORSDOF 3
ENDMDL
