REMARK  Name = *****
REMARK  2 active torsions:
REMARK  status: ('A' for Active; 'I' for Inactive)
REMARK    1  A    between atoms: C_7  and  C_8
REMARK    2  A    between atoms: C_8  and  C_10
REMARK                            x       y       z     vdW  Elec       q    Type
REMARK                         _______ _______ _______ _____ _____    ______ ____
ROOT
ATOM      1  C   UNL     1       3.053   1.023  -0.767  0.00  0.00    +0.000 C 
ATOM      2  O   UNL     1       3.688   1.716   0.019  0.00  0.00    +0.000 OA
ENDROOT
BRANCH   1   9
ATOM      3  C   UNL     1      -1.264   0.876  -0.973  0.00  0.00    +0.000 C 
ATOM      4  C   UNL     1      -1.552  -0.524  -0.446  0.00  0.00    +0.000 C 
ATOM      5  C   UNL     1      -0.165  -1.158  -0.343  0.00  0.00    +0.000 C 
ATOM      6  C   UNL     1       0.746   0.001  -0.010  0.00  0.00    +0.000 C 
ATOM      7  C   UNL     1      -0.012   1.296  -0.203  0.00  0.00    +0.000 C 
ATOM      8  C   UNL     1       1.709  -0.110   1.145  0.00  0.00    +0.000 C 
ATOM      9  C   UNL     1       2.243  -0.124  -0.267  0.00  0.00    +0.000 C 
ENDBRANCH   1   9
BRANCH   1  10
ATOM     10  C   UNL     1       3.096   1.296  -2.232  0.00  0.00    +0.000 A 
ATOM     11  C   UNL     1       2.375   0.528  -3.155  0.00  0.00    +0.000 A 
ATOM     12  C   UNL     1       2.445   0.825  -4.521  0.00  0.00    +0.000 A 
ATOM     13  C   UNL     1       3.233   1.887  -4.964  0.00  0.00    +0.000 A 
ATOM     14  C   UNL     1       3.953   2.657  -4.054  0.00  0.00    +0.000 A 
ATOM     15  C   UNL     1       3.884   2.363  -2.689  0.00  0.00    +0.000 A 
ATOM     16 CL   UNL     1       3.315   2.247  -6.643  0.00  0.00    +0.000 Cl
ENDBRANCH   1  10
TORSDOF 2
