MODEL 1
REMARK VINA RESULT:      -5.4      0.000      0.000
REMARK  Name = *****
REMARK  4 active torsions:
REMARK  status: ('A' for Active; 'I' for Inactive)
REMARK    1  A    between atoms: C_1  and  C_2
REMARK    2  A    between atoms: C_9  and  C_11
REMARK    3  A    between atoms: C_13  and  C_18
REMARK    4  A    between atoms: C_14  and  C_17
REMARK                            x       y       z     vdW  Elec       q    Type
REMARK                         _______ _______ _______ _____ _____    ______ ____
ROOT
ATOM      1  C   UNL     1      99.344 130.815  84.378  0.00  0.00    +0.000 C 
ATOM      2  C   UNL     1      99.772 129.522  83.745  0.00  0.00    +0.000 A 
ATOM      3  C   UNL     1     101.126 129.135  83.790  0.00  0.00    +0.000 A 
ATOM      4  C   UNL     1     101.491 127.908  83.220  0.00  0.00    +0.000 A 
ATOM      5  C   UNL     1     100.512 127.118  82.646  0.00  0.00    +0.000 A 
ATOM      6  C   UNL     1      99.164 127.445  82.588  0.00  0.00    +0.000 A 
ATOM      7  C   UNL     1      98.813 128.674  83.162  0.00  0.00    +0.000 A 
ATOM      8  O   UNL     1     101.111 125.990  82.168  0.00  0.00    +0.000 OA
ATOM      9  C   UNL     1     102.438 126.159  82.483  0.00  0.00    +0.000 A 
ATOM     10  N   UNL     1     102.711 127.290  83.113  0.00  0.00    +0.000 NA
ENDROOT
BRANCH   9  11
ATOM     11  C   UNL     1     103.348 125.086  82.087  0.00  0.00    +0.000 A 
ATOM     12  C   UNL     1     103.823 124.135  83.002  0.00  0.00    +0.000 A 
ATOM     13  C   UNL     1     104.699 123.107  82.607  0.00  0.00    +0.000 A 
ATOM     14  C   UNL     1     105.113 123.031  81.263  0.00  0.00    +0.000 A 
ATOM     15  C   UNL     1     104.637 123.979  80.347  0.00  0.00    +0.000 A 
ATOM     16  C   UNL     1     103.766 124.993  80.754  0.00  0.00    +0.000 A 
ATOM     17  C   UNL     1     106.047 121.952  80.788  0.00  0.00    +0.000 C 
ATOM     18  C   UNL     1     105.179 122.116  83.632  0.00  0.00    +0.000 C 
ENDBRANCH   9  11
TORSDOF 1
ENDMDL
