MODEL 1
REMARK VINA RESULT:      -4.6      0.000      0.000
REMARK  Name = *****
REMARK  4 active torsions:
REMARK  status: ('A' for Active; 'I' for Inactive)
REMARK    1  A    between atoms: C_1  and  C_2
REMARK    2  A    between atoms: C_4  and  O_8
REMARK    3  A    between atoms: O_8  and  S_9
REMARK    4  A    between atoms: S_9  and  C_11
REMARK                            x       y       z     vdW  Elec       q    Type
REMARK                         _______ _______ _______ _____ _____    ______ ____
ROOT
ATOM      1  O   UNL     1     101.728 125.932  82.383  0.00  0.00    +0.000 OA
ENDROOT
BRANCH   1   5
ATOM      2  C   UNL     1     100.772 130.327  84.413  0.00  0.00    +0.000 C 
ATOM      3  C   UNL     1     100.340 129.099  83.665  0.00  0.00    +0.000 A 
ATOM      4  C   UNL     1     101.266 128.096  83.356  0.00  0.00    +0.000 A 
ATOM      5  C   UNL     1     100.852 126.945  82.678  0.00  0.00    +0.000 A 
ATOM      6  C   UNL     1      99.509 126.760  82.355  0.00  0.00    +0.000 A 
ATOM      7  C   UNL     1      98.580 127.749  82.674  0.00  0.00    +0.000 A 
ATOM      8  C   UNL     1      98.994 128.913  83.325  0.00  0.00    +0.000 A 
ENDBRANCH   1   5
BRANCH   1   9
ATOM      9  S   UNL     1     102.932 125.752  83.443  0.00  0.00    +0.000 S 
ATOM     10  O   UNL     1     102.391 124.983  84.614  0.00  0.00    +0.000 OA
BRANCH   9  11
ATOM     11  C   UNL     1     103.785 124.537  82.405  0.00  0.00    +0.000 A 
ATOM     12  C   UNL     1     104.006 124.815  81.050  0.00  0.00    +0.000 A 
ATOM     13  C   UNL     1     104.679 123.894  80.243  0.00  0.00    +0.000 A 
ATOM     14  C   UNL     1     105.137 122.695  80.786  0.00  0.00    +0.000 A 
ATOM     15  C   UNL     1     104.927 122.415  82.135  0.00  0.00    +0.000 A 
ATOM     16  C   UNL     1     104.254 123.333  82.943  0.00  0.00    +0.000 A 
ENDBRANCH   9  11
ENDBRANCH   1   9
TORSDOF 3
ENDMDL
