MODEL 1
REMARK VINA RESULT:      -4.6      0.000      0.000
REMARK  Name = *****
REMARK  5 active torsions:
REMARK  status: ('A' for Active; 'I' for Inactive)
REMARK    1  A    between atoms: C_1  and  C_2
REMARK    2  A    between atoms: C_5  and  C_16
REMARK    3  A    between atoms: N_8  and  C_9
REMARK    4  A    between atoms: C_9  and  C_10
REMARK    5  A    between atoms: C_16  and  C_18
REMARK                            x       y       z     vdW  Elec       q    Type
REMARK                         _______ _______ _______ _____ _____    ______ ____
ROOT
ATOM      1  C   UNL     1     103.557 124.854  84.962  0.00  0.00    +0.000 C 
ATOM      2  C   UNL     1     103.485 124.857  83.465  0.00  0.00    +0.000 C 
ATOM      3  C   UNL     1     104.293 124.112  82.693  0.00  0.00    +0.000 C 
ATOM      4  C   UNL     1     104.291 124.101  81.196  0.00  0.00    +0.000 C 
ATOM      5  C   UNL     1     103.554 125.284  80.552  0.00  0.00    +0.000 C 
ATOM      6  C   UNL     1     102.270 125.639  81.312  0.00  0.00    +0.000 C 
ATOM      7  C   UNL     1     102.440 125.723  82.825  0.00  0.00    +0.000 C 
ATOM      8  N   UNL     1     101.697 126.450  83.594  0.00  0.00    +0.000 NA
ENDROOT
BRANCH   5   9
ATOM      9  C   UNL     1     104.452 126.496  80.287  0.00  0.00    +0.000 C 
ATOM     10  C   UNL     1     105.768 126.338  80.056  0.00  0.00    +0.000 C 
ATOM     11  C   UNL     1     103.847 127.875  80.288  0.00  0.00    +0.000 C 
ENDBRANCH   5   9
BRANCH   8  12
ATOM     12  C   UNL     1     100.630 127.268  83.020  0.00  0.00    +0.000 C 
BRANCH  12  13
ATOM     13  C   UNL     1     100.619 128.671  83.586  0.00  0.00    +0.000 A 
ATOM     14  C   UNL     1     101.779 129.211  84.162  0.00  0.00    +0.000 A 
ATOM     15  C   UNL     1     101.789 130.521  84.645  0.00  0.00    +0.000 A 
ATOM     16  C   UNL     1     100.644 131.310  84.550  0.00  0.00    +0.000 A 
ATOM     17  C   UNL     1      99.489 130.791  83.968  0.00  0.00    +0.000 A 
ATOM     18  C   UNL     1      99.479 129.481  83.484  0.00  0.00    +0.000 A 
ENDBRANCH  12  13
ENDBRANCH   8  12
TORSDOF 3
ENDMDL
