REMARK  Name = *****
REMARK  5 active torsions:
REMARK  status: ('A' for Active; 'I' for Inactive)
REMARK    1  A    between atoms: C_1  and  C_2
REMARK    2  A    between atoms: C_3  and  C_9
REMARK    3  A    between atoms: C_4  and  C_8
REMARK    4  A    between atoms: C_9  and  C_10
REMARK    5  A    between atoms: C_10  and  C_11
REMARK                            x       y       z     vdW  Elec       q    Type
REMARK                         _______ _______ _______ _____ _____    ______ ____
ROOT
ATOM      1  C   UNL     1       2.563   0.893  -0.004  0.00  0.00    +0.000 C 
ATOM      2  C   UNL     1       1.216   0.221  -0.059  0.00  0.00    +0.000 A 
ATOM      3  C   UNL     1       0.003   0.954  -0.024  0.00  0.00    +0.000 A 
ATOM      4  C   UNL     1      -1.229   0.252  -0.058  0.00  0.00    +0.000 A 
ATOM      5  C   UNL     1      -1.228  -1.151  -0.108  0.00  0.00    +0.000 A 
ATOM      6  C   UNL     1      -0.034  -1.862  -0.136  0.00  0.00    +0.000 A 
ATOM      7  C   UNL     1       1.178  -1.181  -0.110  0.00  0.00    +0.000 A 
ATOM      8  C   UNL     1      -2.559   0.958  -0.001  0.00  0.00    +0.000 C 
ENDROOT
BRANCH   3   9
ATOM      9  C   UNL     1       0.020   2.474   0.023  0.00  0.00    +0.000 C 
BRANCH   9  10
ATOM     10  C   UNL     1       0.029   3.094  -1.382  0.00  0.00    +0.000 C 
BRANCH  10  11
ATOM     11  C   UNL     1      -0.038   4.605  -1.462  0.00  0.00    +0.000 A 
ATOM     12  C   UNL     1       0.041   5.449  -0.346  0.00  0.00    +0.000 A 
ATOM     13  C   UNL     1      -0.022   6.838  -0.497  0.00  0.00    +0.000 A 
ATOM     14  C   UNL     1      -0.158   7.402  -1.763  0.00  0.00    +0.000 A 
ATOM     15  C   UNL     1      -0.230   6.578  -2.882  0.00  0.00    +0.000 A 
ATOM     16  C   UNL     1      -0.168   5.192  -2.732  0.00  0.00    +0.000 A 
ENDBRANCH  10  11
ENDBRANCH   9  10
ENDBRANCH   3   9
TORSDOF 3
