REMARK  Name = *****
REMARK  2 active torsions:
REMARK  status: ('A' for Active; 'I' for Inactive)
REMARK    1  A    between atoms: C_4  and  C_7
REMARK    2  A    between atoms: C_13  and  C_15
REMARK                            x       y       z     vdW  Elec       q    Type
REMARK                         _______ _______ _______ _____ _____    ______ ____
ROOT
ATOM      1  C   UNL     1      -3.050   0.110  -0.537  0.00  0.00    +0.000 C 
ATOM      2  C   UNL     1      -4.115  -0.690  -0.688  0.00  0.00    +0.000 C 
ATOM      3  C   UNL     1      -4.237  -2.131  -0.618  0.00  0.00    +0.000 A 
ATOM      4  C   UNL     1      -5.565  -2.403  -0.863  0.00  0.00    +0.000 A 
ATOM      5  C   UNL     1      -6.079  -3.690  -0.882  0.00  0.00    +0.000 A 
ATOM      6  C   UNL     1      -5.195  -4.743  -0.639  0.00  0.00    +0.000 A 
ATOM      7  C   UNL     1      -3.826  -4.495  -0.383  0.00  0.00    +0.000 A 
ATOM      8  C   UNL     1      -3.349  -3.171  -0.374  0.00  0.00    +0.000 A 
ATOM      9  C   UNL     1      -6.281  -1.153  -1.084  0.00  0.00    +0.000 C 
ATOM     10  O   UNL     1      -7.469  -1.050  -1.324  0.00  0.00    +0.000 OA
ATOM     11  O   UNL     1      -5.377  -0.128  -0.969  0.00  0.00    +0.000 OA
ENDROOT
BRANCH   1  15
ATOM     12  C   UNL     1       0.912  -1.199   0.301  0.00  0.00    +0.000 A 
ATOM     13  C   UNL     1       0.483  -1.078  -1.021  0.00  0.00    +0.000 A 
ATOM     14  C   UNL     1      -0.812  -0.637  -1.297  0.00  0.00    +0.000 A 
ATOM     15  C   UNL     1      -1.684  -0.319  -0.250  0.00  0.00    +0.000 A 
ATOM     16  C   UNL     1      -1.247  -0.434   1.074  0.00  0.00    +0.000 A 
ATOM     17  C   UNL     1       0.049  -0.875   1.347  0.00  0.00    +0.000 A 
ENDBRANCH   1  15
BRANCH   7  18
ATOM     18  C   UNL     1      -2.918  -5.663  -0.128  0.00  0.00    +0.000 C 
ATOM     19  O   UNL     1      -3.426  -6.783  -0.155  0.00  0.00    +0.000 OA
ATOM     20 CL   UNL     1      -1.217  -5.398   0.191  0.00  0.00    +0.000 Cl
ENDBRANCH   7  18
TORSDOF 2
