MODEL 1
REMARK VINA RESULT:      -3.9      0.000      0.000
REMARK  Name = *****
REMARK  5 active torsions:
REMARK  status: ('A' for Active; 'I' for Inactive)
REMARK    1  A    between atoms: C_1  and  C_2
REMARK    2  A    between atoms: C_2  and  C_3
REMARK    3  A    between atoms: C_2  and  N_9
REMARK    4  A    between atoms: N_9  and  C_10
REMARK    5  A    between atoms: C_10  and  C_11
REMARK                            x       y       z     vdW  Elec       q    Type
REMARK                         _______ _______ _______ _____ _____    ______ ____
ROOT
ATOM      1  C   UNL     1     103.265 125.188  83.881  0.00  0.00    +0.000 C 
ATOM      2  C   UNL     1     102.296 125.659  82.797  0.00  0.00    +0.000 C 
ENDROOT
BRANCH   2   3
ATOM      3  C   UNL     1     101.213 126.655  83.284  0.00  0.00    +0.000 C 
ATOM      4  C   UNL     1      99.959 126.694  82.390  0.00  0.00    +0.000 C 
ATOM      5  C   UNL     1      98.908 127.655  82.944  0.00  0.00    +0.000 C 
ATOM      6  C   UNL     1      99.476 129.057  83.142  0.00  0.00    +0.000 C 
ATOM      7  C   UNL     1     100.730 129.037  84.010  0.00  0.00    +0.000 C 
ATOM      8  C   UNL     1     101.782 128.075  83.459  0.00  0.00    +0.000 C 
ENDBRANCH   2   3
BRANCH   2   9
ATOM      9  N   UNL     1     103.104 126.298  81.745  0.00  0.00    +0.000 NA
BRANCH   9  10
ATOM     10  C   UNL     1     103.130 125.667  80.624  0.00  0.00    +0.000 C 
BRANCH  10  11
ATOM     11  C   UNL     1     104.281 124.839  80.313  0.00  0.00    +0.000 A 
ATOM     12  C   UNL     1     105.341 125.292  79.550  0.00  0.00    +0.000 A 
ATOM     13  S   UNL     1     106.560 124.107  79.341  0.00  0.00    +0.000 S 
ATOM     14  C   UNL     1     105.687 122.968  80.268  0.00  0.00    +0.000 A 
ATOM     15  C   UNL     1     104.495 123.483  80.726  0.00  0.00    +0.000 A 
ENDBRANCH  10  11
ENDBRANCH   9  10
ENDBRANCH   2   9
TORSDOF 4
ENDMDL
