MODEL 1
REMARK VINA RESULT:      -4.9      0.000      0.000
REMARK  Name = *****
REMARK  3 active torsions:
REMARK  status: ('A' for Active; 'I' for Inactive)
REMARK    1  A    between atoms: C_4  and  C_7
REMARK    2  A    between atoms: C_7  and  C_8
REMARK    3  A    between atoms: C_9  and  C_10
REMARK                            x       y       z     vdW  Elec       q    Type
REMARK                         _______ _______ _______ _____ _____    ______ ____
ROOT
ATOM      1  C   UNL     1      89.694  66.006  85.949  0.00  0.00    +0.000 A 
ATOM      2  C   UNL     1      88.437  65.391  85.954  0.00  0.00    +0.000 A 
ATOM      3  C   UNL     1      88.296  64.058  85.573  0.00  0.00    +0.000 A 
ATOM      4  C   UNL     1      89.407  63.325  85.184  0.00  0.00    +0.000 A 
ATOM      5  C   UNL     1      90.660  63.921  85.172  0.00  0.00    +0.000 A 
ATOM      6  C   UNL     1      90.804  65.252  85.553  0.00  0.00    +0.000 A 
ATOM      7  F   UNL     1      92.024  65.810  85.530  0.00  0.00    +0.000 F 
ATOM      8  F   UNL     1      91.735  63.215  84.791  0.00  0.00    +0.000 F 
ATOM      9  F   UNL     1      89.270  62.043  84.814  0.00  0.00    +0.000 F 
ATOM     10  F   UNL     1      87.084  63.486  85.580  0.00  0.00    +0.000 F 
ATOM     11  F   UNL     1      87.349  66.084  86.318  0.00  0.00    +0.000 F 
ENDROOT
BRANCH   1  13
ATOM     12  C   UNL     1      89.708  68.413  85.485  0.00  0.00    +0.000 C 
ATOM     13  C   UNL     1      89.840  67.403  86.358  0.00  0.00    +0.000 C 
BRANCH  12  14
ATOM     14  C   UNL     1      89.876  69.861  85.855  0.00  0.00    +0.000 C 
BRANCH  14  18
ATOM     15  C   UNL     1      86.609  71.326  88.269  0.00  0.00    +0.000 A 
ATOM     16  C   UNL     1      86.477  71.258  86.884  0.00  0.00    +0.000 A 
ATOM     17  C   UNL     1      87.533  70.789  86.101  0.00  0.00    +0.000 A 
ATOM     18  C   UNL     1      88.735  70.381  86.699  0.00  0.00    +0.000 A 
ATOM     19  C   UNL     1      88.854  70.451  88.095  0.00  0.00    +0.000 A 
ATOM     20  C   UNL     1      87.797  70.923  88.875  0.00  0.00    +0.000 A 
ENDBRANCH  14  18
ENDBRANCH  12  14
ENDBRANCH   1  13
TORSDOF 3
ENDMDL
