REMARK  Name = *****
REMARK  2 active torsions:
REMARK  status: ('A' for Active; 'I' for Inactive)
REMARK    1  A    between atoms: C_1  and  C_2
REMARK    2  A    between atoms: C_9  and  C_11
REMARK                            x       y       z     vdW  Elec       q    Type
REMARK                         _______ _______ _______ _____ _____    ______ ____
ROOT
ATOM      1  C   UNL     1       1.873  -2.120   0.064  0.00  0.00    +0.000 C 
ATOM      2  C   UNL     1       1.246  -0.759   0.024  0.00  0.00    +0.000 A 
ATOM      3  C   UNL     1      -0.145  -0.547   0.005  0.00  0.00    +0.000 A 
ATOM      4  C   UNL     1      -0.636   0.745  -0.034  0.00  0.00    +0.000 A 
ATOM      5  C   UNL     1       0.143   1.894  -0.056  0.00  0.00    +0.000 A 
ATOM      6  C   UNL     1       1.525   1.685  -0.037  0.00  0.00    +0.000 A 
ATOM      7  C   UNL     1       2.065   0.392   0.002  0.00  0.00    +0.000 A 
ATOM      8  O   UNL     1      -1.996   0.677  -0.045  0.00  0.00    +0.000 OA
ATOM      9  C   UNL     1      -2.276  -0.672  -0.013  0.00  0.00    +0.000 A 
ATOM     10  N   UNL     1      -1.193  -1.435   0.018  0.00  0.00    +0.000 NA
ENDROOT
BRANCH   9  11
ATOM     11  C   UNL     1      -3.610  -1.209  -0.013  0.00  0.00    +0.000 A 
ATOM     12  C   UNL     1      -3.967  -2.544   0.026  0.00  0.00    +0.000 A 
ATOM     13  C   UNL     1      -5.380  -2.734   0.014  0.00  0.00    +0.000 A 
ATOM     14  C   UNL     1      -6.057  -1.537  -0.033  0.00  0.00    +0.000 A 
ATOM     15  S   UNL     1      -4.993  -0.198  -0.063  0.00  0.00    +0.000 S 
ENDBRANCH   9  11
TORSDOF 1
