MODEL 1
REMARK VINA RESULT:      -5.2      0.000      0.000
REMARK  Name = *****
REMARK  3 active torsions:
REMARK  status: ('A' for Active; 'I' for Inactive)
REMARK    1  A    between atoms: C_3  and  C_9
REMARK    2  A    between atoms: C_5  and  C_7
REMARK    3  A    between atoms: C_10  and  C_11
REMARK                            x       y       z     vdW  Elec       q    Type
REMARK                         _______ _______ _______ _____ _____    ______ ____
ROOT
ATOM      1  C   UNL     1     103.063 126.189  81.290  0.00  0.00    +0.000 C 
ATOM      2  C   UNL     1     102.022 125.934  82.100  0.00  0.00    +0.000 C 
ENDROOT
BRANCH   2   3
ATOM      3  C   UNL     1     101.069 126.957  82.555  0.00  0.00    +0.000 A 
ATOM      4  C   UNL     1      99.682 126.804  82.422  0.00  0.00    +0.000 A 
ATOM      5  C   UNL     1      98.820 127.790  82.899  0.00  0.00    +0.000 A 
ATOM      6  C   UNL     1      99.305 128.930  83.521  0.00  0.00    +0.000 A 
ATOM      7  C   UNL     1     100.675 129.073  83.668  0.00  0.00    +0.000 A 
ATOM      8  C   UNL     1     101.558 128.101  83.199  0.00  0.00    +0.000 A 
ATOM      9  F   UNL     1     101.163 130.163  84.274  0.00  0.00    +0.000 F 
ATOM     10  F   UNL     1      97.498 127.628  82.760  0.00  0.00    +0.000 F 
ENDBRANCH   2   3
BRANCH   1  13
ATOM     11  C   UNL     1     105.022 122.951  80.999  0.00  0.00    +0.000 A 
ATOM     12  C   UNL     1     104.116 123.909  81.463  0.00  0.00    +0.000 A 
ATOM     13  C   UNL     1     104.026 125.169  80.851  0.00  0.00    +0.000 A 
ATOM     14  C   UNL     1     104.841 125.440  79.746  0.00  0.00    +0.000 A 
ATOM     15  C   UNL     1     105.747 124.479  79.284  0.00  0.00    +0.000 A 
ATOM     16  C   UNL     1     105.843 123.234  79.909  0.00  0.00    +0.000 A 
BRANCH  15  17
ATOM     17  C   UNL     1     106.610 124.773  78.122  0.00  0.00    +0.000 C 
ATOM     18  O   UNL     1     106.275 124.503  76.976  0.00  0.00    +0.000 OA
ENDBRANCH  15  17
ENDBRANCH   1  13
TORSDOF 3
ENDMDL
