REMARK  Name = *****
REMARK  2 active torsions:
REMARK  status: ('A' for Active; 'I' for Inactive)
REMARK    1  A    between atoms: C_8  and  S_9
REMARK    2  A    between atoms: S_9  and  C_10
REMARK                            x       y       z     vdW  Elec       q    Type
REMARK                         _______ _______ _______ _____ _____    ______ ____
ROOT
ATOM      1  C   UNL     1       1.016  -0.880  -1.151  0.00  0.00    +0.000 C 
ATOM      2  C   UNL     1       1.390   0.162  -0.081  0.00  0.00    +0.000 C 
ATOM      3  C   UNL     1       0.587  -0.222   1.184  0.00  0.00    +0.000 C 
ATOM      4  C   UNL     1       0.402  -1.733   0.981  0.00  0.00    +0.000 C 
ATOM      5  C   UNL     1      -0.048  -1.761  -0.484  0.00  0.00    +0.000 C 
ATOM      6  C   UNL     1      -1.402  -1.100  -0.621  0.00  0.00    +0.000 C 
ATOM      7  C   UNL     1      -1.746  -0.066   0.167  0.00  0.00    +0.000 C 
ATOM      8  C   UNL     1      -0.795   0.495   1.204  0.00  0.00    +0.000 C 
ENDROOT
BRANCH   8   9
ATOM      9  S   UNL     1      -1.583   0.289   2.857  0.00  0.00    +0.000 S 
BRANCH   9  10
ATOM     10  C   UNL     1      -1.722   1.995   3.352  0.00  0.00    +0.000 A 
ATOM     11  C   UNL     1      -2.582   2.873   2.684  0.00  0.00    +0.000 A 
ATOM     12  C   UNL     1      -2.685   4.204   3.092  0.00  0.00    +0.000 A 
ATOM     13  C   UNL     1      -1.937   4.662   4.175  0.00  0.00    +0.000 A 
ATOM     14  C   UNL     1      -1.088   3.789   4.853  0.00  0.00    +0.000 A 
ATOM     15  C   UNL     1      -0.984   2.457   4.445  0.00  0.00    +0.000 A 
ENDBRANCH   9  10
ENDBRANCH   8   9
TORSDOF 2
