REMARK  Name = *****
REMARK  4 active torsions:
REMARK  status: ('A' for Active; 'I' for Inactive)
REMARK    1  A    between atoms: C_1  and  S_2
REMARK    2  A    between atoms: S_2  and  C_3
REMARK    3  A    between atoms: C_6  and  C_9
REMARK    4  A    between atoms: C_10  and  C_11
REMARK                            x       y       z     vdW  Elec       q    Type
REMARK                         _______ _______ _______ _____ _____    ______ ____
ROOT
ATOM      1  C   UNL     1       3.376  -1.201  -1.109  0.00  0.00    +0.000 A 
ATOM      2  C   UNL     1       3.154  -2.539  -0.769  0.00  0.00    +0.000 A 
ATOM      3  C   UNL     1       3.407  -3.555  -1.696  0.00  0.00    +0.000 A 
ATOM      4  C   UNL     1       3.876  -3.238  -2.972  0.00  0.00    +0.000 A 
ATOM      5  C   UNL     1       4.087  -1.903  -3.321  0.00  0.00    +0.000 A 
ATOM      6  C   UNL     1       3.832  -0.888  -2.393  0.00  0.00    +0.000 A 
ENDROOT
BRANCH   1   8
ATOM      7  C   UNL     1       4.133  -0.371   1.404  0.00  0.00    +0.000 C 
ATOM      8  S   UNL     1       3.047   0.123   0.040  0.00  0.00    +0.000 S 
ENDBRANCH   1   8
BRANCH   4   9
ATOM      9  C   UNL     1       4.133  -4.276  -3.921  0.00  0.00    +0.000 C 
ATOM     10  C   UNL     1       4.346  -5.146  -4.722  0.00  0.00    +0.000 C 
BRANCH  10  11
ATOM     11  C   UNL     1       4.599  -6.179  -5.678  0.00  0.00    +0.000 A 
ATOM     12  C   UNL     1       5.148  -5.861  -6.923  0.00  0.00    +0.000 A 
ATOM     13  C   UNL     1       5.393  -6.870  -7.857  0.00  0.00    +0.000 A 
ATOM     14  C   UNL     1       5.089  -8.195  -7.548  0.00  0.00    +0.000 A 
ATOM     15  C   UNL     1       4.541  -8.515  -6.306  0.00  0.00    +0.000 A 
ATOM     16  C   UNL     1       4.296  -7.507  -5.371  0.00  0.00    +0.000 A 
ENDBRANCH  10  11
ENDBRANCH   4   9
TORSDOF 3
