MODEL 1
REMARK VINA RESULT:      -4.5      0.000      0.000
REMARK  Name = *****
REMARK  5 active torsions:
REMARK  status: ('A' for Active; 'I' for Inactive)
REMARK    1  A    between atoms: C_1  and  C_2
REMARK    2  A    between atoms: C_5  and  C_7
REMARK    3  A    between atoms: C_7  and  C_8
REMARK    4  A    between atoms: C_9  and  C_10
REMARK    5  A    between atoms: C_15  and  O_16
REMARK                            x       y       z     vdW  Elec       q    Type
REMARK                         _______ _______ _______ _____ _____    ______ ____
ROOT
ATOM      1  C   UNL     1     103.520 125.807  81.541  0.00  0.00    +0.000 C 
ATOM      2  C   UNL     1     102.186 125.918  81.646  0.00  0.00    +0.000 C 
ENDROOT
BRANCH   2   3
ATOM      3  C   UNL     1     101.489 126.967  82.412  0.00  0.00    +0.000 A 
ATOM      4  C   UNL     1     102.201 127.944  83.123  0.00  0.00    +0.000 A 
ATOM      5  C   UNL     1     101.532 128.916  83.872  0.00  0.00    +0.000 A 
ATOM      6  C   UNL     1     100.140 128.918  83.931  0.00  0.00    +0.000 A 
ATOM      7  C   UNL     1      99.413 127.944  83.248  0.00  0.00    +0.000 A 
ATOM      8  C   UNL     1     100.087 126.974  82.501  0.00  0.00    +0.000 A 
BRANCH   8   9
ATOM      9  O   UNL     1      99.365 126.015  81.838  0.00  0.00    +0.000 OA
ATOM     10  H   UNL     1      99.504 125.109  82.029  0.00  0.00    +0.000 HD
ENDBRANCH   8   9
ENDBRANCH   2   3
BRANCH   1  11
ATOM     11  C   UNL     1     104.211 124.737  80.741  0.00  0.00    +0.000 C 
BRANCH  11  16
ATOM     12  C   UNL     1     105.376 119.704  82.123  0.00  0.00    +0.000 C 
ATOM     13  C   UNL     1     104.993 121.143  82.151  0.00  0.00    +0.000 A 
ATOM     14  C   UNL     1     104.660 121.922  83.240  0.00  0.00    +0.000 A 
ATOM     15  C   UNL     1     104.350 123.262  82.869  0.00  0.00    +0.000 A 
ATOM     16  C   UNL     1     104.455 123.467  81.508  0.00  0.00    +0.000 A 
ATOM     17  S   UNL     1     104.929 122.037  80.694  0.00  0.00    +0.000 S 
ENDBRANCH  11  16
ENDBRANCH   1  11
TORSDOF 4
ENDMDL
