REMARK  Name = *****
REMARK  4 active torsions:
REMARK  status: ('A' for Active; 'I' for Inactive)
REMARK    1  A    between atoms: C_1  and  C_2
REMARK    2  A    between atoms: C_2  and  C_3
REMARK    3  A    between atoms: C_2  and  O_9
REMARK    4  A    between atoms: O_9  and  C_10
REMARK                            x       y       z     vdW  Elec       q    Type
REMARK                         _______ _______ _______ _____ _____    ______ ____
ROOT
ATOM      1  C   UNL     1       3.062  -1.468   0.250  0.00  0.00    +0.000 C 
ATOM      2  C   UNL     1       2.592  -0.020   0.097  0.00  0.00    +0.000 C 
ENDROOT
BRANCH   2   3
ATOM      3  C   UNL     1       1.074   0.022  -0.002  0.00  0.00    +0.000 A 
ATOM      4  C   UNL     1       0.409  -0.358  -1.180  0.00  0.00    +0.000 A 
ATOM      5  C   UNL     1      -0.985  -0.336  -1.250  0.00  0.00    +0.000 A 
ATOM      6  C   UNL     1      -1.733   0.064  -0.145  0.00  0.00    +0.000 A 
ATOM      7  C   UNL     1      -1.089   0.442   1.031  0.00  0.00    +0.000 A 
ATOM      8  C   UNL     1       0.306   0.419   1.104  0.00  0.00    +0.000 A 
ENDBRANCH   2   3
BRANCH   2   9
ATOM      9  O   UNL     1       3.133   0.548  -1.102  0.00  0.00    +0.000 OA
BRANCH   9  10
ATOM     10  C   UNL     1       4.351   1.165  -1.067  0.00  0.00    +0.000 A 
ATOM     11  C   UNL     1       5.245   1.181   0.004  0.00  0.00    +0.000 A 
ATOM     12  C   UNL     1       6.468   1.852  -0.110  0.00  0.00    +0.000 A 
ATOM     13  C   UNL     1       6.798   2.505  -1.296  0.00  0.00    +0.000 A 
ATOM     14  C   UNL     1       5.916   2.492  -2.372  0.00  0.00    +0.000 A 
ATOM     15  C   UNL     1       4.697   1.820  -2.254  0.00  0.00    +0.000 A 
ATOM     16 CL   UNL     1       8.303   3.327  -1.431  0.00  0.00    +0.000 Cl
ENDBRANCH   9  10
ENDBRANCH   2   9
TORSDOF 3
