REMARK  Name = *****
REMARK  4 active torsions:
REMARK  status: ('A' for Active; 'I' for Inactive)
REMARK    1  A    between atoms: C_1  and  O_2
REMARK    2  A    between atoms: O_2  and  C_3
REMARK    3  A    between atoms: C_8  and  C_9
REMARK    4  A    between atoms: C_10  and  C_11
REMARK                            x       y       z     vdW  Elec       q    Type
REMARK                         _______ _______ _______ _____ _____    ______ ____
ROOT
ATOM      1  C   UNL     1       5.071   0.914   1.513  0.00  0.00    +0.000 A 
ATOM      2  C   UNL     1       4.620   0.677   2.818  0.00  0.00    +0.000 A 
ATOM      3  C   UNL     1       3.267   0.814   3.138  0.00  0.00    +0.000 A 
ATOM      4  C   UNL     1       2.354   1.194   2.162  0.00  0.00    +0.000 A 
ATOM      5  C   UNL     1       2.791   1.433   0.859  0.00  0.00    +0.000 A 
ATOM      6  C   UNL     1       4.144   1.284   0.513  0.00  0.00    +0.000 A 
ENDROOT
BRANCH   1   8
ATOM      7  C   UNL     1       7.327   0.370   2.088  0.00  0.00    +0.000 C 
ATOM      8  O   UNL     1       6.384   0.809   1.120  0.00  0.00    +0.000 OA
ENDBRANCH   1   8
BRANCH   6   9
ATOM      9  C   UNL     1       4.595   1.575  -0.862  0.00  0.00    +0.000 C 
ATOM     10  C   UNL     1       3.912   1.248  -1.972  0.00  0.00    +0.000 C 
BRANCH  10  11
ATOM     11  C   UNL     1       4.401   1.546  -3.369  0.00  0.00    +0.000 C 
ATOM     12  C   UNL     1       3.416   2.478  -4.090  0.00  0.00    +0.000 C 
ATOM     13  C   UNL     1       3.849   2.747  -5.530  0.00  0.00    +0.000 C 
ATOM     14  C   UNL     1       4.051   1.450  -6.308  0.00  0.00    +0.000 C 
ATOM     15  C   UNL     1       5.025   0.515  -5.598  0.00  0.00    +0.000 C 
ATOM     16  C   UNL     1       4.596   0.242  -4.158  0.00  0.00    +0.000 C 
ENDBRANCH  10  11
ENDBRANCH   6   9
TORSDOF 3
