REMARK  Name = *****
REMARK  4 active torsions:
REMARK  status: ('A' for Active; 'I' for Inactive)
REMARK    1  A    between atoms: C_1  and  C_2
REMARK    2  A    between atoms: C_2  and  C_4
REMARK    3  A    between atoms: C_7  and  C_10
REMARK    4  A    between atoms: C_11  and  C_12
REMARK                            x       y       z     vdW  Elec       q    Type
REMARK                         _______ _______ _______ _____ _____    ______ ____
ROOT
ATOM      1  C   UNL     1       3.161   1.134   0.837  0.00  0.00    +0.000 A 
ATOM      2  C   UNL     1       2.804   1.490   2.143  0.00  0.00    +0.000 A 
ATOM      3  C   UNL     1       3.440   2.564   2.777  0.00  0.00    +0.000 A 
ATOM      4  C   UNL     1       4.433   3.287   2.113  0.00  0.00    +0.000 A 
ATOM      5  C   UNL     1       4.793   2.936   0.811  0.00  0.00    +0.000 A 
ATOM      6  C   UNL     1       4.160   1.863   0.176  0.00  0.00    +0.000 A 
ENDROOT
BRANCH   1   8
ATOM      7  C   UNL     1       1.414  -0.770   0.799  0.00  0.00    +0.000 C 
ATOM      8  C   UNL     1       2.513  -0.001   0.114  0.00  0.00    +0.000 C 
ATOM      9  O   UNL     1       2.880  -0.293  -1.023  0.00  0.00    +0.000 OA
ENDBRANCH   1   8
BRANCH   4  10
ATOM     10  C   UNL     1       5.076   4.385   2.764  0.00  0.00    +0.000 C 
ATOM     11  C   UNL     1       5.612   5.308   3.315  0.00  0.00    +0.000 C 
BRANCH  11  12
ATOM     12  C   UNL     1       6.244   6.405   3.971  0.00  0.00    +0.000 A 
ATOM     13  C   UNL     1       7.212   7.209   3.409  0.00  0.00    +0.000 A 
ATOM     14  C   UNL     1       7.656   8.226   4.306  0.00  0.00    +0.000 A 
ATOM     15  C   UNL     1       7.008   8.159   5.520  0.00  0.00    +0.000 A 
ATOM     16  S   UNL     1       5.875   6.878   5.572  0.00  0.00    +0.000 S 
ENDBRANCH  11  12
ENDBRANCH   4  10
TORSDOF 3
