MODEL 1
REMARK VINA RESULT:      -4.7      0.000      0.000
REMARK  Name = *****
REMARK  5 active torsions:
REMARK  status: ('A' for Active; 'I' for Inactive)
REMARK    1  A    between atoms: C_1  and  C_2
REMARK    2  A    between atoms: C_4  and  C_16
REMARK    3  A    between atoms: C_5  and  C_9
REMARK    4  A    between atoms: C_6  and  C_8
REMARK    5  A    between atoms: C_10  and  C_11
REMARK                            x       y       z     vdW  Elec       q    Type
REMARK                         _______ _______ _______ _____ _____    ______ ____
ROOT
ATOM      1  C   UNL     1      84.255  72.487  89.689  0.00  0.00    +0.000 C 
ATOM      2  C   UNL     1      85.175  71.971  88.621  0.00  0.00    +0.000 A 
ATOM      3  C   UNL     1      84.884  72.185  87.271  0.00  0.00    +0.000 A 
ATOM      4  C   UNL     1      85.751  71.737  86.261  0.00  0.00    +0.000 A 
ATOM      5  C   UNL     1      86.948  71.078  86.618  0.00  0.00    +0.000 A 
ATOM      6  C   UNL     1      87.254  70.863  87.980  0.00  0.00    +0.000 A 
ATOM      7  C   UNL     1      86.365  71.324  88.965  0.00  0.00    +0.000 A 
ATOM      8  C   UNL     1      88.524  70.177  88.409  0.00  0.00    +0.000 C 
ATOM      9  C   UNL     1      85.389  72.000  84.822  0.00  0.00    +0.000 C 
ENDROOT
BRANCH   5  10
ATOM     10  C   UNL     1      87.882  70.626  85.574  0.00  0.00    +0.000 C 
ATOM     11  C   UNL     1      88.957  71.354  85.238  0.00  0.00    +0.000 C 
BRANCH  11  12
ATOM     12  C   UNL     1      89.915  70.984  84.231  0.00  0.00    +0.000 C 
ATOM     13  C   UNL     1      90.840  71.794  83.713  0.00  0.00    +0.000 C 
ATOM     14  C   UNL     1      91.646  71.068  82.706  0.00  0.00    +0.000 C 
ATOM     15  O   UNL     1      91.120  69.732  82.662  0.00  0.00    +0.000 OA
ATOM     16  C   UNL     1      90.033  69.639  83.604  0.00  0.00    +0.000 C 
ENDBRANCH  11  12
ENDBRANCH   5  10
TORSDOF 2
ENDMDL
