MODEL 1
REMARK VINA RESULT:      -4.5      0.000      0.000
REMARK  Name = *****
REMARK  5 active torsions:
REMARK  status: ('A' for Active; 'I' for Inactive)
REMARK    1  A    between atoms: C_1  and  C_2
REMARK    2  A    between atoms: C_3  and  C_16
REMARK    3  A    between atoms: C_6  and  O_7
REMARK    4  A    between atoms: O_7  and  C_8
REMARK    5  A    between atoms: C_8  and  C_9
REMARK                            x       y       z     vdW  Elec       q    Type
REMARK                         _______ _______ _______ _____ _____    ______ ____
ROOT
ATOM      1  C   UNL     1     101.887 129.317  84.131  0.00  0.00    +0.000 C 
ATOM      2  C   UNL     1     102.107 128.071  83.346  0.00  0.00    +0.000 C 
ATOM      3  C   UNL     1     101.542 126.859  83.495  0.00  0.00    +0.000 C 
ATOM      4  C   UNL     1     102.062 125.880  82.474  0.00  0.00    +0.000 C 
ATOM      5  C   UNL     1     103.019 126.690  81.642  0.00  0.00    +0.000 C 
ATOM      6  C   UNL     1     103.677 126.255  80.563  0.00  0.00    +0.000 C 
ATOM      7  C   UNL     1     103.089 128.083  82.205  0.00  0.00    +0.000 C 
ATOM      8  C   UNL     1     100.531 126.402  84.487  0.00  0.00    +0.000 C 
ENDROOT
BRANCH   6   9
ATOM      9  O   UNL     1     103.559 124.970  80.109  0.00  0.00    +0.000 OA
BRANCH   9  10
ATOM     10  C   UNL     1     104.793 124.249  80.178  0.00  0.00    +0.000 C 
BRANCH  10  11
ATOM     11  C   UNL     1     104.646 123.084  81.128  0.00  0.00    +0.000 A 
ATOM     12  C   UNL     1     104.634 121.766  80.646  0.00  0.00    +0.000 A 
ATOM     13  C   UNL     1     104.532 120.687  81.525  0.00  0.00    +0.000 A 
ATOM     14  C   UNL     1     104.451 120.913  82.898  0.00  0.00    +0.000 A 
ATOM     15  C   UNL     1     104.473 122.216  83.391  0.00  0.00    +0.000 A 
ATOM     16  C   UNL     1     104.574 123.296  82.512  0.00  0.00    +0.000 A 
ENDBRANCH  10  11
ENDBRANCH   9  10
ENDBRANCH   6   9
TORSDOF 3
ENDMDL
