MODEL 1
REMARK VINA RESULT:      -4.5      0.000      0.000
REMARK  Name = *****
REMARK  3 active torsions:
REMARK  status: ('A' for Active; 'I' for Inactive)
REMARK    1  A    between atoms: C_5  and  C_7
REMARK    2  A    between atoms: C_7  and  O_9
REMARK    3  A    between atoms: O_9  and  C_10
REMARK                            x       y       z     vdW  Elec       q    Type
REMARK                         _______ _______ _______ _____ _____    ______ ____
ROOT
ATOM      1  C   UNL     1     101.860 125.957  82.736  0.00  0.00    +0.000 C 
ATOM      2  O   UNL     1     102.355 125.318  83.655  0.00  0.00    +0.000 OA
ENDROOT
BRANCH   1   7
ATOM      3  C   UNL     1     100.542 129.276  83.928  0.00  0.00    +0.000 A 
ATOM      4  C   UNL     1      99.225 129.253  83.468  0.00  0.00    +0.000 A 
ATOM      5  C   UNL     1      98.753 128.144  82.767  0.00  0.00    +0.000 A 
ATOM      6  C   UNL     1      99.599 127.063  82.519  0.00  0.00    +0.000 A 
ATOM      7  C   UNL     1     100.922 127.078  82.963  0.00  0.00    +0.000 A 
ATOM      8  C   UNL     1     101.387 128.192  83.679  0.00  0.00    +0.000 A 
ATOM      9  F   UNL     1      99.091 126.011  81.862  0.00  0.00    +0.000 F 
ENDBRANCH   1   7
BRANCH   1  10
ATOM     10  O   UNL     1     102.131 125.822  81.390  0.00  0.00    +0.000 OA
BRANCH  10  11
ATOM     11  C   UNL     1     103.404 126.292  81.054  0.00  0.00    +0.000 A 
ATOM     12  C   UNL     1     103.558 127.658  80.811  0.00  0.00    +0.000 A 
ATOM     13  C   UNL     1     104.809 128.150  80.439  0.00  0.00    +0.000 A 
ATOM     14  C   UNL     1     105.891 127.277  80.298  0.00  0.00    +0.000 A 
ATOM     15  C   UNL     1     105.725 125.907  80.524  0.00  0.00    +0.000 A 
ATOM     16  C   UNL     1     104.477 125.409  80.898  0.00  0.00    +0.000 A 
ATOM     17 CL   UNL     1     104.293 123.712  81.141  0.00  0.00    +0.000 Cl
ENDBRANCH  10  11
ENDBRANCH   1  10
TORSDOF 3
ENDMDL
