MODEL 1
REMARK VINA RESULT:      -4.7      0.000      0.000
REMARK  Name = *****
REMARK  3 active torsions:
REMARK  status: ('A' for Active; 'I' for Inactive)
REMARK    1  A    between atoms: C_4  and  C_7
REMARK    2  A    between atoms: C_7  and  C_8
REMARK    3  A    between atoms: C_8  and  C_9
REMARK                            x       y       z     vdW  Elec       q    Type
REMARK                         _______ _______ _______ _____ _____    ______ ____
ROOT
ATOM      1  C   UNL     1      88.658  70.248  86.220  0.00  0.00    +0.000 C 
ATOM      2 BR   UNL     1      90.064  70.883  84.989  0.00  0.00    +0.000 Br
ENDROOT
BRANCH   1   3
ATOM      3  C   UNL     1      88.763  68.751  86.462  0.00  0.00    +0.000 A 
ATOM      4  C   UNL     1      89.938  68.058  86.102  0.00  0.00    +0.000 A 
ATOM      5  C   UNL     1      90.080  66.689  86.346  0.00  0.00    +0.000 A 
ATOM      6  C   UNL     1      89.054  65.997  86.972  0.00  0.00    +0.000 A 
ATOM      7  C   UNL     1      87.898  66.652  87.368  0.00  0.00    +0.000 A 
ATOM      8  C   UNL     1      87.758  68.022  87.124  0.00  0.00    +0.000 A 
ATOM      9  F   UNL     1      89.187  64.685  87.209  0.00  0.00    +0.000 F 
ENDBRANCH   1   3
BRANCH   1  10
ATOM     10  C   UNL     1      87.306  70.870  85.810  0.00  0.00    +0.000 C 
BRANCH  10  14
ATOM     11  C   UNL     1      84.347  72.416  88.578  0.00  0.00    +0.000 A 
ATOM     12  C   UNL     1      84.164  72.502  87.202  0.00  0.00    +0.000 A 
ATOM     13  C   UNL     1      85.134  71.992  86.337  0.00  0.00    +0.000 A 
ATOM     14  C   UNL     1      86.305  71.386  86.830  0.00  0.00    +0.000 A 
ATOM     15  C   UNL     1      86.468  71.309  88.219  0.00  0.00    +0.000 A 
ATOM     16  C   UNL     1      85.497  71.819  89.085  0.00  0.00    +0.000 A 
ENDBRANCH  10  14
ENDBRANCH   1  10
TORSDOF 3
ENDMDL
