REMARK  Name = *****
REMARK  4 active torsions:
REMARK  status: ('A' for Active; 'I' for Inactive)
REMARK    1  A    between atoms: C_1  and  O_2
REMARK    2  A    between atoms: O_2  and  C_3
REMARK    3  A    between atoms: C_7  and  C_9
REMARK    4  A    between atoms: C_10  and  C_11
REMARK                            x       y       z     vdW  Elec       q    Type
REMARK                         _______ _______ _______ _____ _____    ______ ____
ROOT
ATOM      1  C   UNL     1       6.391   2.514  -1.484  0.00  0.00    +0.000 C 
ATOM      2  C   UNL     1       7.306   3.495  -1.402  0.00  0.00    +0.000 C 
ENDROOT
BRANCH   2   3
ATOM      3  C   UNL     1       8.618   3.482  -2.073  0.00  0.00    +0.000 A 
ATOM      4  C   UNL     1       8.843   2.809  -3.283  0.00  0.00    +0.000 A 
ATOM      5  C   UNL     1      10.099   2.848  -3.899  0.00  0.00    +0.000 A 
ATOM      6  C   UNL     1      11.144   3.570  -3.323  0.00  0.00    +0.000 A 
ATOM      7  C   UNL     1      10.931   4.259  -2.133  0.00  0.00    +0.000 A 
ATOM      8  C   UNL     1       9.678   4.216  -1.523  0.00  0.00    +0.000 A 
ATOM      9  F   UNL     1       9.506   4.901  -0.381  0.00  0.00    +0.000 F 
ENDBRANCH   2   3
BRANCH   1  14
ATOM     10  C   UNL     1       3.305   1.295   0.311  0.00  0.00    +0.000 A 
ATOM     11  C   UNL     1       2.590   2.479   0.485  0.00  0.00    +0.000 A 
ATOM     12  C   UNL     1       3.114   3.686   0.018  0.00  0.00    +0.000 A 
ATOM     13  C   UNL     1       4.356   3.716  -0.620  0.00  0.00    +0.000 A 
ATOM     14  C   UNL     1       5.095   2.539  -0.789  0.00  0.00    +0.000 A 
ATOM     15  C   UNL     1       4.549   1.332  -0.330  0.00  0.00    +0.000 A 
BRANCH  10  17
ATOM     16  C   UNL     1       1.658  -0.042   1.385  0.00  0.00    +0.000 C 
ATOM     17  O   UNL     1       2.906   0.048   0.710  0.00  0.00    +0.000 OA
ENDBRANCH  10  17
ENDBRANCH   1  14
TORSDOF 3
