REMARK  Name = *****
REMARK  3 active torsions:
REMARK  status: ('A' for Active; 'I' for Inactive)
REMARK    1  A    between atoms: C_5  and  O_7
REMARK    2  A    between atoms: O_7  and  C_8
REMARK    3  A    between atoms: C_8  and  C_9
REMARK                            x       y       z     vdW  Elec       q    Type
REMARK                         _______ _______ _______ _____ _____    ______ ____
ROOT
ATOM      1  O   UNL     1       0.866  -2.373   0.137  0.00  0.00    +0.000 OA
ENDROOT
BRANCH   1   6
ATOM      2  C   UNL     1      -1.912  -0.042   0.164  0.00  0.00    +0.000 A 
ATOM      3  C   UNL     1      -1.297   1.192  -0.038  0.00  0.00    +0.000 A 
ATOM      4  C   UNL     1       0.087   1.257  -0.187  0.00  0.00    +0.000 A 
ATOM      5  C   UNL     1       0.851   0.091  -0.136  0.00  0.00    +0.000 A 
ATOM      6  C   UNL     1       0.249  -1.154   0.065  0.00  0.00    +0.000 A 
ATOM      7  C   UNL     1      -1.141  -1.207   0.216  0.00  0.00    +0.000 A 
ATOM      8  F   UNL     1       2.178   0.213  -0.283  0.00  0.00    +0.000 F 
ENDBRANCH   1   6
BRANCH   1   9
ATOM      9  C   UNL     1       2.283  -2.399  -0.036  0.00  0.00    +0.000 C 
BRANCH   9  10
ATOM     10  C   UNL     1       2.757  -3.835   0.031  0.00  0.00    +0.000 A 
ATOM     11  C   UNL     1       2.140  -4.827  -0.747  0.00  0.00    +0.000 A 
ATOM     12  C   UNL     1       2.594  -6.148  -0.706  0.00  0.00    +0.000 A 
ATOM     13  C   UNL     1       3.673  -6.482   0.108  0.00  0.00    +0.000 A 
ATOM     14  C   UNL     1       4.303  -5.508   0.879  0.00  0.00    +0.000 A 
ATOM     15  C   UNL     1       3.849  -4.187   0.838  0.00  0.00    +0.000 A 
ATOM     16 CL   UNL     1       4.234  -8.108   0.158  0.00  0.00    +0.000 Cl
ENDBRANCH   9  10
ENDBRANCH   1   9
TORSDOF 3
