MODEL 1
REMARK VINA RESULT:      -5.1      0.000      0.000
REMARK  Name = *****
REMARK  2 active torsions:
REMARK  status: ('A' for Active; 'I' for Inactive)
REMARK    1  A    between atoms: C_10  and  C_11
REMARK    2  A    between atoms: C_11  and  C_12
REMARK                            x       y       z     vdW  Elec       q    Type
REMARK                         _______ _______ _______ _____ _____    ______ ____
ROOT
ATOM      1  C   UNL     1      86.173  71.488  86.584  0.00  0.00    +0.000 C 
ATOM      2  C   UNL     1      84.937  71.873  87.348  0.00  0.00    +0.000 C 
ATOM      3  C   UNL     1      84.953  72.041  88.677  0.00  0.00    +0.000 C 
ATOM      4  C   UNL     1      86.204  71.875  89.425  0.00  0.00    +0.000 A 
ATOM      5  C   UNL     1      86.305  72.341  90.740  0.00  0.00    +0.000 A 
ATOM      6  C   UNL     1      87.498  72.190  91.451  0.00  0.00    +0.000 A 
ATOM      7  C   UNL     1      88.593  71.568  90.855  0.00  0.00    +0.000 A 
ATOM      8  C   UNL     1      88.501  71.089  89.548  0.00  0.00    +0.000 A 
ATOM      9  C   UNL     1      87.308  71.238  88.825  0.00  0.00    +0.000 A 
ATOM     10  C   UNL     1      87.177  70.659  87.421  0.00  0.00    +0.000 C 
ENDROOT
BRANCH  10  11
ATOM     11  C   UNL     1      86.779  69.167  87.529  0.00  0.00    +0.000 C 
BRANCH  11  12
ATOM     12  C   UNL     1      87.879  68.202  87.149  0.00  0.00    +0.000 A 
ATOM     13  C   UNL     1      87.744  66.829  87.395  0.00  0.00    +0.000 A 
ATOM     14  C   UNL     1      88.766  65.944  87.045  0.00  0.00    +0.000 A 
ATOM     15  C   UNL     1      89.929  66.423  86.444  0.00  0.00    +0.000 A 
ATOM     16  C   UNL     1      90.070  67.784  86.188  0.00  0.00    +0.000 A 
ATOM     17  C   UNL     1      89.050  68.671  86.538  0.00  0.00    +0.000 A 
ENDBRANCH  11  12
ENDBRANCH  10  11
TORSDOF 2
ENDMDL
