MODEL 1
REMARK VINA RESULT:      -4.8      0.000      0.000
REMARK  Name = *****
REMARK  5 active torsions:
REMARK  status: ('A' for Active; 'I' for Inactive)
REMARK    1  A    between atoms: C_1  and  C_2
REMARK    2  A    between atoms: C_2  and  O_4
REMARK    3  A    between atoms: O_4  and  C_5
REMARK    4  A    between atoms: C_5  and  C_13
REMARK    5  A    between atoms: C_6  and  C_7
REMARK                            x       y       z     vdW  Elec       q    Type
REMARK                         _______ _______ _______ _____ _____    ______ ____
ROOT
ATOM      1  C   UNL     1     102.691 126.025  81.800  0.00  0.00    +0.000 C 
ATOM      2  C   UNL     1     101.723 126.003  82.735  0.00  0.00    +0.000 C 
ENDROOT
BRANCH   2   3
ATOM      3  C   UNL     1     100.804 127.118  82.963  0.00  0.00    +0.000 A 
ATOM      4  C   UNL     1     101.227 128.244  83.677  0.00  0.00    +0.000 A 
ATOM      5  C   UNL     1     100.345 129.302  83.906  0.00  0.00    +0.000 A 
ATOM      6  C   UNL     1      99.038 129.238  83.423  0.00  0.00    +0.000 A 
ATOM      7  C   UNL     1      98.611 128.116  82.712  0.00  0.00    +0.000 A 
ATOM      8  C   UNL     1      99.493 127.057  82.483  0.00  0.00    +0.000 A 
ENDBRANCH   2   3
BRANCH   1   9
ATOM      9  C   UNL     1     103.645 124.915  81.628  0.00  0.00    +0.000 A 
ATOM     10  C   UNL     1     104.169 124.601  80.366  0.00  0.00    +0.000 A 
ATOM     11  C   UNL     1     105.083 123.554  80.216  0.00  0.00    +0.000 A 
ATOM     12  C   UNL     1     105.483 122.814  81.327  0.00  0.00    +0.000 A 
ATOM     13  C   UNL     1     104.977 123.121  82.587  0.00  0.00    +0.000 A 
ATOM     14  C   UNL     1     104.065 124.169  82.738  0.00  0.00    +0.000 A 
ENDBRANCH   1   9
BRANCH   1  15
ATOM     15  O   UNL     1     102.937 127.153  81.003  0.00  0.00    +0.000 OA
BRANCH  15  17
ATOM     16  C   UNL     1     104.621 128.584  80.240  0.00  0.00    +0.000 C 
ATOM     17  C   UNL     1     104.030 127.871  81.420  0.00  0.00    +0.000 C 
ATOM     18  O   UNL     1     104.483 127.946  82.556  0.00  0.00    +0.000 OA
ENDBRANCH  15  17
ENDBRANCH   1  15
TORSDOF 4
ENDMDL
