MODEL 1
REMARK VINA RESULT:      -5.1      0.000      0.000
REMARK  Name = *****
REMARK  2 active torsions:
REMARK  status: ('A' for Active; 'I' for Inactive)
REMARK    1  A    between atoms: C_6  and  C_11
REMARK    2  A    between atoms: C_11  and  C_12
REMARK                            x       y       z     vdW  Elec       q    Type
REMARK                         _______ _______ _______ _____ _____    ______ ____
ROOT
ATOM      1  C   UNL     1      90.055  64.192  85.935  0.00  0.00    +0.000 C 
ATOM      2  C   UNL     1      88.758  64.221  86.740  0.00  0.00    +0.000 C 
ATOM      3  C   UNL     1      88.517  65.501  87.539  0.00  0.00    +0.000 C 
ATOM      4  C   UNL     1      88.286  66.729  86.656  0.00  0.00    +0.000 C 
ATOM      5  C   UNL     1      87.738  67.886  87.457  0.00  0.00    +0.000 C 
ATOM      6  C   UNL     1      88.549  68.953  87.353  0.00  0.00    +0.000 C 
ATOM      7  C   UNL     1      89.675  68.600  86.518  0.00  0.00    +0.000 C 
ATOM      8  C   UNL     1      89.558  67.327  86.105  0.00  0.00    +0.000 C 
ATOM      9  C   UNL     1      90.523  66.609  85.225  0.00  0.00    +0.000 C 
ATOM     10  C   UNL     1      90.113  65.202  84.789  0.00  0.00    +0.000 C 
ENDROOT
BRANCH   6  11
ATOM     11  C   UNL     1      88.389  70.295  87.994  0.00  0.00    +0.000 C 
BRANCH  11  12
ATOM     12  C   UNL     1      87.082  70.985  87.671  0.00  0.00    +0.000 A 
ATOM     13  C   UNL     1      86.234  71.428  88.696  0.00  0.00    +0.000 A 
ATOM     14  C   UNL     1      85.038  72.085  88.397  0.00  0.00    +0.000 A 
ATOM     15  C   UNL     1      84.681  72.312  87.069  0.00  0.00    +0.000 A 
ATOM     16  C   UNL     1      85.518  71.882  86.041  0.00  0.00    +0.000 A 
ATOM     17  C   UNL     1      86.712  71.221  86.338  0.00  0.00    +0.000 A 
ENDBRANCH  11  12
ENDBRANCH   6  11
TORSDOF 2
ENDMDL
