REMARK  Name = *****
REMARK  4 active torsions:
REMARK  status: ('A' for Active; 'I' for Inactive)
REMARK    1  A    between atoms: C_1  and  C_2
REMARK    2  A    between atoms: C_7  and  C_8
REMARK    3  A    between atoms: C_8  and  C_9
REMARK    4  A    between atoms: C_9  and  C_10
REMARK                            x       y       z     vdW  Elec       q    Type
REMARK                         _______ _______ _______ _____ _____    ______ ____
ROOT
ATOM      1  C   UNL     1       2.551  -2.380  -0.147  0.00  0.00    +0.000 C 
ATOM      2  F   UNL     1       2.912  -1.779  -1.325  0.00  0.00    +0.000 F 
ENDROOT
BRANCH   1   3
ATOM      3  C   UNL     1       3.188  -3.750  -0.006  0.00  0.00    +0.000 A 
ATOM      4  C   UNL     1       3.900  -4.311  -1.079  0.00  0.00    +0.000 A 
ATOM      5  C   UNL     1       4.490  -5.570  -0.961  0.00  0.00    +0.000 A 
ATOM      6  C   UNL     1       4.369  -6.273   0.231  0.00  0.00    +0.000 A 
ATOM      7  C   UNL     1       3.673  -5.737   1.308  0.00  0.00    +0.000 A 
ATOM      8  C   UNL     1       3.087  -4.475   1.194  0.00  0.00    +0.000 A 
ATOM      9  F   UNL     1       4.931  -7.483   0.344  0.00  0.00    +0.000 F 
ENDBRANCH   1   3
BRANCH   1  10
ATOM     10  C   UNL     1       1.017  -2.458  -0.106  0.00  0.00    +0.000 C 
BRANCH  10  17
ATOM     11  C   UNL     1       0.362  -0.937   2.433  0.00  0.00    +0.000 C 
ATOM     12  C   UNL     1       0.072  -0.377   1.067  0.00  0.00    +0.000 A 
ATOM     13  C   UNL     1      -0.532   0.888   0.971  0.00  0.00    +0.000 A 
ATOM     14  C   UNL     1      -0.831   1.449  -0.271  0.00  0.00    +0.000 A 
ATOM     15  C   UNL     1      -0.531   0.753  -1.436  0.00  0.00    +0.000 A 
ATOM     16  C   UNL     1       0.063  -0.505  -1.358  0.00  0.00    +0.000 A 
ATOM     17  C   UNL     1       0.364  -1.089  -0.114  0.00  0.00    +0.000 A 
ENDBRANCH  10  17
ENDBRANCH   1  10
TORSDOF 3
