MODEL 1
REMARK VINA RESULT:      -4.6      0.000      0.000
REMARK  Name = *****
REMARK  6 active torsions:
REMARK  status: ('A' for Active; 'I' for Inactive)
REMARK    1  A    between atoms: C_1  and  C_2
REMARK    2  A    between atoms: C_3  and  C_17
REMARK    3  A    between atoms: C_4  and  C_15
REMARK    4  A    between atoms: C_4  and  C_16
REMARK    5  A    between atoms: N_7  and  C_8
REMARK    6  A    between atoms: C_8  and  C_9
REMARK                            x       y       z     vdW  Elec       q    Type
REMARK                         _______ _______ _______ _____ _____    ______ ____
ROOT
ATOM      1  C   UNL     1      84.563  72.393  86.482  0.00  0.00    +0.000 C 
ATOM      2  C   UNL     1      85.599  71.782  87.347  0.00  0.00    +0.000 C 
ATOM      3  C   UNL     1      85.695  71.643  88.672  0.00  0.00    +0.000 C 
ATOM      4  C   UNL     1      86.963  70.940  89.040  0.00  0.00    +0.000 C 
ATOM      5  O   UNL     1      87.587  70.687  87.772  0.00  0.00    +0.000 OA
ATOM      6  C   UNL     1      86.805  71.176  86.772  0.00  0.00    +0.000 C 
ATOM      7  N   UNL     1      87.099  71.105  85.527  0.00  0.00    +0.000 NA
ATOM      8  C   UNL     1      86.724  69.591  89.719  0.00  0.00    +0.000 C 
ATOM      9  C   UNL     1      87.914  71.810  89.863  0.00  0.00    +0.000 C 
ATOM     10  C   UNL     1      84.725  72.095  89.711  0.00  0.00    +0.000 C 
ENDROOT
BRANCH   7  11
ATOM     11  C   UNL     1      88.374  70.445  85.228  0.00  0.00    +0.000 C 
BRANCH  11  12
ATOM     12  C   UNL     1      89.336  71.355  84.495  0.00  0.00    +0.000 A 
ATOM     13  C   UNL     1      90.645  70.944  84.207  0.00  0.00    +0.000 A 
ATOM     14  C   UNL     1      91.512  71.772  83.493  0.00  0.00    +0.000 A 
ATOM     15  C   UNL     1      91.075  73.018  83.045  0.00  0.00    +0.000 A 
ATOM     16  C   UNL     1      89.772  73.434  83.311  0.00  0.00    +0.000 A 
ATOM     17  C   UNL     1      88.905  72.605  84.027  0.00  0.00    +0.000 A 
ENDBRANCH  11  12
ENDBRANCH   7  11
TORSDOF 2
ENDMDL
