MODEL 1
REMARK VINA RESULT:      -4.5      0.000      0.000
REMARK  Name = *****
REMARK  1 active torsions:
REMARK  status: ('A' for Active; 'I' for Inactive)
REMARK    1  A    between atoms: C_9  and  C_11
REMARK                            x       y       z     vdW  Elec       q    Type
REMARK                         _______ _______ _______ _____ _____    ______ ____
ROOT
ATOM      1  C   UNL     1      87.202  71.065  90.097  0.00  0.00    +0.000 C 
ATOM      2  C   UNL     1      86.063  71.712  89.319  0.00  0.00    +0.000 C 
ATOM      3  C   UNL     1      85.812  70.994  87.996  0.00  0.00    +0.000 C 
ATOM      4  C   UNL     1      87.090  70.921  87.149  0.00  0.00    +0.000 C 
ATOM      5  C   UNL     1      88.241  70.260  87.923  0.00  0.00    +0.000 C 
ATOM      6  C   UNL     1      88.475  70.984  89.261  0.00  0.00    +0.000 C 
ATOM      7  C   UNL     1      89.546  70.240  87.114  0.00  0.00    +0.000 C 
ATOM      8  C   UNL     1      89.424  69.531  85.761  0.00  0.00    +0.000 C 
ATOM      9  C   UNL     1      88.359  70.098  84.803  0.00  0.00    +0.000 C 
ATOM     10  S   UNL     1      86.721  69.983  85.629  0.00  0.00    +0.000 S 
ENDROOT
BRANCH   9  11
ATOM     11  C   UNL     1      88.616  71.468  84.178  0.00  0.00    +0.000 A 
ATOM     12  C   UNL     1      89.898  72.031  84.066  0.00  0.00    +0.000 A 
ATOM     13  C   UNL     1      90.095  73.274  83.455  0.00  0.00    +0.000 A 
ATOM     14  C   UNL     1      89.018  73.974  82.924  0.00  0.00    +0.000 A 
ATOM     15  C   UNL     1      87.743  73.425  82.990  0.00  0.00    +0.000 A 
ATOM     16  C   UNL     1      87.547  72.184  83.601  0.00  0.00    +0.000 A 
ENDBRANCH   9  11
TORSDOF 1
ENDMDL
