MODEL 1
REMARK VINA RESULT:      -5.0      0.000      0.000
REMARK  Name = *****
REMARK  3 active torsions:
REMARK  status: ('A' for Active; 'I' for Inactive)
REMARK    1  A    between atoms: C_1  and  C_2
REMARK    2  A    between atoms: C_5  and  C_8
REMARK    3  A    between atoms: C_14  and  C_17
REMARK                            x       y       z     vdW  Elec       q    Type
REMARK                         _______ _______ _______ _____ _____    ______ ____
ROOT
ATOM      1  C   UNL     1     102.785 126.041  81.862  0.00  0.00    +0.000 A 
ATOM      2  N   UNL     1     103.400 126.145  80.695  0.00  0.00    +0.000 NA
ATOM      3  C   UNL     1     104.179 125.017  80.636  0.00  0.00    +0.000 A 
ATOM      4  C   UNL     1     104.005 124.263  81.782  0.00  0.00    +0.000 A 
ATOM      5  O   UNL     1     103.108 124.913  82.578  0.00  0.00    +0.000 OA
ATOM      6  C   UNL     1     104.643 123.057  82.045  0.00  0.00    +0.000 A 
ATOM      7  C   UNL     1     105.536 122.603  81.058  0.00  0.00    +0.000 A 
ATOM      8  C   UNL     1     105.725 123.339  79.874  0.00  0.00    +0.000 A 
ATOM      9  C   UNL     1     105.057 124.554  79.649  0.00  0.00    +0.000 A 
ATOM     10  C   UNL     1     106.247 121.291  81.242  0.00  0.00    +0.000 C 
ENDROOT
BRANCH   1  15
ATOM     11  C   UNL     1      99.042 129.722  84.298  0.00  0.00    +0.000 C 
ATOM     12  C   UNL     1     100.008 128.750  83.691  0.00  0.00    +0.000 A 
ATOM     13  C   UNL     1     101.384 128.994  83.734  0.00  0.00    +0.000 A 
ATOM     14  C   UNL     1     102.281 128.102  83.138  0.00  0.00    +0.000 A 
ATOM     15  C   UNL     1     101.822 126.954  82.475  0.00  0.00    +0.000 A 
ATOM     16  C   UNL     1     100.441 126.723  82.423  0.00  0.00    +0.000 A 
ATOM     17  C   UNL     1      99.542 127.614  83.020  0.00  0.00    +0.000 A 
ENDBRANCH   1  15
TORSDOF 1
ENDMDL
