MODEL 1
REMARK VINA RESULT:      -4.7      0.000      0.000
REMARK  Name = *****
REMARK  4 active torsions:
REMARK  status: ('A' for Active; 'I' for Inactive)
REMARK    1  A    between atoms: C_1  and  S_2
REMARK    2  A    between atoms: S_2  and  C_3
REMARK    3  A    between atoms: C_6  and  C_9
REMARK    4  A    between atoms: C_10  and  C_11
REMARK                            x       y       z     vdW  Elec       q    Type
REMARK                         _______ _______ _______ _____ _____    ______ ____
ROOT
ATOM      1  C   UNL     1     105.674 122.814  81.301  0.00  0.00    +0.000 A 
ATOM      2  C   UNL     1     105.280 123.555  80.184  0.00  0.00    +0.000 A 
ATOM      3  C   UNL     1     104.301 124.547  80.303  0.00  0.00    +0.000 A 
ATOM      4  C   UNL     1     103.688 124.800  81.536  0.00  0.00    +0.000 A 
ATOM      5  C   UNL     1     104.089 124.056  82.652  0.00  0.00    +0.000 A 
ATOM      6  C   UNL     1     105.067 123.063  82.533  0.00  0.00    +0.000 A 
ENDROOT
BRANCH   1   8
ATOM      7  C   UNL     1     108.091 122.356  80.076  0.00  0.00    +0.000 C 
ATOM      8  S   UNL     1     106.911 121.536  81.182  0.00  0.00    +0.000 S 
ENDBRANCH   1   8
BRANCH   4   9
ATOM      9  C   UNL     1     102.681 125.856  81.708  0.00  0.00    +0.000 C 
ATOM     10  C   UNL     1     101.897 125.969  82.793  0.00  0.00    +0.000 C 
BRANCH  10  11
ATOM     11  C   UNL     1     100.903 127.037  82.969  0.00  0.00    +0.000 A 
ATOM     12  C   UNL     1     101.234 128.278  83.532  0.00  0.00    +0.000 A 
ATOM     13  C   UNL     1     100.269 129.281  83.655  0.00  0.00    +0.000 A 
ATOM     14  C   UNL     1      98.968 129.058  83.208  0.00  0.00    +0.000 A 
ATOM     15  C   UNL     1      98.632 127.835  82.633  0.00  0.00    +0.000 A 
ATOM     16  C   UNL     1      99.597 126.832  82.508  0.00  0.00    +0.000 A 
ENDBRANCH  10  11
ENDBRANCH   4   9
TORSDOF 3
ENDMDL
