MODEL 1
REMARK VINA RESULT:      -4.4      0.000      0.000
REMARK  Name = *****
REMARK  2 active torsions:
REMARK  status: ('A' for Active; 'I' for Inactive)
REMARK    1  A    between atoms: C_1  and  N_2
REMARK    2  A    between atoms: C_3  and  C_14
REMARK                            x       y       z     vdW  Elec       q    Type
REMARK                         _______ _______ _______ _____ _____    ______ ____
ROOT
ATOM      1  C   UNL     1      94.578 115.277  80.895  0.00  0.00    +0.000 C 
ATOM      2  N   UNL     1      95.367 116.140  80.012  0.00  0.00    +0.000 N 
ATOM      3  C   UNL     1      96.834 116.130  80.260  0.00  0.00    +0.000 C 
ATOM      4  C   UNL     1      97.641 115.770  78.990  0.00  0.00    +0.000 C 
ATOM      5  C   UNL     1      97.127 116.308  77.653  0.00  0.00    +0.000 C 
ATOM      6  C   UNL     1      95.822 115.635  77.228  0.00  0.00    +0.000 C 
ATOM      7  S   UNL     1      94.464 116.799  76.924  0.00  0.00    +0.000 S 
ATOM      8  C   UNL     1      94.321 117.747  78.448  0.00  0.00    +0.000 A 
ATOM      9  C   UNL     1      93.659 118.981  78.264  0.00  0.00    +0.000 A 
ATOM     10  C   UNL     1      93.392 119.835  79.332  0.00  0.00    +0.000 A 
ATOM     11  C   UNL     1      93.767 119.463  80.612  0.00  0.00    +0.000 A 
ATOM     12  C   UNL     1      94.413 118.242  80.814  0.00  0.00    +0.000 A 
ATOM     13  C   UNL     1      94.727 117.367  79.748  0.00  0.00    +0.000 A 
ENDROOT
BRANCH   3  14
ATOM     14  C   UNL     1      97.392 117.310  81.053  0.00  0.00    +0.000 A 
ATOM     15  C   UNL     1      97.333 117.285  82.459  0.00  0.00    +0.000 A 
ATOM     16  C   UNL     1      97.837 118.343  83.220  0.00  0.00    +0.000 A 
ATOM     17  C   UNL     1      98.404 119.445  82.588  0.00  0.00    +0.000 A 
ATOM     18  C   UNL     1      98.466 119.491  81.198  0.00  0.00    +0.000 A 
ATOM     19  C   UNL     1      97.965 118.432  80.436  0.00  0.00    +0.000 A 
ENDBRANCH   3  14
TORSDOF 1
ENDMDL
