MODEL 1
REMARK VINA RESULT:      -4.7      0.000      0.000
REMARK  Name = *****
REMARK  2 active torsions:
REMARK  status: ('A' for Active; 'I' for Inactive)
REMARK    1  A    between atoms: C_1  and  C_9
REMARK    2  A    between atoms: C_2  and  C_3
REMARK                            x       y       z     vdW  Elec       q    Type
REMARK                         _______ _______ _______ _____ _____    ______ ____
ROOT
ATOM      1  C   UNL     1     102.925 126.177  81.227  0.00  0.00    +0.000 C 
ATOM      2  C   UNL     1     101.993 125.940  82.164  0.00  0.00    +0.000 C 
ENDROOT
BRANCH   2   3
ATOM      3  C   UNL     1     101.000 126.929  82.609  0.00  0.00    +0.000 A 
ATOM      4  C   UNL     1      99.628 126.779  82.362  0.00  0.00    +0.000 A 
ATOM      5  C   UNL     1      98.720 127.759  82.775  0.00  0.00    +0.000 A 
ATOM      6  C   UNL     1      99.175 128.902  83.429  0.00  0.00    +0.000 A 
ATOM      7  C   UNL     1     100.537 129.069  83.666  0.00  0.00    +0.000 A 
ATOM      8  C   UNL     1     101.444 128.091  83.253  0.00  0.00    +0.000 A 
ENDBRANCH   2   3
BRANCH   1   9
ATOM      9  C   UNL     1     103.911 125.178  80.793  0.00  0.00    +0.000 A 
ATOM     10  C   UNL     1     104.778 125.406  79.717  0.00  0.00    +0.000 A 
ATOM     11  C   UNL     1     105.724 124.445  79.350  0.00  0.00    +0.000 A 
ATOM     12  C   UNL     1     105.817 123.250  80.062  0.00  0.00    +0.000 A 
ATOM     13  C   UNL     1     104.970 123.018  81.144  0.00  0.00    +0.000 A 
ATOM     14  C   UNL     1     104.025 123.980  81.511  0.00  0.00    +0.000 A 
ENDBRANCH   1   9
TORSDOF 2
ENDMDL
