MODEL 1
REMARK VINA RESULT:      -4.6      0.000      0.000
REMARK  Name = *****
REMARK  3 active torsions:
REMARK  status: ('A' for Active; 'I' for Inactive)
REMARK    1  A    between atoms: C_4  and  C_7
REMARK    2  A    between atoms: C_8  and  C_9
REMARK    3  A    between atoms: C_9  and  C_11
REMARK                            x       y       z     vdW  Elec       q    Type
REMARK                         _______ _______ _______ _____ _____    ______ ____
ROOT
ATOM      1  C   UNL     1      98.861 127.587  82.595  0.00  0.00    +0.000 C 
ATOM      2  C   UNL     1      99.802 126.650  82.395  0.00  0.00    +0.000 C 
ENDROOT
BRANCH   1   6
ATOM      3  C   UNL     1      98.818 130.712  85.498  0.00  0.00    +0.000 A 
ATOM      4  C   UNL     1      99.381 130.941  84.243  0.00  0.00    +0.000 A 
ATOM      5  C   UNL     1      99.408 129.920  83.291  0.00  0.00    +0.000 A 
ATOM      6  C   UNL     1      98.878 128.662  83.590  0.00  0.00    +0.000 A 
ATOM      7  C   UNL     1      98.309 128.440  84.850  0.00  0.00    +0.000 A 
ATOM      8  C   UNL     1      98.282 129.462  85.801  0.00  0.00    +0.000 A 
ENDBRANCH   1   6
BRANCH   2   9
ATOM      9  C   UNL     1     101.096 126.539  83.125  0.00  0.00    +0.000 C 
ATOM     10  O   UNL     1     101.204 125.924  84.179  0.00  0.00    +0.000 OA
BRANCH   9  11
ATOM     11  C   UNL     1     102.255 127.303  82.581  0.00  0.00    +0.000 A 
ATOM     12  C   UNL     1     102.810 128.317  83.374  0.00  0.00    +0.000 A 
ATOM     13  C   UNL     1     103.899 129.058  82.910  0.00  0.00    +0.000 A 
ATOM     14  C   UNL     1     104.443 128.785  81.657  0.00  0.00    +0.000 A 
ATOM     15  C   UNL     1     103.908 127.767  80.868  0.00  0.00    +0.000 A 
ATOM     16  C   UNL     1     102.818 127.023  81.329  0.00  0.00    +0.000 A 
ENDBRANCH   9  11
ENDBRANCH   2   9
TORSDOF 3
ENDMDL
