REMARK  Name = *****
REMARK  5 active torsions:
REMARK  status: ('A' for Active; 'I' for Inactive)
REMARK    1  A    between atoms: C_1  and  C_2
REMARK    2  A    between atoms: C_2  and  C_3
REMARK    3  A    between atoms: C_2  and  N_9
REMARK    4  A    between atoms: N_9  and  C_10
REMARK    5  A    between atoms: C_10  and  C_11
REMARK                            x       y       z     vdW  Elec       q    Type
REMARK                         _______ _______ _______ _____ _____    ______ ____
ROOT
ATOM      1  C   UNL     1       0.891   0.262  -0.109  0.00  0.00    +0.000 C 
ATOM      2  C   UNL     1       2.406   0.058  -0.094  0.00  0.00    +0.000 C 
ENDROOT
BRANCH   2   3
ATOM      3  C   UNL     1       2.866  -1.349   0.365  0.00  0.00    +0.000 C 
ATOM      4  C   UNL     1       2.268  -2.499  -0.467  0.00  0.00    +0.000 C 
ATOM      5  C   UNL     1       2.793  -3.857  -0.002  0.00  0.00    +0.000 C 
ATOM      6  C   UNL     1       2.542  -4.077   1.487  0.00  0.00    +0.000 C 
ATOM      7  C   UNL     1       3.111  -2.938   2.327  0.00  0.00    +0.000 C 
ATOM      8  C   UNL     1       2.589  -1.579   1.862  0.00  0.00    +0.000 C 
ENDBRANCH   2   3
BRANCH   2   9
ATOM      9  N   UNL     1       2.887   0.302  -1.464  0.00  0.00    +0.000 NA
BRANCH   9  10
ATOM     10  C   UNL     1       4.045   0.858  -1.540  0.00  0.00    +0.000 C 
BRANCH  10  11
ATOM     11  C   UNL     1       4.604   1.136  -2.850  0.00  0.00    +0.000 A 
ATOM     12  C   UNL     1       5.843   1.724  -3.023  0.00  0.00    +0.000 A 
ATOM     13  S   UNL     1       6.252   1.934  -4.672  0.00  0.00    +0.000 S 
ATOM     14  C   UNL     1       4.776   1.241  -5.182  0.00  0.00    +0.000 A 
ATOM     15  C   UNL     1       3.992   0.859  -4.117  0.00  0.00    +0.000 A 
ENDBRANCH  10  11
ENDBRANCH   9  10
ENDBRANCH   2   9
TORSDOF 4
