REMARK  Name = *****
REMARK  3 active torsions:
REMARK  status: ('A' for Active; 'I' for Inactive)
REMARK    1  A    between atoms: C_1  and  C_2
REMARK    2  A    between atoms: C_5  and  C_8
REMARK    3  A    between atoms: C_9  and  C_10
REMARK                            x       y       z     vdW  Elec       q    Type
REMARK                         _______ _______ _______ _____ _____    ______ ____
ROOT
ATOM      1  C   UNL     1       6.871   0.181  -0.671  0.00  0.00    +0.000 C 
ATOM      2  C   UNL     1       8.047   0.204  -0.915  0.00  0.00    +0.000 C 
ENDROOT
BRANCH   1   7
ATOM      3  C   UNL     1       1.205   0.073   0.218  0.00  0.00    +0.000 C 
ATOM      4  C   UNL     1       2.691   0.111   0.018  0.00  0.00    +0.000 A 
ATOM      5  C   UNL     1       3.370   1.330  -0.100  0.00  0.00    +0.000 A 
ATOM      6  C   UNL     1       4.751   1.353  -0.315  0.00  0.00    +0.000 A 
ATOM      7  C   UNL     1       5.463   0.157  -0.418  0.00  0.00    +0.000 A 
ATOM      8  C   UNL     1       4.794  -1.062  -0.298  0.00  0.00    +0.000 A 
ATOM      9  C   UNL     1       3.414  -1.084  -0.083  0.00  0.00    +0.000 A 
ENDBRANCH   1   7
BRANCH   2  10
ATOM     10  C   UNL     1       9.439   0.234  -1.239  0.00  0.00    +0.000 A 
ATOM     11  C   UNL     1      10.091   1.456  -1.405  0.00  0.00    +0.000 A 
ATOM     12  C   UNL     1      11.440   1.468  -1.742  0.00  0.00    +0.000 A 
ATOM     13  C   UNL     1      12.150   0.284  -1.915  0.00  0.00    +0.000 A 
ATOM     14  C   UNL     1      11.501  -0.938  -1.747  0.00  0.00    +0.000 A 
ATOM     15  C   UNL     1      10.145  -0.963  -1.409  0.00  0.00    +0.000 A 
ATOM     16  F   UNL     1      12.067   2.640  -1.906  0.00  0.00    +0.000 F 
ENDBRANCH   2  10
TORSDOF 2
