MODEL 1
REMARK VINA RESULT:      -4.5      0.000      0.000
REMARK  Name = *****
REMARK  4 active torsions:
REMARK  status: ('A' for Active; 'I' for Inactive)
REMARK    1  A    between atoms: C_4  and  C_7
REMARK    2  A    between atoms: C_7  and  S_8
REMARK    3  A    between atoms: S_8  and  C_9
REMARK    4  A    between atoms: C_14  and  C_15
REMARK                            x       y       z     vdW  Elec       q    Type
REMARK                         _______ _______ _______ _____ _____    ______ ____
ROOT
ATOM      1  C   UNL     1     103.735 124.662  82.599  0.00  0.00    +0.000 A 
ATOM      2  C   UNL     1     103.644 125.316  81.355  0.00  0.00    +0.000 A 
ATOM      3  C   UNL     1     104.200 124.758  80.202  0.00  0.00    +0.000 A 
ATOM      4  C   UNL     1     104.846 123.530  80.273  0.00  0.00    +0.000 A 
ATOM      5  C   UNL     1     104.932 122.872  81.495  0.00  0.00    +0.000 A 
ATOM      6  C   UNL     1     104.390 123.422  82.662  0.00  0.00    +0.000 A 
ATOM      7  F   UNL     1     105.564 121.688  81.530  0.00  0.00    +0.000 F 
ENDROOT
BRANCH   6   8
ATOM      8  C   UNL     1     104.563 122.612  83.889  0.00  0.00    +0.000 C 
ATOM      9  O   UNL     1     103.735 121.819  84.315  0.00  0.00    +0.000 OA
ENDBRANCH   6   8
BRANCH   1  10
ATOM     10  S   UNL     1     102.902 125.466  83.962  0.00  0.00    +0.000 S 
BRANCH  10  11
ATOM     11  C   UNL     1     102.722 127.135  83.248  0.00  0.00    +0.000 C 
BRANCH  11  15
ATOM     12  C   UNL     1      98.575 128.260  82.887  0.00  0.00    +0.000 A 
ATOM     13  C   UNL     1      99.011 127.034  82.391  0.00  0.00    +0.000 A 
ATOM     14  C   UNL     1     100.354 126.671  82.510  0.00  0.00    +0.000 A 
ATOM     15  C   UNL     1     101.272 127.531  83.131  0.00  0.00    +0.000 A 
ATOM     16  C   UNL     1     100.823 128.768  83.617  0.00  0.00    +0.000 A 
ATOM     17  C   UNL     1      99.478 129.128  83.497  0.00  0.00    +0.000 A 
ENDBRANCH  11  15
ENDBRANCH  10  11
ENDBRANCH   1  10
TORSDOF 4
ENDMDL
