MODEL 1
REMARK VINA RESULT:      -4.4      0.000      0.000
REMARK  Name = *****
REMARK  4 active torsions:
REMARK  status: ('A' for Active; 'I' for Inactive)
REMARK    1  A    between atoms: C_1  and  C_2
REMARK    2  A    between atoms: C_1  and  N_8
REMARK    3  A    between atoms: N_8  and  C_9
REMARK    4  A    between atoms: C_9  and  C_11
REMARK                            x       y       z     vdW  Elec       q    Type
REMARK                         _______ _______ _______ _____ _____    ______ ____
ROOT
ATOM      1  N   UNL     1     103.661 125.288  80.131  0.00  0.00    +0.000 N 
ATOM      2  H   UNL     1     102.774 124.903  79.946  0.00  0.00    +0.000 HD
ENDROOT
BRANCH   1   3
ATOM      3  C   UNL     1     104.743 124.426  80.085  0.00  0.00    +0.000 C 
ATOM      4  S   UNL     1     106.044 124.584  79.036  0.00  0.00    +0.000 S 
BRANCH   3   5
ATOM      5  C   UNL     1     104.651 123.308  81.066  0.00  0.00    +0.000 A 
ATOM      6  C   UNL     1     104.494 123.601  82.426  0.00  0.00    +0.000 A 
ATOM      7  C   UNL     1     104.426 122.566  83.358  0.00  0.00    +0.000 A 
ATOM      8  C   UNL     1     104.518 121.239  82.934  0.00  0.00    +0.000 A 
ATOM      9  C   UNL     1     104.676 120.944  81.580  0.00  0.00    +0.000 A 
ATOM     10  C   UNL     1     104.743 121.977  80.642  0.00  0.00    +0.000 A 
ENDBRANCH   3   5
ENDBRANCH   1   3
BRANCH   1  11
ATOM     11  C   UNL     1     103.714 126.710  80.431  0.00  0.00    +0.000 C 
BRANCH  11  12
ATOM     12  C   UNL     1     102.876 127.027  81.640  0.00  0.00    +0.000 A 
ATOM     13  C   UNL     1     101.822 126.181  82.016  0.00  0.00    +0.000 A 
ATOM     14  C   UNL     1     101.023 126.494  83.117  0.00  0.00    +0.000 A 
ATOM     15  C   UNL     1     101.264 127.657  83.847  0.00  0.00    +0.000 A 
ATOM     16  C   UNL     1     102.302 128.509  83.475  0.00  0.00    +0.000 A 
ATOM     17  C   UNL     1     103.102 128.200  82.374  0.00  0.00    +0.000 A 
ENDBRANCH  11  12
ENDBRANCH   1  11
TORSDOF 4
ENDMDL
