MODEL 1
REMARK VINA RESULT:      -4.5      0.000      0.000
REMARK  Name = *****
REMARK  5 active torsions:
REMARK  status: ('A' for Active; 'I' for Inactive)
REMARK    1  A    between atoms: C_1  and  C_2
REMARK    2  A    between atoms: C_5  and  C_8
REMARK    3  A    between atoms: C_8  and  O_9
REMARK    4  A    between atoms: O_9  and  C_10
REMARK    5  A    between atoms: C_13  and  C_16
REMARK                            x       y       z     vdW  Elec       q    Type
REMARK                         _______ _______ _______ _____ _____    ______ ____
ROOT
ATOM      1  C   UNL     1      87.826  70.695  85.963  0.00  0.00    +0.000 C 
ENDROOT
BRANCH   1   6
ATOM      2  C   UNL     1      82.945  73.163  87.986  0.00  0.00    +0.000 C 
ATOM      3  C   UNL     1      84.182  72.495  87.465  0.00  0.00    +0.000 A 
ATOM      4  C   UNL     1      85.133  71.975  88.350  0.00  0.00    +0.000 A 
ATOM      5  C   UNL     1      86.301  71.382  87.865  0.00  0.00    +0.000 A 
ATOM      6  C   UNL     1      86.544  71.299  86.487  0.00  0.00    +0.000 A 
ATOM      7  C   UNL     1      85.601  71.844  85.604  0.00  0.00    +0.000 A 
ATOM      8  C   UNL     1      84.433  72.437  86.090  0.00  0.00    +0.000 A 
ENDBRANCH   1   6
BRANCH   1   9
ATOM      9  O   UNL     1      88.529  70.069  87.036  0.00  0.00    +0.000 OA
BRANCH   9  10
ATOM     10  C   UNL     1      88.767  68.726  86.926  0.00  0.00    +0.000 A 
ATOM     11  C   UNL     1      89.889  68.133  86.349  0.00  0.00    +0.000 A 
ATOM     12  C   UNL     1      90.004  66.738  86.306  0.00  0.00    +0.000 A 
ATOM     13  C   UNL     1      88.995  65.922  86.827  0.00  0.00    +0.000 A 
ATOM     14  C   UNL     1      87.878  66.521  87.417  0.00  0.00    +0.000 A 
ATOM     15  C   UNL     1      87.766  67.913  87.459  0.00  0.00    +0.000 A 
ATOM     16  C   UNL     1      89.134  64.429  86.812  0.00  0.00    +0.000 C 
ENDBRANCH   9  10
ENDBRANCH   1   9
TORSDOF 3
ENDMDL
