MODEL 1
REMARK VINA RESULT:      -4.9      0.000      0.000
REMARK  Name = *****
REMARK  4 active torsions:
REMARK  status: ('A' for Active; 'I' for Inactive)
REMARK    1  A    between atoms: C_1  and  C_2
REMARK    2  A    between atoms: C_4  and  C_8
REMARK    3  A    between atoms: C_8  and  C_9
REMARK    4  A    between atoms: C_10  and  C_11
REMARK                            x       y       z     vdW  Elec       q    Type
REMARK                         _______ _______ _______ _____ _____    ______ ____
ROOT
ATOM      1  C   UNL     1      89.371  69.968  86.586  0.00  0.00    +0.000 C 
ENDROOT
BRANCH   1   5
ATOM      2  C   UNL     1      91.288  65.471  85.316  0.00  0.00    +0.000 C 
ATOM      3  C   UNL     1      90.239  66.287  86.013  0.00  0.00    +0.000 A 
ATOM      4  C   UNL     1      90.296  67.687  85.989  0.00  0.00    +0.000 A 
ATOM      5  C   UNL     1      89.305  68.459  86.615  0.00  0.00    +0.000 A 
ATOM      6  C   UNL     1      88.236  67.809  87.247  0.00  0.00    +0.000 A 
ATOM      7  C   UNL     1      88.164  66.416  87.260  0.00  0.00    +0.000 A 
ATOM      8  C   UNL     1      89.158  65.659  86.643  0.00  0.00    +0.000 A 
ENDBRANCH   1   5
BRANCH   1   9
ATOM      9  C   UNL     1      88.079  70.602  87.020  0.00  0.00    +0.000 C 
ATOM     10  C   UNL     1      87.151  71.064  86.166  0.00  0.00    +0.000 C 
BRANCH  10  11
ATOM     11  C   UNL     1      85.886  71.683  86.583  0.00  0.00    +0.000 A 
ATOM     12  C   UNL     1      84.954  72.172  85.657  0.00  0.00    +0.000 A 
ATOM     13  C   UNL     1      83.745  72.724  86.090  0.00  0.00    +0.000 A 
ATOM     14  C   UNL     1      83.451  72.782  87.451  0.00  0.00    +0.000 A 
ATOM     15  C   UNL     1      84.363  72.284  88.379  0.00  0.00    +0.000 A 
ATOM     16  C   UNL     1      85.571  71.732  87.947  0.00  0.00    +0.000 A 
ENDBRANCH  10  11
ENDBRANCH   1   9
TORSDOF 3
ENDMDL
