MODEL 1
REMARK VINA RESULT:      -4.6      0.000      0.000
REMARK  Name = *****
REMARK  4 active torsions:
REMARK  status: ('A' for Active; 'I' for Inactive)
REMARK    1  A    between atoms: C_1  and  O_2
REMARK    2  A    between atoms: O_2  and  C_3
REMARK    3  A    between atoms: C_8  and  C_9
REMARK    4  A    between atoms: C_10  and  C_11
REMARK                            x       y       z     vdW  Elec       q    Type
REMARK                         _______ _______ _______ _____ _____    ______ ____
ROOT
ATOM      1  C   UNL     1     103.233 125.490  82.595  0.00  0.00    +0.000 C 
ATOM      2  C   UNL     1     102.034 125.870  82.125  0.00  0.00    +0.000 C 
ENDROOT
BRANCH   2   3
ATOM      3  C   UNL     1     101.275 127.016  82.641  0.00  0.00    +0.000 A 
ATOM      4  C   UNL     1      99.876 127.078  82.574  0.00  0.00    +0.000 A 
ATOM      5  C   UNL     1      99.185 128.172  83.103  0.00  0.00    +0.000 A 
ATOM      6  C   UNL     1      99.891 129.208  83.711  0.00  0.00    +0.000 A 
ATOM      7  C   UNL     1     101.280 129.155  83.801  0.00  0.00    +0.000 A 
ATOM      8  C   UNL     1     101.968 128.059  83.273  0.00  0.00    +0.000 A 
ATOM      9 CL   UNL     1      99.042 130.555  84.364  0.00  0.00    +0.000 Cl
ENDBRANCH   2   3
BRANCH   1  15
ATOM     10  C   UNL     1     104.255 123.178  82.847  0.00  0.00    +0.000 A 
ATOM     11  C   UNL     1     104.937 122.108  82.255  0.00  0.00    +0.000 A 
ATOM     12  C   UNL     1     105.311 122.160  80.909  0.00  0.00    +0.000 A 
ATOM     13  C   UNL     1     105.005 123.277  80.140  0.00  0.00    +0.000 A 
ATOM     14  C   UNL     1     104.327 124.350  80.718  0.00  0.00    +0.000 A 
ATOM     15  C   UNL     1     103.956 124.319  82.071  0.00  0.00    +0.000 A 
BRANCH  10  17
ATOM     16  C   UNL     1     104.741 122.744  85.147  0.00  0.00    +0.000 C 
ATOM     17  O   UNL     1     103.833 123.196  84.153  0.00  0.00    +0.000 OA
ENDBRANCH  10  17
ENDBRANCH   1  15
TORSDOF 3
ENDMDL
