MODEL 1
REMARK VINA RESULT:      -4.4      0.000      0.000
REMARK  Name = *****
REMARK  4 active torsions:
REMARK  status: ('A' for Active; 'I' for Inactive)
REMARK    1  A    between atoms: N_2  and  C_3
REMARK    2  A    between atoms: C_8  and  O_9
REMARK    3  A    between atoms: O_9  and  C_10
REMARK    4  A    between atoms: C_10  and  C_12
REMARK                            x       y       z     vdW  Elec       q    Type
REMARK                         _______ _______ _______ _____ _____    ______ ____
ROOT
ATOM      1  O   UNL     1     102.601 126.940  82.948  0.00  0.00    +0.000 OA
ENDROOT
BRANCH   1   7
ATOM      2  C   UNL     1     100.977 128.628  83.593  0.00  0.00    +0.000 A 
ATOM      3  C   UNL     1      99.664 129.098  83.612  0.00  0.00    +0.000 A 
ATOM      4  C   UNL     1      98.657 128.328  83.026  0.00  0.00    +0.000 A 
ATOM      5  C   UNL     1      98.968 127.105  82.421  0.00  0.00    +0.000 A 
ATOM      6  C   UNL     1     100.285 126.640  82.404  0.00  0.00    +0.000 A 
ATOM      7  C   UNL     1     101.285 127.401  83.008  0.00  0.00    +0.000 A 
BRANCH   2   9
ATOM      8  C   UNL     1     102.834 130.070  84.607  0.00  0.00    +0.000 C 
ATOM      9  N   UNL     1     101.979 129.410  84.150  0.00  0.00    +0.000 NA
ENDBRANCH   2   9
ENDBRANCH   1   7
BRANCH   1  10
ATOM     10  C   UNL     1     102.734 125.659  83.451  0.00  0.00    +0.000 C 
ATOM     11  O   UNL     1     102.291 125.241  84.511  0.00  0.00    +0.000 OA
BRANCH  10  12
ATOM     12  C   UNL     1     103.506 124.816  82.497  0.00  0.00    +0.000 A 
ATOM     13  C   UNL     1     104.127 123.617  82.875  0.00  0.00    +0.000 A 
ATOM     14  C   UNL     1     104.839 122.869  81.935  0.00  0.00    +0.000 A 
ATOM     15  C   UNL     1     104.934 123.311  80.615  0.00  0.00    +0.000 A 
ATOM     16  C   UNL     1     104.318 124.500  80.231  0.00  0.00    +0.000 A 
ATOM     17  C   UNL     1     103.605 125.251  81.167  0.00  0.00    +0.000 A 
ENDBRANCH  10  12
ENDBRANCH   1  10
TORSDOF 4
ENDMDL
