MODEL 1
REMARK VINA RESULT:      -4.4      0.000      0.000
REMARK  Name = *****
REMARK  3 active torsions:
REMARK  status: ('A' for Active; 'I' for Inactive)
REMARK    1  A    between atoms: C_4  and  C_7
REMARK    2  A    between atoms: C_8  and  S_9
REMARK    3  A    between atoms: S_9  and  C_10
REMARK                            x       y       z     vdW  Elec       q    Type
REMARK                         _______ _______ _______ _____ _____    ______ ____
ROOT
ATOM      1  C   UNL     1     102.610 126.275  81.673  0.00  0.00    +0.000 C 
ATOM      2  C   UNL     1     103.419 125.636  81.057  0.00  0.00    +0.000 C 
ENDROOT
BRANCH   1   6
ATOM      3  C   UNL     1      99.640 128.762  83.539  0.00  0.00    +0.000 C 
ATOM      4  C   UNL     1      99.341 127.271  83.436  0.00  0.00    +0.000 C 
ATOM      5  C   UNL     1     100.198 126.610  82.354  0.00  0.00    +0.000 C 
ATOM      6  C   UNL     1     101.643 127.043  82.388  0.00  0.00    +0.000 C 
ATOM      7  C   UNL     1     102.046 128.121  83.084  0.00  0.00    +0.000 C 
ATOM      8  C   UNL     1     101.115 129.009  83.857  0.00  0.00    +0.000 C 
ENDBRANCH   1   6
BRANCH   2   9
ATOM      9  S   UNL     1     104.562 124.743  80.188  0.00  0.00    +0.000 S 
BRANCH   9  10
ATOM     10  C   UNL     1     104.565 123.304  81.242  0.00  0.00    +0.000 A 
ATOM     11  C   UNL     1     104.457 123.431  82.631  0.00  0.00    +0.000 A 
ATOM     12  C   UNL     1     104.446 122.296  83.444  0.00  0.00    +0.000 A 
ATOM     13  C   UNL     1     104.534 121.027  82.872  0.00  0.00    +0.000 A 
ATOM     14  C   UNL     1     104.632 120.892  81.488  0.00  0.00    +0.000 A 
ATOM     15  C   UNL     1     104.645 122.027  80.674  0.00  0.00    +0.000 A 
ENDBRANCH   9  10
ENDBRANCH   2   9
TORSDOF 3
ENDMDL
