MODEL 1
REMARK VINA RESULT:      -4.6      0.000      0.000
REMARK  Name = *****
REMARK  3 active torsions:
REMARK  status: ('A' for Active; 'I' for Inactive)
REMARK    1  A    between atoms: C_4  and  C_7
REMARK    2  A    between atoms: C_8  and  C_9
REMARK    3  A    between atoms: C_14  and  C_15
REMARK                            x       y       z     vdW  Elec       q    Type
REMARK                         _______ _______ _______ _____ _____    ______ ____
ROOT
ATOM      1  C   UNL     1     102.827 126.048  81.177  0.00  0.00    +0.000 C 
ATOM      2  C   UNL     1     102.183 126.003  82.354  0.00  0.00    +0.000 C 
ENDROOT
BRANCH   1   6
ATOM      3  C   UNL     1     105.896 123.264  80.114  0.00  0.00    +0.000 A 
ATOM      4  C   UNL     1     105.745 124.432  79.371  0.00  0.00    +0.000 A 
ATOM      5  C   UNL     1     104.742 125.349  79.702  0.00  0.00    +0.000 A 
ATOM      6  C   UNL     1     103.873 125.100  80.773  0.00  0.00    +0.000 A 
ATOM      7  C   UNL     1     104.048 123.929  81.522  0.00  0.00    +0.000 A 
ATOM      8  C   UNL     1     105.050 123.012  81.192  0.00  0.00    +0.000 A 
ENDBRANCH   1   6
BRANCH   2   9
ATOM      9  C   UNL     1     101.160 126.996  82.699  0.00  0.00    +0.000 A 
ATOM     10  C   UNL     1      99.830 126.697  82.368  0.00  0.00    +0.000 A 
ATOM     11  C   UNL     1      98.802 127.589  82.676  0.00  0.00    +0.000 A 
ATOM     12  C   UNL     1      99.094 128.787  83.319  0.00  0.00    +0.000 A 
ATOM     13  C   UNL     1     100.413 129.093  83.654  0.00  0.00    +0.000 A 
ATOM     14  C   UNL     1     101.465 128.208  83.348  0.00  0.00    +0.000 A 
BRANCH  14  15
ATOM     15  C   UNL     1     102.866 128.588  83.737  0.00  0.00    +0.000 C 
ATOM     16 BR   UNL     1     103.240 127.967  85.542  0.00  0.00    +0.000 Br
ENDBRANCH  14  15
ENDBRANCH   2   9
TORSDOF 3
ENDMDL
