MODEL 1
REMARK VINA RESULT:      -5.0      0.000      0.000
REMARK  Name = *****
REMARK  4 active torsions:
REMARK  status: ('A' for Active; 'I' for Inactive)
REMARK    1  A    between atoms: C_1  and  C_2
REMARK    2  A    between atoms: C_4  and  O_8
REMARK    3  A    between atoms: O_8  and  C_9
REMARK    4  A    between atoms: C_9  and  C_11
REMARK                            x       y       z     vdW  Elec       q    Type
REMARK                         _______ _______ _______ _____ _____    ______ ____
ROOT
ATOM      1  C   UNL     1     102.683 125.630  83.539  0.00  0.00    +0.000 C 
ATOM      2  O   UNL     1     102.267 125.208  84.606  0.00  0.00    +0.000 OA
ENDROOT
BRANCH   1   3
ATOM      3  C   UNL     1     103.469 124.793  82.587  0.00  0.00    +0.000 A 
ATOM      4  C   UNL     1     103.561 125.224  81.254  0.00  0.00    +0.000 A 
ATOM      5  C   UNL     1     104.283 124.478  80.319  0.00  0.00    +0.000 A 
ATOM      6  C   UNL     1     104.912 123.306  80.718  0.00  0.00    +0.000 A 
ATOM      7  C   UNL     1     104.832 122.862  82.034  0.00  0.00    +0.000 A 
ATOM      8  C   UNL     1     104.110 123.604  82.972  0.00  0.00    +0.000 A 
ATOM      9  F   UNL     1     105.605 122.591  79.823  0.00  0.00    +0.000 F 
ENDBRANCH   1   3
BRANCH   1  10
ATOM     10  O   UNL     1     102.518 126.899  83.014  0.00  0.00    +0.000 OA
BRANCH  10  14
ATOM     11  C   UNL     1      99.355 130.555  84.089  0.00  0.00    +0.000 C 
ATOM     12  C   UNL     1      99.649 129.188  83.546  0.00  0.00    +0.000 A 
ATOM     13  C   UNL     1     100.955 128.684  83.573  0.00  0.00    +0.000 A 
ATOM     14  C   UNL     1     101.215 127.415  83.054  0.00  0.00    +0.000 A 
ATOM     15  C   UNL     1     100.208 126.657  82.463  0.00  0.00    +0.000 A 
ATOM     16  C   UNL     1      98.911 127.163  82.418  0.00  0.00    +0.000 A 
ATOM     17  C   UNL     1      98.633 128.423  82.955  0.00  0.00    +0.000 A 
ENDBRANCH  10  14
ENDBRANCH   1  10
TORSDOF 3
ENDMDL
