REMARK  Name = *****
REMARK  5 active torsions:
REMARK  status: ('A' for Active; 'I' for Inactive)
REMARK    1  A    between atoms: C_1  and  C_2
REMARK    2  A    between atoms: C_3  and  N_9
REMARK    3  A    between atoms: C_4  and  C_8
REMARK    4  A    between atoms: N_9  and  C_10
REMARK    5  A    between atoms: C_10  and  C_12
REMARK                            x       y       z     vdW  Elec       q    Type
REMARK                         _______ _______ _______ _____ _____    ______ ____
ROOT
ATOM      1  N   UNL     1       0.624   2.401   0.176  0.00  0.00    +0.000 N 
ATOM      2  H   UNL     1       0.268   2.847   0.979  0.00  0.00    +0.000 HD
ENDROOT
BRANCH   1   5
ATOM      3  C   UNL     1       2.831   0.366   0.202  0.00  0.00    +0.000 C 
ATOM      4  C   UNL     1       1.371   0.051   0.021  0.00  0.00    +0.000 A 
ATOM      5  C   UNL     1       0.346   1.020   0.047  0.00  0.00    +0.000 A 
ATOM      6  C   UNL     1      -1.008   0.614   0.048  0.00  0.00    +0.000 A 
ATOM      7  C   UNL     1      -1.319  -0.749  -0.066  0.00  0.00    +0.000 A 
ATOM      8  C   UNL     1      -0.310  -1.701  -0.165  0.00  0.00    +0.000 A 
ATOM      9  C   UNL     1       1.023  -1.304  -0.118  0.00  0.00    +0.000 A 
ATOM     10  C   UNL     1      -2.137   1.607   0.119  0.00  0.00    +0.000 C 
ENDBRANCH   1   5
BRANCH   1  11
ATOM     11  C   UNL     1       1.345   3.199  -0.709  0.00  0.00    +0.000 C 
ATOM     12  S   UNL     1       2.001   2.758  -2.192  0.00  0.00    +0.000 S 
BRANCH  11  13
ATOM     13  C   UNL     1       1.416   4.615  -0.258  0.00  0.00    +0.000 A 
ATOM     14  C   UNL     1       2.642   5.156   0.145  0.00  0.00    +0.000 A 
ATOM     15  C   UNL     1       2.698   6.476   0.592  0.00  0.00    +0.000 A 
ATOM     16  C   UNL     1       1.536   7.248   0.639  0.00  0.00    +0.000 A 
ATOM     17  C   UNL     1       0.313   6.706   0.238  0.00  0.00    +0.000 A 
ATOM     18  C   UNL     1       0.249   5.387  -0.211  0.00  0.00    +0.000 A 
ENDBRANCH  11  13
ENDBRANCH   1  11
TORSDOF 3
