REMARK  Name = *****
REMARK  2 active torsions:
REMARK  status: ('A' for Active; 'I' for Inactive)
REMARK    1  A    between atoms: C_4  and  C_6
REMARK    2  A    between atoms: C_6  and  C_7
REMARK                            x       y       z     vdW  Elec       q    Type
REMARK                         _______ _______ _______ _____ _____    ______ ____
ROOT
ATOM      1  C   UNL     1      -1.298   1.267   1.669  0.00  0.00    +0.000 C 
ENDROOT
BRANCH   1   2
ATOM      2  C   UNL     1      -2.743   0.939   1.921  0.00  0.00    +0.000 C 
ATOM      3  C   UNL     1      -3.215   0.132   2.885  0.00  0.00    +0.000 C 
ATOM      4  C   UNL     1      -4.681  -0.155   3.082  0.00  0.00    +0.000 C 
ATOM      5  C   UNL     1      -4.722  -0.913   4.404  0.00  0.00    +0.000 C 
ATOM      6  C   UNL     1      -3.393  -1.650   4.442  0.00  0.00    +0.000 C 
ATOM      7  C   UNL     1      -2.400  -0.634   3.894  0.00  0.00    +0.000 C 
ENDBRANCH   1   2
BRANCH   1  11
ATOM      8  C   UNL     1       1.409  -0.150  -0.174  0.00  0.00    +0.000 C 
ATOM      9  C   UNL     1       0.352  -1.106  -0.695  0.00  0.00    +0.000 C 
ATOM     10  C   UNL     1      -0.857  -0.765   0.161  0.00  0.00    +0.000 C 
ATOM     11  C   UNL     1      -0.811   0.765   0.303  0.00  0.00    +0.000 C 
ATOM     12  C   UNL     1       0.653   1.158   0.027  0.00  0.00    +0.000 C 
ENDBRANCH   1  11
TORSDOF 2
