MODEL 1
REMARK VINA RESULT:      -5.3      0.000      0.000
REMARK  Name = *****
REMARK  5 active torsions:
REMARK  status: ('A' for Active; 'I' for Inactive)
REMARK    1  A    between atoms: C_4  and  N_17
REMARK    2  A    between atoms: C_5  and  C_7
REMARK    3  A    between atoms: C_8  and  C_9
REMARK    4  A    between atoms: C_14  and  N_15
REMARK    5  A    between atoms: N_17  and  O_18
REMARK                            x       y       z     vdW  Elec       q    Type
REMARK                         _______ _______ _______ _____ _____    ______ ____
ROOT
ATOM      1  C   UNL     1     101.370 129.208  83.776  0.00  0.00    +0.000 A 
ATOM      2  C   UNL     1      99.978 129.234  83.770  0.00  0.00    +0.000 A 
ATOM      3  C   UNL     1      99.262 128.173  83.211  0.00  0.00    +0.000 A 
ATOM      4  C   UNL     1      99.922 127.057  82.674  0.00  0.00    +0.000 A 
ATOM      5  C   UNL     1     101.336 127.049  82.657  0.00  0.00    +0.000 A 
ATOM      6  C   UNL     1     102.046 128.125  83.217  0.00  0.00    +0.000 A 
ENDROOT
BRANCH   5   7
ATOM      7  C   UNL     1     102.083 125.951  82.021  0.00  0.00    +0.000 C 
ATOM      8  C   UNL     1     103.322 125.606  82.403  0.00  0.00    +0.000 C 
BRANCH   8   9
ATOM      9  C   UNL     1     104.070 124.491  81.790  0.00  0.00    +0.000 A 
ATOM     10  C   UNL     1     104.553 124.637  80.475  0.00  0.00    +0.000 A 
ATOM     11  C   UNL     1     105.291 123.622  79.865  0.00  0.00    +0.000 A 
ATOM     12  C   UNL     1     105.569 122.449  80.559  0.00  0.00    +0.000 A 
ATOM     13  C   UNL     1     105.107 122.293  81.868  0.00  0.00    +0.000 A 
ATOM     14  C   UNL     1     104.352 123.300  82.499  0.00  0.00    +0.000 A 
BRANCH  14  15
ATOM     15  N   UNL     1     103.920 123.140  83.805  0.00  0.00    +0.000 NA
ATOM     16  O   UNL     1     103.875 121.956  84.162  0.00  0.00    +0.000 OA
ENDBRANCH  14  15
ENDBRANCH   8   9
ENDBRANCH   5   7
BRANCH   4  17
ATOM     17  N   UNL     1      99.187 126.006  82.060  0.00  0.00    +0.000 N 
ATOM     18  H   UNL     1      99.621 125.413  81.405  0.00  0.00    +0.000 HD
BRANCH  17  19
ATOM     19  O   UNL     1      97.844 125.822  82.393  0.00  0.00    +0.000 OA
ATOM     20  H   UNL     1      97.610 124.886  82.286  0.00  0.00    +0.000 HD
ENDBRANCH  17  19
ENDBRANCH   4  17
TORSDOF 5
ENDMDL
