MODEL 1
REMARK VINA RESULT:      -3.7      0.000      0.000
REMARK  Name = *****
REMARK  5 active torsions:
REMARK  status: ('A' for Active; 'I' for Inactive)
REMARK    1  A    between atoms: C_1  and  O_2
REMARK    2  A    between atoms: O_2  and  C_3
REMARK    3  A    between atoms: C_6  and  C_9
REMARK    4  A    between atoms: C_9  and  C_10
REMARK    5  A    between atoms: C_10  and  C_11
REMARK                            x       y       z     vdW  Elec       q    Type
REMARK                         _______ _______ _______ _____ _____    ______ ____
ROOT
ATOM      1  C   UNL     1      96.988 120.340  81.738  0.00  0.00    +0.000 A 
ATOM      2  C   UNL     1      98.224 119.922  81.246  0.00  0.00    +0.000 A 
ATOM      3  C   UNL     1      98.353 118.670  80.633  0.00  0.00    +0.000 A 
ATOM      4  C   UNL     1      97.247 117.820  80.503  0.00  0.00    +0.000 A 
ATOM      5  C   UNL     1      96.009 118.245  80.996  0.00  0.00    +0.000 A 
ATOM      6  C   UNL     1      95.884 119.494  81.607  0.00  0.00    +0.000 A 
ENDROOT
BRANCH   1   8
ATOM      7  C   UNL     1      95.526 122.197  81.984  0.00  0.00    +0.000 C 
ATOM      8  O   UNL     1      96.727 121.531  82.356  0.00  0.00    +0.000 OA
ENDBRANCH   1   8
BRANCH   4   9
ATOM      9  C   UNL     1      97.390 116.466  79.856  0.00  0.00    +0.000 C 
BRANCH   9  10
ATOM     10  C   UNL     1      97.622 116.525  78.338  0.00  0.00    +0.000 C 
BRANCH  10  11
ATOM     11  C   UNL     1      96.361 116.796  77.499  0.00  0.00    +0.000 C 
ATOM     12  S   UNL     1      96.564 116.550  75.701  0.00  0.00    +0.000 S 
ATOM     13  C   UNL     1      96.816 114.754  75.640  0.00  0.00    +0.000 C 
ATOM     14  C   UNL     1      95.636 113.970  76.195  0.00  0.00    +0.000 C 
ATOM     15  C   UNL     1      95.410 114.164  77.688  0.00  0.00    +0.000 C 
ATOM     16  S   UNL     1      94.920 115.856  78.121  0.00  0.00    +0.000 S 
ENDBRANCH  10  11
ENDBRANCH   9  10
ENDBRANCH   4   9
TORSDOF 4
ENDMDL
