MODEL 1
REMARK VINA RESULT:      -4.6      0.000      0.000
REMARK  Name = *****
REMARK  5 active torsions:
REMARK  status: ('A' for Active; 'I' for Inactive)
REMARK    1  A    between atoms: C_1  and  C_2
REMARK    2  A    between atoms: C_5  and  C_8
REMARK    3  A    between atoms: C_8  and  O_9
REMARK    4  A    between atoms: O_9  and  C_10
REMARK    5  A    between atoms: C_13  and  C_16
REMARK                            x       y       z     vdW  Elec       q    Type
REMARK                         _______ _______ _______ _____ _____    ______ ____
ROOT
ATOM      1  O   UNL     1      88.543  69.999  86.942  0.00  0.00    +0.000 OA
ENDROOT
BRANCH   1   2
ATOM      2  C   UNL     1      88.714  68.643  86.940  0.00  0.00    +0.000 A 
ATOM      3  C   UNL     1      89.786  67.948  86.381  0.00  0.00    +0.000 A 
ATOM      4  C   UNL     1      89.832  66.550  86.451  0.00  0.00    +0.000 A 
ATOM      5  C   UNL     1      88.806  65.829  87.077  0.00  0.00    +0.000 A 
ATOM      6  C   UNL     1      87.738  66.533  87.646  0.00  0.00    +0.000 A 
ATOM      7  C   UNL     1      87.693  67.927  87.571  0.00  0.00    +0.000 A 
BRANCH   5   8
ATOM      8  C   UNL     1      88.866  64.329  87.162  0.00  0.00    +0.000 C 
ATOM      9 CL   UNL     1      88.664  63.791  88.842  0.00  0.00    +0.000 Cl
ENDBRANCH   5   8
ENDBRANCH   1   2
BRANCH   1  10
ATOM     10  C   UNL     1      87.857  70.569  85.827  0.00  0.00    +0.000 C 
BRANCH  10  15
ATOM     11  C   UNL     1      82.961  73.137  87.686  0.00  0.00    +0.000 C 
ATOM     12  C   UNL     1      84.234  72.509  87.205  0.00  0.00    +0.000 A 
ATOM     13  C   UNL     1      84.501  72.398  85.836  0.00  0.00    +0.000 A 
ATOM     14  C   UNL     1      85.675  71.785  85.391  0.00  0.00    +0.000 A 
ATOM     15  C   UNL     1      86.605  71.271  86.305  0.00  0.00    +0.000 A 
ATOM     16  C   UNL     1      86.322  71.361  87.673  0.00  0.00    +0.000 A 
ATOM     17  C   UNL     1      85.148  71.974  88.120  0.00  0.00    +0.000 A 
ENDBRANCH  10  15
ENDBRANCH   1  10
TORSDOF 4
ENDMDL
