MODEL 1
REMARK VINA RESULT:      -5.1      0.000      0.000
REMARK  Name = *****
REMARK  8 active torsions:
REMARK  status: ('A' for Active; 'I' for Inactive)
REMARK    1  A    between atoms: C_1  and  C_2
REMARK    2  A    between atoms: C_3  and  C_20
REMARK    3  A    between atoms: C_4  and  C_19
REMARK    4  A    between atoms: C_5  and  C_10
REMARK    5  A    between atoms: C_6  and  C_9
REMARK    6  A    between atoms: C_7  and  C_8
REMARK    7  A    between atoms: C_10  and  C_12
REMARK    8  A    between atoms: C_12  and  C_13
REMARK                            x       y       z     vdW  Elec       q    Type
REMARK                         _______ _______ _______ _____ _____    ______ ____
ROOT
ATOM      1  C   UNL     1      84.772  71.911  89.520  0.00  0.00    +0.000 C 
ATOM      2  C   UNL     1      85.723  71.635  88.374  0.00  0.00    +0.000 A 
ATOM      3  C   UNL     1      85.337  71.950  87.043  0.00  0.00    +0.000 A 
ATOM      4  C   UNL     1      86.185  71.606  85.963  0.00  0.00    +0.000 A 
ATOM      5  C   UNL     1      87.435  71.006  86.242  0.00  0.00    +0.000 A 
ATOM      6  C   UNL     1      87.880  70.783  87.563  0.00  0.00    +0.000 A 
ATOM      7  C   UNL     1      87.020  71.117  88.638  0.00  0.00    +0.000 A 
ATOM      8  C   UNL     1      87.452  70.877  90.070  0.00  0.00    +0.000 C 
ATOM      9  C   UNL     1      89.252  70.215  87.844  0.00  0.00    +0.000 C 
ATOM     10  C   UNL     1      85.769  71.923  84.545  0.00  0.00    +0.000 C 
ATOM     11  C   UNL     1      83.998  72.608  86.784  0.00  0.00    +0.000 C 
ENDROOT
BRANCH   5  12
ATOM     12  C   UNL     1      88.294  70.584  85.110  0.00  0.00    +0.000 C 
ATOM     13  O   UNL     1      89.211  71.312  84.739  0.00  0.00    +0.000 OA
BRANCH  12  14
ATOM     14  C   UNL     1      87.966  69.248  84.469  0.00  0.00    +0.000 C 
BRANCH  14  15
ATOM     15  C   UNL     1      88.455  68.070  85.270  0.00  0.00    +0.000 A 
ATOM     16  C   UNL     1      87.574  67.343  86.082  0.00  0.00    +0.000 A 
ATOM     17  C   UNL     1      88.036  66.264  86.837  0.00  0.00    +0.000 A 
ATOM     18  C   UNL     1      89.383  65.905  86.792  0.00  0.00    +0.000 A 
ATOM     19  C   UNL     1      90.268  66.625  85.993  0.00  0.00    +0.000 A 
ATOM     20  C   UNL     1      89.808  67.703  85.236  0.00  0.00    +0.000 A 
ENDBRANCH  14  15
ENDBRANCH  12  14
ENDBRANCH   5  12
TORSDOF 3
ENDMDL
