MODEL 1
REMARK VINA RESULT:      -4.6      0.000      0.000
REMARK  Name = *****
REMARK  3 active torsions:
REMARK  status: ('A' for Active; 'I' for Inactive)
REMARK    1  A    between atoms: C_4  and  C_7
REMARK    2  A    between atoms: C_7  and  C_15
REMARK    3  A    between atoms: C_8  and  C_9
REMARK                            x       y       z     vdW  Elec       q    Type
REMARK                         _______ _______ _______ _____ _____    ______ ____
ROOT
ATOM      1  C   UNL     1     102.952 125.790  81.676  0.00  0.00    +0.000 C 
ATOM      2  C   UNL     1     101.933 125.830  82.557  0.00  0.00    +0.000 C 
ENDROOT
BRANCH   1   6
ATOM      3  C   UNL     1     105.455 122.310  81.598  0.00  0.00    +0.000 A 
ATOM      4  C   UNL     1     104.896 122.738  82.800  0.00  0.00    +0.000 A 
ATOM      5  C   UNL     1     104.082 123.873  82.829  0.00  0.00    +0.000 A 
ATOM      6  C   UNL     1     103.821 124.593  81.653  0.00  0.00    +0.000 A 
ATOM      7  C   UNL     1     104.386 124.148  80.449  0.00  0.00    +0.000 A 
ATOM      8  C   UNL     1     105.201 123.014  80.423  0.00  0.00    +0.000 A 
ENDBRANCH   1   6
BRANCH   2   9
ATOM      9  C   UNL     1     100.976 126.921  82.771  0.00  0.00    +0.000 A 
ATOM     10  C   UNL     1      99.639 126.848  82.394  0.00  0.00    +0.000 A 
ATOM     11  C   UNL     1      98.802 127.924  82.682  0.00  0.00    +0.000 A 
ATOM     12  C   UNL     1      99.317 129.028  83.348  0.00  0.00    +0.000 A 
ATOM     13  C   UNL     1     100.653 129.006  83.709  0.00  0.00    +0.000 A 
ATOM     14  N   UNL     1     101.486 127.975  83.447  0.00  0.00    +0.000 NA
ENDBRANCH   2   9
BRANCH   1  15
ATOM     15  C   UNL     1     103.258 126.876  80.798  0.00  0.00    +0.000 C 
ATOM     16  N   UNL     1     103.521 127.759  80.092  0.00  0.00    +0.000 NA
ENDBRANCH   1  15
TORSDOF 3
ENDMDL
