MODEL 1
REMARK VINA RESULT:      -4.3      0.000      0.000
REMARK  Name = *****
REMARK  3 active torsions:
REMARK  status: ('A' for Active; 'I' for Inactive)
REMARK    1  A    between atoms: C_4  and  N_7
REMARK    2  A    between atoms: N_7  and  P_8
REMARK    3  A    between atoms: P_8  and  C_10
REMARK                            x       y       z     vdW  Elec       q    Type
REMARK                         _______ _______ _______ _____ _____    ______ ____
ROOT
ATOM      1  P   UNL     1     103.261 126.277  82.164  0.00  0.00    +0.000 P 
ATOM      2  S   UNL     1     103.590 126.943  80.416  0.00  0.00    +0.000 S 
ENDROOT
BRANCH   1   3
ATOM      3  C   UNL     1     103.951 124.566  82.029  0.00  0.00    +0.000 A 
ATOM      4  C   UNL     1     104.331 124.106  80.755  0.00  0.00    +0.000 A 
ATOM      5  C   UNL     1     104.867 122.826  80.579  0.00  0.00    +0.000 A 
ATOM      6  C   UNL     1     105.035 121.983  81.674  0.00  0.00    +0.000 A 
ATOM      7  C   UNL     1     104.669 122.418  82.945  0.00  0.00    +0.000 A 
ATOM      8  C   UNL     1     104.133 123.697  83.119  0.00  0.00    +0.000 A 
ENDBRANCH   1   3
BRANCH   1   9
ATOM      9  N   UNL     1     101.763 125.976  82.016  0.00  0.00    +0.000 NA
BRANCH   9  13
ATOM     10  C   UNL     1      99.227 128.927  83.573  0.00  0.00    +0.000 A 
ATOM     11  C   UNL     1     100.605 129.037  83.738  0.00  0.00    +0.000 A 
ATOM     12  C   UNL     1     101.454 128.059  83.211  0.00  0.00    +0.000 A 
ATOM     13  C   UNL     1     100.955 126.960  82.487  0.00  0.00    +0.000 A 
ATOM     14  C   UNL     1      99.557 126.861  82.363  0.00  0.00    +0.000 A 
ATOM     15  C   UNL     1      98.702 127.835  82.888  0.00  0.00    +0.000 A 
ENDBRANCH   9  13
ENDBRANCH   1   9
TORSDOF 3
ENDMDL
