MODEL 1
REMARK VINA RESULT:      -4.9      0.000      0.000
REMARK  Name = *****
REMARK  2 active torsions:
REMARK  status: ('A' for Active; 'I' for Inactive)
REMARK    1  A    between atoms: C_5  and  C_7
REMARK    2  A    between atoms: C_8  and  C_9
REMARK                            x       y       z     vdW  Elec       q    Type
REMARK                         _______ _______ _______ _____ _____    ______ ____
ROOT
ATOM      1  C   UNL     1     101.976 126.241  82.175  0.00  0.00    +0.000 C 
ATOM      2  C   UNL     1     102.850 125.502  81.808  0.00  0.00    +0.000 C 
ENDROOT
BRANCH   1   7
ATOM      3  C   UNL     1      98.552 127.597  82.706  0.00  0.00    +0.000 A 
ATOM      4  C   UNL     1      98.808 128.765  83.422  0.00  0.00    +0.000 A 
ATOM      5  C   UNL     1     100.121 129.116  83.738  0.00  0.00    +0.000 A 
ATOM      6  C   UNL     1     101.184 128.297  83.337  0.00  0.00    +0.000 A 
ATOM      7  C   UNL     1     100.933 127.120  82.617  0.00  0.00    +0.000 A 
ATOM      8  C   UNL     1      99.610 126.779  82.306  0.00  0.00    +0.000 A 
ATOM      9  I   UNL     1     103.123 128.915  83.863  0.00  0.00    +0.000 I 
ENDBRANCH   1   7
BRANCH   2  10
ATOM     10  C   UNL     1     103.885 124.610  81.387  0.00  0.00    +0.000 A 
ATOM     11  C   UNL     1     104.486 124.782  80.135  0.00  0.00    +0.000 A 
ATOM     12  C   UNL     1     105.495 123.911  79.721  0.00  0.00    +0.000 A 
ATOM     13  C   UNL     1     105.895 122.876  80.561  0.00  0.00    +0.000 A 
ATOM     14  C   UNL     1     105.305 122.697  81.808  0.00  0.00    +0.000 A 
ATOM     15  C   UNL     1     104.296 123.568  82.224  0.00  0.00    +0.000 A 
ATOM     16  F   UNL     1     106.863 122.041  80.163  0.00  0.00    +0.000 F 
ENDBRANCH   2  10
TORSDOF 2
ENDMDL
