REMARK  Name = *****
REMARK  2 active torsions:
REMARK  status: ('A' for Active; 'I' for Inactive)
REMARK    1  A    between atoms: N_9  and  C_10
REMARK    2  A    between atoms: C_10  and  C_11
REMARK                            x       y       z     vdW  Elec       q    Type
REMARK                         _______ _______ _______ _____ _____    ______ ____
ROOT
ATOM      1  C   UNL     1       0.605  -2.147   2.078  0.00  0.00    +0.000 A 
ATOM      2  C   UNL     1       0.933  -0.997   2.799  0.00  0.00    +0.000 A 
ATOM      3  C   UNL     1       1.294   0.192   2.152  0.00  0.00    +0.000 A 
ATOM      4  C   UNL     1       1.307   0.169   0.754  0.00  0.00    +0.000 A 
ATOM      5  C   UNL     1       0.986  -0.964   0.014  0.00  0.00    +0.000 A 
ATOM      6  C   UNL     1       0.627  -2.146   0.677  0.00  0.00    +0.000 A 
ATOM      7  N   UNL     1       1.094  -0.690  -1.323  0.00  0.00    +0.000 NA
ATOM      8  N   UNL     1       1.476   0.573  -1.455  0.00  0.00    +0.000 NA
ATOM      9  N   UNL     1       1.590   1.095  -0.216  0.00  0.00    +0.000 N 
ENDROOT
BRANCH   9  10
ATOM     10  C   UNL     1       2.012   2.477  -0.053  0.00  0.00    +0.000 C 
BRANCH  10  11
ATOM     11  C   UNL     1       0.836   3.403   0.171  0.00  0.00    +0.000 A 
ATOM     12  C   UNL     1       0.677   4.171   1.337  0.00  0.00    +0.000 A 
ATOM     13  C   UNL     1      -0.425   5.020   1.492  0.00  0.00    +0.000 A 
ATOM     14  C   UNL     1      -1.375   5.115   0.481  0.00  0.00    +0.000 A 
ATOM     15  C   UNL     1      -1.235   4.374  -0.687  0.00  0.00    +0.000 A 
ATOM     16  C   UNL     1      -0.135   3.528  -0.843  0.00  0.00    +0.000 A 
ATOM     17 CL   UNL     1      -2.727   6.160   0.673  0.00  0.00    +0.000 Cl
ATOM     18 CL   UNL     1       1.820   4.129   2.632  0.00  0.00    +0.000 Cl
ENDBRANCH  10  11
ENDBRANCH   9  10
TORSDOF 2
