REMARK  Name = *****
REMARK  2 active torsions:
REMARK  status: ('A' for Active; 'I' for Inactive)
REMARK    1  A    between atoms: C_4  and  C_7
REMARK    2  A    between atoms: N_8  and  C_9
REMARK                            x       y       z     vdW  Elec       q    Type
REMARK                         _______ _______ _______ _____ _____    ______ ____
ROOT
ATOM      1  C   UNL     1      -2.789   0.546   0.031  0.00  0.00    +0.000 C 
ATOM      2  N   UNL     1      -3.244   1.757  -0.088  0.00  0.00    +0.000 NA
ATOM      3 CL   UNL     1      -4.031  -0.655   0.237  0.00  0.00    +0.000 Cl
ENDROOT
BRANCH   1   7
ATOM      4  C   UNL     1       1.281  -0.758  -0.017  0.00  0.00    +0.000 A 
ATOM      5  C   UNL     1       0.454  -1.084   1.059  0.00  0.00    +0.000 A 
ATOM      6  C   UNL     1      -0.874  -0.653   1.074  0.00  0.00    +0.000 A 
ATOM      7  C   UNL     1      -1.368   0.112   0.011  0.00  0.00    +0.000 A 
ATOM      8  C   UNL     1      -0.543   0.425  -1.074  0.00  0.00    +0.000 A 
ATOM      9  C   UNL     1       0.784  -0.007  -1.083  0.00  0.00    +0.000 A 
ENDBRANCH   1   7
BRANCH   2  10
ATOM     10  C   UNL     1      -2.383   2.856  -0.193  0.00  0.00    +0.000 A 
ATOM     11  C   UNL     1      -2.344   3.582  -1.387  0.00  0.00    +0.000 A 
ATOM     12  C   UNL     1      -1.513   4.697  -1.513  0.00  0.00    +0.000 A 
ATOM     13  C   UNL     1      -0.726   5.103  -0.437  0.00  0.00    +0.000 A 
ATOM     14  C   UNL     1      -0.781   4.404   0.768  0.00  0.00    +0.000 A 
ATOM     15  C   UNL     1      -1.615   3.291   0.892  0.00  0.00    +0.000 A 
ENDBRANCH   2  10
TORSDOF 2
