MODEL 1
REMARK VINA RESULT:      -4.2      0.000      0.000
REMARK  Name = *****
REMARK  3 active torsions:
REMARK  status: ('A' for Active; 'I' for Inactive)
REMARK    1  A    between atoms: C_1  and  C_2
REMARK    2  A    between atoms: C_5  and  C_8
REMARK    3  A    between atoms: C_9  and  C_10
REMARK                            x       y       z     vdW  Elec       q    Type
REMARK                         _______ _______ _______ _____ _____    ______ ____
ROOT
ATOM      1  C   UNL     1      99.036 129.420  84.682  0.00  0.00    +0.000 C 
ATOM      2  C   UNL     1      99.959 128.589  83.841  0.00  0.00    +0.000 A 
ATOM      3  C   UNL     1      99.475 127.472  83.149  0.00  0.00    +0.000 A 
ATOM      4  C   UNL     1     100.343 126.677  82.393  0.00  0.00    +0.000 A 
ATOM      5  C   UNL     1     101.701 126.986  82.332  0.00  0.00    +0.000 A 
ATOM      6  C   UNL     1     102.194 128.090  83.030  0.00  0.00    +0.000 A 
ATOM      7  C   UNL     1     101.327 128.884  83.786  0.00  0.00    +0.000 A 
ENDROOT
BRANCH   5   8
ATOM      8  C   UNL     1     102.589 126.170  81.563  0.00  0.00    +0.000 C 
ATOM      9  C   UNL     1     103.338 125.484  80.921  0.00  0.00    +0.000 C 
BRANCH   9  10
ATOM     10  C   UNL     1     104.261 124.644  80.145  0.00  0.00    +0.000 C 
ATOM     11  C   UNL     1     104.691 123.386  80.917  0.00  0.00    +0.000 C 
ATOM     12  C   UNL     1     106.206 123.486  81.071  0.00  0.00    +0.000 C 
ATOM     13  C   UNL     1     106.639 124.322  79.879  0.00  0.00    +0.000 C 
ATOM     14  C   UNL     1     105.557 125.388  79.806  0.00  0.00    +0.000 C 
ENDBRANCH   9  10
ENDBRANCH   5   8
TORSDOF 2
ENDMDL
