MODEL 1
REMARK VINA RESULT:      -4.9      0.000      0.000
REMARK  Name = *****
REMARK  5 active torsions:
REMARK  status: ('A' for Active; 'I' for Inactive)
REMARK    1  A    between atoms: C_4  and  C_7
REMARK    2  A    between atoms: C_7  and  C_8
REMARK    3  A    between atoms: C_8  and  C_9
REMARK    4  A    between atoms: C_12  and  C_15
REMARK    5  A    between atoms: C_15  and  C_17
REMARK                            x       y       z     vdW  Elec       q    Type
REMARK                         _______ _______ _______ _____ _____    ______ ____
ROOT
ATOM      1  C   UNL     1      88.764  68.777  86.995  0.00  0.00    +0.000 A 
ATOM      2  C   UNL     1      89.845  68.101  86.416  0.00  0.00    +0.000 A 
ATOM      3  C   UNL     1      89.892  66.702  86.412  0.00  0.00    +0.000 A 
ATOM      4  C   UNL     1      88.854  65.959  86.984  0.00  0.00    +0.000 A 
ATOM      5  C   UNL     1      87.771  66.637  87.562  0.00  0.00    +0.000 A 
ATOM      6  C   UNL     1      87.725  68.034  87.564  0.00  0.00    +0.000 A 
ENDROOT
BRANCH   4   7
ATOM      7  C   UNL     1      88.838  64.462  87.006  0.00  0.00    +0.000 C 
ATOM      8  O   UNL     1      89.537  63.841  86.203  0.00  0.00    +0.000 OA
BRANCH   7   9
ATOM      9  C   UNL     1      87.998  63.732  88.027  0.00  0.00    +0.000 C 
ATOM     10 CL   UNL     1      88.819  63.741  89.596  0.00  0.00    +0.000 Cl
ENDBRANCH   7   9
ENDBRANCH   4   7
BRANCH   1  11
ATOM     11  C   UNL     1      88.708  70.286  86.981  0.00  0.00    +0.000 C 
BRANCH  11  12
ATOM     12  C   UNL     1      87.821  70.807  85.847  0.00  0.00    +0.000 C 
BRANCH  12  16
ATOM     13  C   UNL     1      84.140  72.481  87.346  0.00  0.00    +0.000 A 
ATOM     14  C   UNL     1      85.094  71.986  88.234  0.00  0.00    +0.000 A 
ATOM     15  C   UNL     1      86.288  71.450  87.751  0.00  0.00    +0.000 A 
ATOM     16  C   UNL     1      86.540  71.406  86.373  0.00  0.00    +0.000 A 
ATOM     17  C   UNL     1      85.573  71.900  85.488  0.00  0.00    +0.000 A 
ATOM     18  C   UNL     1      84.379  72.437  85.974  0.00  0.00    +0.000 A 
ENDBRANCH  12  16
ENDBRANCH  11  12
ENDBRANCH   1  11
TORSDOF 5
ENDMDL
