MODEL 1
REMARK VINA RESULT:      -5.1      0.000      0.000
REMARK  Name = *****
REMARK  5 active torsions:
REMARK  status: ('A' for Active; 'I' for Inactive)
REMARK    1  A    between atoms: C_1  and  C_2
REMARK    2  A    between atoms: C_4  and  C_9
REMARK    3  A    between atoms: C_5  and  C_8
REMARK    4  A    between atoms: C_10  and  C_11
REMARK    5  A    between atoms: C_16  and  C_17
REMARK                            x       y       z     vdW  Elec       q    Type
REMARK                         _______ _______ _______ _____ _____    ______ ____
ROOT
ATOM      1  C   UNL     1     103.021 126.098  82.870  0.00  0.00    +0.000 C 
ATOM      2  C   UNL     1     101.703 126.318  82.755  0.00  0.00    +0.000 C 
ENDROOT
BRANCH   1   6
ATOM      3  C   UNL     1     104.890 121.589  83.953  0.00  0.00    +0.000 C 
ATOM      4  C   UNL     1     104.561 122.648  82.943  0.00  0.00    +0.000 A 
ATOM      5  C   UNL     1     103.944 123.841  83.338  0.00  0.00    +0.000 A 
ATOM      6  C   UNL     1     103.657 124.855  82.408  0.00  0.00    +0.000 A 
ATOM      7  C   UNL     1     104.016 124.678  81.058  0.00  0.00    +0.000 A 
ATOM      8  C   UNL     1     104.653 123.488  80.673  0.00  0.00    +0.000 A 
ATOM      9  C   UNL     1     104.925 122.486  81.605  0.00  0.00    +0.000 A 
ATOM     10  C   UNL     1     103.743 125.732  80.019  0.00  0.00    +0.000 C 
ENDBRANCH   1   6
BRANCH   2  11
ATOM     11  C   UNL     1     101.090 127.577  83.191  0.00  0.00    +0.000 A 
ATOM     12  C   UNL     1     101.910 128.547  83.788  0.00  0.00    +0.000 A 
ATOM     13  C   UNL     1     101.377 129.759  84.232  0.00  0.00    +0.000 A 
ATOM     14  C   UNL     1     100.017 130.018  84.087  0.00  0.00    +0.000 A 
ATOM     15  C   UNL     1      99.188 129.066  83.493  0.00  0.00    +0.000 A 
ATOM     16  C   UNL     1      99.718 127.848  83.044  0.00  0.00    +0.000 A 
BRANCH  16  17
ATOM     17  C   UNL     1      98.800 126.876  82.406  0.00  0.00    +0.000 C 
ATOM     18  O   UNL     1      97.582 126.959  82.521  0.00  0.00    +0.000 OA
ENDBRANCH  16  17
ENDBRANCH   2  11
TORSDOF 3
ENDMDL
