MODEL 1
REMARK VINA RESULT:      -4.2      0.000      0.000
REMARK  Name = *****
REMARK  2 active torsions:
REMARK  status: ('A' for Active; 'I' for Inactive)
REMARK    1  A    between atoms: C_6  and  C_7
REMARK    2  A    between atoms: C_8  and  C_9
REMARK                            x       y       z     vdW  Elec       q    Type
REMARK                         _______ _______ _______ _____ _____    ______ ____
ROOT
ATOM      1  C   UNL     1     104.001 124.200  82.307  0.00  0.00    +0.000 A 
ATOM      2  C   UNL     1     104.998 123.250  82.066  0.00  0.00    +0.000 A 
ATOM      3  C   UNL     1     105.660 123.236  80.840  0.00  0.00    +0.000 A 
ATOM      4  C   UNL     1     105.336 124.167  79.855  0.00  0.00    +0.000 A 
ATOM      5  C   UNL     1     104.338 125.116  80.098  0.00  0.00    +0.000 A 
ATOM      6  C   UNL     1     103.651 125.132  81.319  0.00  0.00    +0.000 A 
ATOM      7 CL   UNL     1     106.889 122.070  80.544  0.00  0.00    +0.000 Cl
ENDROOT
BRANCH   6   8
ATOM      8  C   UNL     1     102.630 126.164  81.546  0.00  0.00    +0.000 C 
ATOM      9  C   UNL     1     101.645 126.049  82.454  0.00  0.00    +0.000 C 
BRANCH   9  10
ATOM     10  C   UNL     1     100.613 127.011  82.722  0.00  0.00    +0.000 A 
ATOM     11  C   UNL     1     100.797 128.238  83.326  0.00  0.00    +0.000 A 
ATOM     12  S   UNL     1      99.336 129.118  83.484  0.00  0.00    +0.000 S 
ATOM     13  C   UNL     1      98.439 127.864  82.745  0.00  0.00    +0.000 A 
ATOM     14  C   UNL     1      99.238 126.801  82.389  0.00  0.00    +0.000 A 
ENDBRANCH   9  10
ENDBRANCH   6   8
TORSDOF 2
ENDMDL
