REMARK  Name = *****
REMARK  5 active torsions:
REMARK  status: ('A' for Active; 'I' for Inactive)
REMARK    1  A    between atoms: C_1  and  C_2
REMARK    2  A    between atoms: C_4  and  C_18
REMARK    3  A    between atoms: C_6  and  C_8
REMARK    4  A    between atoms: C_9  and  C_10
REMARK    5  A    between atoms: C_13  and  C_16
REMARK                            x       y       z     vdW  Elec       q    Type
REMARK                         _______ _______ _______ _____ _____    ______ ____
ROOT
ATOM      1  C   UNL     1      -2.551   0.910  -0.127  0.00  0.00    +0.000 C 
ATOM      2  C   UNL     1      -3.744   0.309   0.007  0.00  0.00    +0.000 C 
ENDROOT
BRANCH   1   8
ATOM      3  C   UNL     1       2.232   0.897   1.287  0.00  0.00    +0.000 C 
ATOM      4  C   UNL     1       1.071   0.198   0.644  0.00  0.00    +0.000 A 
ATOM      5  C   UNL     1       1.240  -1.059   0.051  0.00  0.00    +0.000 A 
ATOM      6  C   UNL     1       0.168  -1.703  -0.579  0.00  0.00    +0.000 A 
ATOM      7  C   UNL     1      -1.076  -1.060  -0.639  0.00  0.00    +0.000 A 
ATOM      8  C   UNL     1      -1.267   0.197  -0.051  0.00  0.00    +0.000 A 
ATOM      9  C   UNL     1      -0.181   0.824   0.573  0.00  0.00    +0.000 A 
ATOM     10  C   UNL     1       0.366  -3.032  -1.247  0.00  0.00    +0.000 C 
ENDBRANCH   1   8
BRANCH   2  11
ATOM     11  C   UNL     1      -5.028   1.021  -0.051  0.00  0.00    +0.000 A 
ATOM     12  C   UNL     1      -5.265   2.059  -0.963  0.00  0.00    +0.000 A 
ATOM     13  C   UNL     1      -6.509   2.695  -1.009  0.00  0.00    +0.000 A 
ATOM     14  C   UNL     1      -7.530   2.286  -0.149  0.00  0.00    +0.000 A 
ATOM     15  C   UNL     1      -7.315   1.243   0.754  0.00  0.00    +0.000 A 
ATOM     16  C   UNL     1      -6.068   0.611   0.796  0.00  0.00    +0.000 A 
BRANCH  14  17
ATOM     17  C   UNL     1      -8.848   2.950  -0.190  0.00  0.00    +0.000 C 
ATOM     18  O   UNL     1      -9.093   3.868  -0.963  0.00  0.00    +0.000 OA
ENDBRANCH  14  17
ENDBRANCH   2  11
TORSDOF 3
