MODEL 1
REMARK VINA RESULT:      -5.1      0.000      0.000
REMARK  Name = *****
REMARK  2 active torsions:
REMARK  status: ('A' for Active; 'I' for Inactive)
REMARK    1  A    between atoms: C_1  and  C_2
REMARK    2  A    between atoms: C_11  and  C_12
REMARK                            x       y       z     vdW  Elec       q    Type
REMARK                         _______ _______ _______ _____ _____    ______ ____
ROOT
ATOM      1  C   UNL     1      90.032  69.805  84.238  0.00  0.00    +0.000 C 
ATOM      2  C   UNL     1      89.064  70.119  85.349  0.00  0.00    +0.000 C 
ATOM      3  C   UNL     1      88.003  70.914  85.117  0.00  0.00    +0.000 C 
ATOM      4  C   UNL     1      87.004  71.246  86.138  0.00  0.00    +0.000 A 
ATOM      5  C   UNL     1      85.780  71.796  85.726  0.00  0.00    +0.000 A 
ATOM      6  C   UNL     1      84.802  72.145  86.661  0.00  0.00    +0.000 A 
ATOM      7  C   UNL     1      85.043  71.955  88.018  0.00  0.00    +0.000 A 
ATOM      8  C   UNL     1      86.259  71.418  88.439  0.00  0.00    +0.000 A 
ATOM      9  C   UNL     1      87.242  71.057  87.508  0.00  0.00    +0.000 A 
ATOM     10  S   UNL     1      88.782  70.413  88.134  0.00  0.00    +0.000 S 
ATOM     11  C   UNL     1      89.397  69.480  86.686  0.00  0.00    +0.000 C 
ENDROOT
BRANCH  11  12
ATOM     12  C   UNL     1      89.030  68.004  86.773  0.00  0.00    +0.000 A 
ATOM     13  C   UNL     1      87.800  67.571  87.297  0.00  0.00    +0.000 A 
ATOM     14  C   UNL     1      87.491  66.212  87.368  0.00  0.00    +0.000 A 
ATOM     15  C   UNL     1      88.407  65.263  86.921  0.00  0.00    +0.000 A 
ATOM     16  C   UNL     1      89.634  65.672  86.405  0.00  0.00    +0.000 A 
ATOM     17  C   UNL     1      89.945  67.031  86.334  0.00  0.00    +0.000 A 
ENDBRANCH  11  12
TORSDOF 1
ENDMDL
