REMARK  Name = *****
REMARK  2 active torsions:
REMARK  status: ('A' for Active; 'I' for Inactive)
REMARK    1  A    between atoms: C_4  and  C_7
REMARK    2  A    between atoms: C_8  and  C_9
REMARK                            x       y       z     vdW  Elec       q    Type
REMARK                         _______ _______ _______ _____ _____    ______ ____
ROOT
ATOM      1  C   UNL     1      -2.824   0.444  -0.320  0.00  0.00    +0.000 C 
ATOM      2  C   UNL     1      -3.765  -0.512  -0.276  0.00  0.00    +0.000 C 
ENDROOT
BRANCH   1   6
ATOM      3  C   UNL     1       1.376  -0.185   0.189  0.00  0.00    +0.000 A 
ATOM      4  C   UNL     1       0.622  -1.128  -0.505  0.00  0.00    +0.000 A 
ATOM      5  C   UNL     1      -0.753  -0.939  -0.674  0.00  0.00    +0.000 A 
ATOM      6  C   UNL     1      -1.388   0.190  -0.140  0.00  0.00    +0.000 A 
ATOM      7  C   UNL     1      -0.615   1.140   0.541  0.00  0.00    +0.000 A 
ATOM      8  C   UNL     1       0.759   0.951   0.710  0.00  0.00    +0.000 A 
ENDBRANCH   1   6
BRANCH   2   9
ATOM      9  C   UNL     1      -5.142  -0.195  -0.447  0.00  0.00    +0.000 A 
ATOM     10  C   UNL     1      -6.235  -1.055  -0.431  0.00  0.00    +0.000 A 
ATOM     11  C   UNL     1      -7.402  -0.284  -0.645  0.00  0.00    +0.000 A 
ATOM     12  C   UNL     1      -6.974   1.010  -0.782  0.00  0.00    +0.000 A 
ATOM     13  O   UNL     1      -5.626   1.077  -0.666  0.00  0.00    +0.000 OA
ENDBRANCH   2   9
TORSDOF 2
