REMARK  Name = *****
REMARK  2 active torsions:
REMARK  status: ('A' for Active; 'I' for Inactive)
REMARK    1  A    between atoms: C_1  and  C_2
REMARK    2  A    between atoms: C_4  and  C_12
REMARK                            x       y       z     vdW  Elec       q    Type
REMARK                         _______ _______ _______ _____ _____    ______ ____
ROOT
ATOM      1  C   UNL     1       0.991  -0.011  -0.287  0.00  0.00    +0.000 C 
ATOM      2  C   UNL     1       2.485  -0.090  -0.149  0.00  0.00    +0.000 C 
ATOM      3  C   UNL     1       3.119  -1.277  -0.191  0.00  0.00    +0.000 C 
ATOM      4  C   UNL     1       4.612  -1.451  -0.066  0.00  0.00    +0.000 C 
ATOM      5  C   UNL     1       5.392  -0.160  -0.386  0.00  0.00    +0.000 C 
ATOM      6  C   UNL     1       4.677   1.113   0.004  0.00  0.00    +0.000 A 
ATOM      7  C   UNL     1       5.429   2.281   0.216  0.00  0.00    +0.000 A 
ATOM      8  C   UNL     1       4.795   3.482   0.521  0.00  0.00    +0.000 A 
ATOM      9  C   UNL     1       3.408   3.529   0.604  0.00  0.00    +0.000 A 
ATOM     10  C   UNL     1       2.653   2.373   0.383  0.00  0.00    +0.000 A 
ATOM     11  C   UNL     1       3.270   1.149   0.079  0.00  0.00    +0.000 A 
ENDROOT
BRANCH   4  12
ATOM     12  C   UNL     1       4.996  -2.057   1.279  0.00  0.00    +0.000 A 
ATOM     13  C   UNL     1       5.562  -3.341   1.331  0.00  0.00    +0.000 A 
ATOM     14  C   UNL     1       5.924  -3.914   2.553  0.00  0.00    +0.000 A 
ATOM     15  C   UNL     1       5.724  -3.213   3.739  0.00  0.00    +0.000 A 
ATOM     16  C   UNL     1       5.159  -1.940   3.706  0.00  0.00    +0.000 A 
ATOM     17  C   UNL     1       4.797  -1.366   2.485  0.00  0.00    +0.000 A 
ENDBRANCH   4  12
TORSDOF 1
