MODEL 1
REMARK VINA RESULT:      -4.9      0.000      0.000
REMARK  Name = *****
REMARK  3 active torsions:
REMARK  status: ('A' for Active; 'I' for Inactive)
REMARK    1  A    between atoms: C_3  and  C_4
REMARK    2  A    between atoms: C_7  and  C_9
REMARK    3  A    between atoms: C_10  and  C_11
REMARK                            x       y       z     vdW  Elec       q    Type
REMARK                         _______ _______ _______ _____ _____    ______ ____
ROOT
ATOM      1  C   UNL     1     102.785 126.085  81.169  0.00  0.00    +0.000 C 
ATOM      2  C   UNL     1     101.999 125.980  82.252  0.00  0.00    +0.000 C 
ENDROOT
BRANCH   2   3
ATOM      3  C   UNL     1     101.023 127.014  82.635  0.00  0.00    +0.000 A 
ATOM      4  C   UNL     1      99.658 126.808  82.375  0.00  0.00    +0.000 A 
ATOM      5  C   UNL     1      98.705 127.759  82.750  0.00  0.00    +0.000 A 
ATOM      6  C   UNL     1      99.101 128.925  83.399  0.00  0.00    +0.000 A 
ATOM      7  C   UNL     1     100.451 129.141  83.678  0.00  0.00    +0.000 A 
ATOM      8  C   UNL     1     101.407 128.191  83.304  0.00  0.00    +0.000 A 
ATOM      9 CL   UNL     1     103.062 128.534  83.679  0.00  0.00    +0.000 Cl
ENDBRANCH   2   3
BRANCH   1  13
ATOM     10  C   UNL     1     104.870 123.252  80.835  0.00  0.00    +0.000 A 
ATOM     11  N   UNL     1     105.318 123.964  79.826  0.00  0.00    +0.000 NA
ATOM     12  N   UNL     1     104.587 125.131  79.821  0.00  0.00    +0.000 NA
ATOM     13  C   UNL     1     103.727 125.077  80.828  0.00  0.00    +0.000 A 
ATOM     14  O   UNL     1     103.867 123.883  81.513  0.00  0.00    +0.000 OA
BRANCH  10  17
ATOM     15  C   UNL     1     104.441 120.731  81.346  0.00  0.00    +0.000 C 
ATOM     16  C   UNL     1     105.095 121.305  82.555  0.00  0.00    +0.000 C 
ATOM     17  C   UNL     1     105.417 121.881  81.191  0.00  0.00    +0.000 C 
ENDBRANCH  10  17
ENDBRANCH   1  13
TORSDOF 3
ENDMDL
