MODEL 1
REMARK VINA RESULT:      -4.7      0.000      0.000
REMARK  Name = *****
REMARK  4 active torsions:
REMARK  status: ('A' for Active; 'I' for Inactive)
REMARK    1  A    between atoms: C_1  and  O_2
REMARK    2  A    between atoms: O_2  and  C_3
REMARK    3  A    between atoms: C_8  and  C_9
REMARK    4  A    between atoms: C_10  and  C_11
REMARK                            x       y       z     vdW  Elec       q    Type
REMARK                         _______ _______ _______ _____ _____    ______ ____
ROOT
ATOM      1  C   UNL     1     101.981 126.227  82.202  0.00  0.00    +0.000 C 
ATOM      2  C   UNL     1     102.848 125.473  81.852  0.00  0.00    +0.000 C 
ENDROOT
BRANCH   2   3
ATOM      3  C   UNL     1     103.886 124.581  81.438  0.00  0.00    +0.000 A 
ATOM      4  C   UNL     1     104.310 123.556  82.290  0.00  0.00    +0.000 A 
ATOM      5  C   UNL     1     105.324 122.686  81.884  0.00  0.00    +0.000 A 
ATOM      6  C   UNL     1     105.906 122.850  80.631  0.00  0.00    +0.000 A 
ATOM      7  C   UNL     1     105.492 123.866  79.775  0.00  0.00    +0.000 A 
ATOM      8  C   UNL     1     104.478 124.735  80.180  0.00  0.00    +0.000 A 
ATOM      9  F   UNL     1     106.879 122.016  80.241  0.00  0.00    +0.000 F 
ENDBRANCH   2   3
BRANCH   1  15
ATOM     10  C   UNL     1     101.245 128.311  83.324  0.00  0.00    +0.000 A 
ATOM     11  C   UNL     1     100.196 129.155  83.706  0.00  0.00    +0.000 A 
ATOM     12  C   UNL     1      98.872 128.827  83.395  0.00  0.00    +0.000 A 
ATOM     13  C   UNL     1      98.583 127.656  82.702  0.00  0.00    +0.000 A 
ATOM     14  C   UNL     1      99.618 126.808  82.315  0.00  0.00    +0.000 A 
ATOM     15  C   UNL     1     100.947 127.129  82.621  0.00  0.00    +0.000 A 
BRANCH  10  17
ATOM     16  C   UNL     1     102.910 129.800  84.170  0.00  0.00    +0.000 C 
ATOM     17  O   UNL     1     102.570 128.550  83.585  0.00  0.00    +0.000 OA
ENDBRANCH  10  17
ENDBRANCH   1  15
TORSDOF 3
ENDMDL
