MODEL 1
REMARK VINA RESULT:      -4.5      0.000      0.000
REMARK  Name = *****
REMARK  4 active torsions:
REMARK  status: ('A' for Active; 'I' for Inactive)
REMARK    1  A    between atoms: C_4  and  C_7
REMARK    2  A    between atoms: C_7  and  C_8
REMARK    3  A    between atoms: C_8  and  S_10
REMARK    4  A    between atoms: S_10  and  C_11
REMARK                            x       y       z     vdW  Elec       q    Type
REMARK                         _______ _______ _______ _____ _____    ______ ____
ROOT
ATOM      1  C   UNL     1     102.785 125.405  83.379  0.00  0.00    +0.000 C 
ATOM      2  O   UNL     1     102.355 125.100  84.484  0.00  0.00    +0.000 OA
ENDROOT
BRANCH   1   3
ATOM      3  C   UNL     1     101.961 125.951  82.216  0.00  0.00    +0.000 C 
BRANCH   3   7
ATOM      4  C   UNL     1      99.228 129.252  83.142  0.00  0.00    +0.000 C 
ATOM      5  C   UNL     1     100.482 129.105  83.995  0.00  0.00    +0.000 C 
ATOM      6  C   UNL     1     101.536 128.249  83.287  0.00  0.00    +0.000 C 
ATOM      7  C   UNL     1     100.966 127.010  82.632  0.00  0.00    +0.000 C 
ATOM      8  C   UNL     1      99.641 126.853  82.451  0.00  0.00    +0.000 C 
ATOM      9  C   UNL     1      98.618 127.887  82.824  0.00  0.00    +0.000 C 
ENDBRANCH   3   7
ENDBRANCH   1   3
BRANCH   1  10
ATOM     10  S   UNL     1     104.512 125.268  83.020  0.00  0.00    +0.000 S 
BRANCH  10  11
ATOM     11  C   UNL     1     104.566 123.596  82.405  0.00  0.00    +0.000 A 
ATOM     12  C   UNL     1     104.462 122.532  83.307  0.00  0.00    +0.000 A 
ATOM     13  C   UNL     1     104.499 121.212  82.848  0.00  0.00    +0.000 A 
ATOM     14  C   UNL     1     104.634 120.951  81.485  0.00  0.00    +0.000 A 
ATOM     15  C   UNL     1     104.726 122.007  80.580  0.00  0.00    +0.000 A 
ATOM     16  C   UNL     1     104.689 123.326  81.038  0.00  0.00    +0.000 A 
ENDBRANCH  10  11
ENDBRANCH   1  10
TORSDOF 4
ENDMDL
