MODEL 1
REMARK VINA RESULT:      -5.0      0.000      0.000
REMARK  Name = *****
REMARK  2 active torsions:
REMARK  status: ('A' for Active; 'I' for Inactive)
REMARK    1  A    between atoms: C_4  and  N_7
REMARK    2  A    between atoms: C_8  and  C_9
REMARK                            x       y       z     vdW  Elec       q    Type
REMARK                         _______ _______ _______ _____ _____    ______ ____
ROOT
ATOM      1  C   UNL     1     103.701 125.254  81.365  0.00  0.00    +0.000 A 
ATOM      2  C   UNL     1     104.270 125.370  80.092  0.00  0.00    +0.000 A 
ATOM      3  C   UNL     1     105.168 124.397  79.658  0.00  0.00    +0.000 A 
ATOM      4  C   UNL     1     105.499 123.322  80.475  0.00  0.00    +0.000 A 
ATOM      5  C   UNL     1     104.931 123.212  81.737  0.00  0.00    +0.000 A 
ATOM      6  C   UNL     1     104.032 124.176  82.184  0.00  0.00    +0.000 A 
ATOM      7  F   UNL     1     103.492 124.058  83.406  0.00  0.00    +0.000 F 
ATOM      8  F   UNL     1     105.248 122.177  82.528  0.00  0.00    +0.000 F 
ATOM      9  F   UNL     1     106.365 122.393  80.045  0.00  0.00    +0.000 F 
ATOM     10  F   UNL     1     105.713 124.507  78.440  0.00  0.00    +0.000 F 
ENDROOT
BRANCH   1  12
ATOM     11  N   UNL     1     101.518 125.948  82.116  0.00  0.00    +0.000 NA
ATOM     12  C   UNL     1     102.748 126.260  81.861  0.00  0.00    +0.000 C 
BRANCH  11  16
ATOM     13  C   UNL     1      99.094 129.067  83.547  0.00  0.00    +0.000 A 
ATOM     14  C   UNL     1      98.516 127.984  82.888  0.00  0.00    +0.000 A 
ATOM     15  C   UNL     1      99.321 126.947  82.413  0.00  0.00    +0.000 A 
ATOM     16  C   UNL     1     100.707 126.992  82.583  0.00  0.00    +0.000 A 
ATOM     17  C   UNL     1     101.278 128.075  83.258  0.00  0.00    +0.000 A 
ATOM     18  C   UNL     1     100.475 129.113  83.735  0.00  0.00    +0.000 A 
ENDBRANCH  11  16
ENDBRANCH   1  12
TORSDOF 2
ENDMDL
