MODEL 1
REMARK VINA RESULT:      -5.0      0.000      0.000
REMARK  Name = *****
REMARK  1 active torsions:
REMARK  status: ('A' for Active; 'I' for Inactive)
REMARK    1  A    between atoms: C_5  and  C_7
REMARK                            x       y       z     vdW  Elec       q    Type
REMARK                         _______ _______ _______ _____ _____    ______ ____
ROOT
ATOM      1  C   UNL     1     102.069 126.195  82.524  0.00  0.00    +0.000 A 
ATOM      2  N   UNL     1     102.563 125.249  83.306  0.00  0.00    +0.000 NA
ATOM      3  C   UNL     1     103.463 124.594  82.503  0.00  0.00    +0.000 A 
ATOM      4  C   UNL     1     104.298 123.499  82.753  0.00  0.00    +0.000 A 
ATOM      5  C   UNL     1     105.123 123.045  81.712  0.00  0.00    +0.000 A 
ATOM      6  C   UNL     1     105.113 123.666  80.457  0.00  0.00    +0.000 A 
ATOM      7  C   UNL     1     104.282 124.762  80.192  0.00  0.00    +0.000 A 
ATOM      8  C   UNL     1     103.482 125.179  81.249  0.00  0.00    +0.000 A 
ATOM      9  O   UNL     1     102.591 126.210  81.255  0.00  0.00    +0.000 OA
ENDROOT
BRANCH   1  14
ATOM     10  C   UNL     1     100.519 129.349  83.873  0.00  0.00    +0.000 A 
ATOM     11  C   UNL     1      99.180 129.193  83.522  0.00  0.00    +0.000 A 
ATOM     12  C   UNL     1      98.776 128.049  82.837  0.00  0.00    +0.000 A 
ATOM     13  C   UNL     1      99.711 127.066  82.505  0.00  0.00    +0.000 A 
ATOM     14  C   UNL     1     101.061 127.200  82.846  0.00  0.00    +0.000 A 
ATOM     15  C   UNL     1     101.451 128.362  83.538  0.00  0.00    +0.000 A 
ATOM     16  F   UNL     1      99.264 125.986  81.846  0.00  0.00    +0.000 F 
ENDBRANCH   1  14
TORSDOF 1
ENDMDL
