MODEL 1
REMARK VINA RESULT:      -5.0      0.000      0.000
REMARK  Name = *****
REMARK  3 active torsions:
REMARK  status: ('A' for Active; 'I' for Inactive)
REMARK    1  A    between atoms: C_3  and  C_20
REMARK    2  A    between atoms: C_6  and  C_7
REMARK    3  A    between atoms: C_8  and  C_9
REMARK                            x       y       z     vdW  Elec       q    Type
REMARK                         _______ _______ _______ _____ _____    ______ ____
ROOT
ATOM      1  C   UNL     1     103.981 124.772  81.780  0.00  0.00    +0.000 A 
ATOM      2  C   UNL     1     104.549 124.780  80.498  0.00  0.00    +0.000 A 
ATOM      3  C   UNL     1     105.306 123.703  80.039  0.00  0.00    +0.000 A 
ATOM      4  C   UNL     1     105.521 122.603  80.855  0.00  0.00    +0.000 A 
ATOM      5  C   UNL     1     104.985 122.579  82.132  0.00  0.00    +0.000 A 
ATOM      6  C   UNL     1     104.229 123.655  82.592  0.00  0.00    +0.000 A 
ATOM      7  F   UNL     1     103.728 123.607  83.836  0.00  0.00    +0.000 F 
ATOM      8  F   UNL     1     105.197 121.523  82.929  0.00  0.00    +0.000 F 
ATOM      9  F   UNL     1     106.249 121.570  80.411  0.00  0.00    +0.000 F 
ATOM     10  F   UNL     1     105.833 123.736  78.807  0.00  0.00    +0.000 F 
ATOM     11  F   UNL     1     104.388 125.837  79.687  0.00  0.00    +0.000 F 
ENDROOT
BRANCH   1  13
ATOM     12  C   UNL     1     101.867 126.034  82.195  0.00  0.00    +0.000 C 
ATOM     13  C   UNL     1     103.195 125.890  82.334  0.00  0.00    +0.000 C 
BRANCH  12  19
ATOM     14  C   UNL     1      99.712 127.254  82.636  0.00  0.00    +0.000 A 
ATOM     15  C   UNL     1      99.027 128.352  83.164  0.00  0.00    +0.000 A 
ATOM     16  C   UNL     1      99.734 129.365  83.814  0.00  0.00    +0.000 A 
ATOM     17  C   UNL     1     101.123 129.290  83.933  0.00  0.00    +0.000 A 
ATOM     18  C   UNL     1     101.803 128.190  83.403  0.00  0.00    +0.000 A 
ATOM     19  C   UNL     1     101.105 127.156  82.762  0.00  0.00    +0.000 A 
BRANCH  16  20
ATOM     20  C   UNL     1      99.019 130.530  84.373  0.00  0.00    +0.000 C 
ATOM     21  O   UNL     1      98.389 130.466  85.422  0.00  0.00    +0.000 OA
ENDBRANCH  16  20
ENDBRANCH  12  19
ENDBRANCH   1  13
TORSDOF 3
ENDMDL
