MODEL 1
REMARK VINA RESULT:      -4.7      0.000      0.000
REMARK  Name = *****
REMARK  6 active torsions:
REMARK  status: ('A' for Active; 'I' for Inactive)
REMARK    1  A    between atoms: C_1  and  C_2
REMARK    2  A    between atoms: C_2  and  C_4
REMARK    3  A    between atoms: C_7  and  C_10
REMARK    4  A    between atoms: C_7  and  C_11
REMARK    5  A    between atoms: C_11  and  C_12
REMARK    6  A    between atoms: C_12  and  C_13
REMARK                            x       y       z     vdW  Elec       q    Type
REMARK                         _______ _______ _______ _____ _____    ______ ____
ROOT
ATOM      1  C   UNL     1     104.344 123.482  81.281  0.00  0.00    +0.000 C 
ATOM      2  C   UNL     1     104.916 124.244  82.482  0.00  0.00    +0.000 C 
ATOM      3  C   UNL     1     104.253 125.619  82.601  0.00  0.00    +0.000 C 
ATOM      4  C   UNL     1     104.146 126.348  81.241  0.00  0.00    +0.000 C 
ATOM      5  O   UNL     1     103.556 125.432  80.299  0.00  0.00    +0.000 OA
ATOM      6  O   UNL     1     104.492 124.316  80.125  0.00  0.00    +0.000 OA
ATOM      7  C   UNL     1     105.516 126.833  80.741  0.00  0.00    +0.000 C 
ENDROOT
BRANCH   1   9
ATOM      8  C   UNL     1     106.477 122.211  80.563  0.00  0.00    +0.000 C 
ATOM      9  C   UNL     1     105.048 122.162  81.034  0.00  0.00    +0.000 C 
ATOM     10  C   UNL     1     104.419 120.986  81.207  0.00  0.00    +0.000 C 
ENDBRANCH   1   9
BRANCH   4  11
ATOM     11  C   UNL     1     103.169 127.538  81.394  0.00  0.00    +0.000 C 
BRANCH  11  12
ATOM     12  C   UNL     1     102.699 127.788  82.834  0.00  0.00    +0.000 C 
BRANCH  12  13
ATOM     13  C   UNL     1     101.192 127.785  82.926  0.00  0.00    +0.000 A 
ATOM     14  C   UNL     1     100.451 126.712  82.413  0.00  0.00    +0.000 A 
ATOM     15  C   UNL     1      99.056 126.719  82.483  0.00  0.00    +0.000 A 
ATOM     16  C   UNL     1      98.391 127.799  83.060  0.00  0.00    +0.000 A 
ATOM     17  C   UNL     1      99.119 128.874  83.567  0.00  0.00    +0.000 A 
ATOM     18  C   UNL     1     100.513 128.869  83.498  0.00  0.00    +0.000 A 
ENDBRANCH  12  13
ENDBRANCH  11  12
ENDBRANCH   4  11
TORSDOF 4
ENDMDL
