MODEL 1
REMARK VINA RESULT:      -4.8      0.000      0.000
REMARK  Name = *****
REMARK  6 active torsions:
REMARK  status: ('A' for Active; 'I' for Inactive)
REMARK    1  A    between atoms: C_1  and  C_2
REMARK    2  A    between atoms: C_4  and  C_18
REMARK    3  A    between atoms: C_5  and  C_9
REMARK    4  A    between atoms: C_6  and  C_8
REMARK    5  A    between atoms: C_9  and  O_11
REMARK    6  A    between atoms: O_11  and  C_12
REMARK                            x       y       z     vdW  Elec       q    Type
REMARK                         _______ _______ _______ _____ _____    ______ ____
ROOT
ATOM      1  C   UNL     1      83.683  72.678  87.998  0.00  0.00    +0.000 C 
ATOM      2  C   UNL     1      84.959  72.059  87.504  0.00  0.00    +0.000 A 
ATOM      3  C   UNL     1      85.283  72.089  86.143  0.00  0.00    +0.000 A 
ATOM      4  C   UNL     1      86.480  71.528  85.672  0.00  0.00    +0.000 A 
ATOM      5  C   UNL     1      87.374  70.952  86.599  0.00  0.00    +0.000 A 
ATOM      6  C   UNL     1      87.081  70.951  87.980  0.00  0.00    +0.000 A 
ATOM      7  C   UNL     1      85.863  71.497  88.412  0.00  0.00    +0.000 A 
ATOM      8  C   UNL     1      88.017  70.363  89.001  0.00  0.00    +0.000 C 
ATOM      9  C   UNL     1      86.784  71.579  84.200  0.00  0.00    +0.000 C 
ENDROOT
BRANCH   5  10
ATOM     10  C   UNL     1      88.644  70.372  86.102  0.00  0.00    +0.000 C 
ATOM     11  O   UNL     1      89.690  70.991  86.003  0.00  0.00    +0.000 OA
BRANCH  10  12
ATOM     12  O   UNL     1      88.413  69.091  85.726  0.00  0.00    +0.000 OA
BRANCH  12  13
ATOM     13  C   UNL     1      89.285  68.113  86.309  0.00  0.00    +0.000 C 
ATOM     14  C   UNL     1      90.086  67.415  85.200  0.00  0.00    +0.000 C 
ATOM     15  C   UNL     1      90.689  66.101  85.688  0.00  0.00    +0.000 C 
ATOM     16  C   UNL     1      89.603  65.139  86.177  0.00  0.00    +0.000 C 
ATOM     17  C   UNL     1      88.548  65.815  87.002  0.00  0.00    +0.000 C 
ATOM     18  C   UNL     1      88.414  67.149  87.071  0.00  0.00    +0.000 C 
ENDBRANCH  12  13
ENDBRANCH  10  12
ENDBRANCH   5  10
TORSDOF 3
ENDMDL
