MODEL 1
REMARK VINA RESULT:      -4.2      0.000      0.000
REMARK  Name = *****
REMARK  3 active torsions:
REMARK  status: ('A' for Active; 'I' for Inactive)
REMARK    1  A    between atoms: C_1  and  C_2
REMARK    2  A    between atoms: C_2  and  C_11
REMARK    3  A    between atoms: N_3  and  C_4
REMARK                            x       y       z     vdW  Elec       q    Type
REMARK                         _______ _______ _______ _____ _____    ______ ____
ROOT
ATOM      1  C   UNL     1      89.192  68.150  84.209  0.00  0.00    +0.000 C 
ATOM      2  C   UNL     1      89.667  68.495  85.611  0.00  0.00    +0.000 C 
ATOM      3  N   UNL     1      90.173  67.632  86.445  0.00  0.00    +0.000 NA
ENDROOT
BRANCH   3   4
ATOM      4  C   UNL     1      90.288  66.279  86.078  0.00  0.00    +0.000 A 
ATOM      5  C   UNL     1      91.444  65.867  85.404  0.00  0.00    +0.000 A 
ATOM      6  C   UNL     1      91.621  64.530  85.037  0.00  0.00    +0.000 A 
ATOM      7  C   UNL     1      90.648  63.586  85.356  0.00  0.00    +0.000 A 
ATOM      8  C   UNL     1      89.500  63.975  86.047  0.00  0.00    +0.000 A 
ATOM      9  C   UNL     1      89.324  65.313  86.413  0.00  0.00    +0.000 A 
ATOM     10 CL   UNL     1      87.890  65.737  87.282  0.00  0.00    +0.000 Cl
ENDBRANCH   3   4
BRANCH   2  11
ATOM     11  C   UNL     1      89.507  69.937  86.117  0.00  0.00    +0.000 C 
ATOM     12  C   UNL     1      89.340  69.999  87.611  0.00  0.00    +0.000 C 
ATOM     13  C   UNL     1      88.164  70.575  87.913  0.00  0.00    +0.000 C 
ATOM     14  C   UNL     1      87.479  70.928  86.693  0.00  0.00    +0.000 C 
ATOM     15  C   UNL     1      88.228  70.570  85.639  0.00  0.00    +0.000 C 
ENDBRANCH   2  11
TORSDOF 2
ENDMDL
