MODEL 1
REMARK VINA RESULT:      -5.5      0.000      0.000
REMARK  Name = *****
REMARK  5 active torsions:
REMARK  status: ('A' for Active; 'I' for Inactive)
REMARK    1  A    between atoms: C_1  and  C_2
REMARK    2  A    between atoms: C_2  and  O_3
REMARK    3  A    between atoms: O_3  and  C_4
REMARK    4  A    between atoms: C_6  and  C_14
REMARK    5  A    between atoms: C_17  and  C_20
REMARK                            x       y       z     vdW  Elec       q    Type
REMARK                         _______ _______ _______ _____ _____    ______ ____
ROOT
ATOM      1  C   UNL     1      99.721 127.450  82.594  0.00  0.00    +0.000 A 
ATOM      2  N   UNL     1     100.626 126.518  82.216  0.00  0.00    +0.000 NA
ATOM      3  C   UNL     1     101.921 126.710  82.560  0.00  0.00    +0.000 A 
ATOM      4  C   UNL     1     102.330 127.838  83.268  0.00  0.00    +0.000 A 
ATOM      5  C   UNL     1     101.390 128.803  83.652  0.00  0.00    +0.000 A 
ATOM      6  C   UNL     1     101.770 129.952  84.366  0.00  0.00    +0.000 A 
ATOM      7  C   UNL     1     100.823 130.907  84.743  0.00  0.00    +0.000 A 
ATOM      8  C   UNL     1      99.485 130.728  84.410  0.00  0.00    +0.000 A 
ATOM      9  C   UNL     1      99.094 129.593  83.700  0.00  0.00    +0.000 A 
ATOM     10  C   UNL     1     100.038 128.615  83.311  0.00  0.00    +0.000 A 
ENDROOT
BRANCH   3  11
ATOM     11  C   UNL     1     102.861 125.657  82.121  0.00  0.00    +0.000 A 
ATOM     12  C   UNL     1     103.250 125.561  80.774  0.00  0.00    +0.000 A 
ATOM     13  C   UNL     1     104.143 124.576  80.337  0.00  0.00    +0.000 A 
ATOM     14  C   UNL     1     104.675 123.654  81.241  0.00  0.00    +0.000 A 
ATOM     15  C   UNL     1     104.286 123.722  82.581  0.00  0.00    +0.000 A 
ATOM     16  C   UNL     1     103.392 124.710  83.013  0.00  0.00    +0.000 A 
ATOM     17  C   UNL     1     105.617 122.580  80.785  0.00  0.00    +0.000 C 
ENDBRANCH   3  11
BRANCH   1  18
ATOM     18  O   UNL     1      98.392 127.258  82.252  0.00  0.00    +0.000 OA
BRANCH  18  20
ATOM     19  C   UNL     1      96.629 126.832  83.796  0.00  0.00    +0.000 C 
ATOM     20  C   UNL     1      97.758 126.213  82.990  0.00  0.00    +0.000 C 
ENDBRANCH  18  20
ENDBRANCH   1  18
TORSDOF 3
ENDMDL
