MODEL 1
REMARK VINA RESULT:      -4.3      0.000      0.000
REMARK  Name = *****
REMARK  6 active torsions:
REMARK  status: ('A' for Active; 'I' for Inactive)
REMARK    1  A    between atoms: C_1  and  N_2
REMARK    2  A    between atoms: N_2  and  C_3
REMARK    3  A    between atoms: N_2  and  C_4
REMARK    4  A    between atoms: C_7  and  S_10
REMARK    5  A    between atoms: S_10  and  C_11
REMARK    6  A    between atoms: C_11  and  C_12
REMARK                            x       y       z     vdW  Elec       q    Type
REMARK                         _______ _______ _______ _____ _____    ______ ____
ROOT
ATOM      1  C   UNL     1      88.728  65.487  86.744  0.00  0.00    +0.000 A 
ATOM      2  C   UNL     1      89.871  66.126  86.232  0.00  0.00    +0.000 A 
ATOM      3  C   UNL     1      90.037  67.520  86.276  0.00  0.00    +0.000 A 
ATOM      4  C   UNL     1      89.047  68.331  86.821  0.00  0.00    +0.000 A 
ATOM      5  C   UNL     1      87.904  67.731  87.337  0.00  0.00    +0.000 A 
ATOM      6  C   UNL     1      87.748  66.336  87.288  0.00  0.00    +0.000 A 
ENDROOT
BRANCH   1   8
ATOM      7  C   UNL     1      87.614  63.454  87.592  0.00  0.00    +0.000 C 
ATOM      8  N   UNL     1      88.556  64.100  86.680  0.00  0.00    +0.000 N 
ATOM      9  C   UNL     1      88.760  63.421  85.401  0.00  0.00    +0.000 C 
ENDBRANCH   1   8
BRANCH   4  10
ATOM     10  S   UNL     1      89.219  70.101  86.900  0.00  0.00    +0.000 S 
BRANCH  10  11
ATOM     11  C   UNL     1      88.121  70.453  88.312  0.00  0.00    +0.000 C 
BRANCH  11  12
ATOM     12  C   UNL     1      86.855  71.142  87.864  0.00  0.00    +0.000 A 
ATOM     13  C   UNL     1      85.918  71.594  88.808  0.00  0.00    +0.000 A 
ATOM     14  C   UNL     1      84.743  72.221  88.391  0.00  0.00    +0.000 A 
ATOM     15  C   UNL     1      84.500  72.391  87.033  0.00  0.00    +0.000 A 
ATOM     16  C   UNL     1      85.409  71.943  86.083  0.00  0.00    +0.000 A 
ATOM     17  C   UNL     1      86.586  71.316  86.496  0.00  0.00    +0.000 A 
ATOM     18  F   UNL     1      83.371  72.991  86.635  0.00  0.00    +0.000 F 
ENDBRANCH  11  12
ENDBRANCH  10  11
ENDBRANCH   4  10
TORSDOF 4
ENDMDL
