REMARK  Name = *****
REMARK  3 active torsions:
REMARK  status: ('A' for Active; 'I' for Inactive)
REMARK    1  A    between atoms: C_1  and  C_2
REMARK    2  A    between atoms: C_6  and  C_16
REMARK    3  A    between atoms: N_8  and  C_10
REMARK                            x       y       z     vdW  Elec       q    Type
REMARK                         _______ _______ _______ _____ _____    ______ ____
ROOT
ATOM      1  C   UNL     1       1.216  -0.410   0.863  0.00  0.00    +0.000 C 
ATOM      2  C   UNL     1       2.714  -0.225   0.598  0.00  0.00    +0.000 C 
ATOM      3  C   UNL     1       3.435  -1.055   1.685  0.00  0.00    +0.000 C 
ATOM      4  C   UNL     1       4.948  -0.960   1.598  0.00  0.00    +0.000 C 
ATOM      5  C   UNL     1       5.373   0.486   1.767  0.00  0.00    +0.000 C 
ATOM      6  C   UNL     1       4.783   1.363   0.659  0.00  0.00    +0.000 C 
ATOM      7  C   UNL     1       3.251   1.210   0.544  0.00  0.00    +0.000 C 
ATOM      8  N   UNL     1       2.653   2.295  -0.240  0.00  0.00    +0.000 NA
ATOM      9  O   UNL     1       2.477   2.218   1.201  0.00  0.00    +0.000 OA
ATOM     10  C   UNL     1       5.265   2.806   0.883  0.00  0.00    +0.000 C 
ENDROOT
BRANCH   8  11
ATOM     11  C   UNL     1       1.302   2.276  -0.787  0.00  0.00    +0.000 C 
ATOM     12  C   UNL     1       1.275   1.547  -2.142  0.00  0.00    +0.000 C 
ATOM     13  C   UNL     1       2.070   2.265  -3.233  0.00  0.00    +0.000 C 
ATOM     14  C   UNL     1       1.612   3.709  -3.402  0.00  0.00    +0.000 C 
ATOM     15  C   UNL     1       1.638   4.471  -2.081  0.00  0.00    +0.000 C 
ATOM     16  C   UNL     1       0.849   3.740  -0.992  0.00  0.00    +0.000 C 
ENDBRANCH   8  11
TORSDOF 1
