MODEL 1
REMARK VINA RESULT:      -5.1      0.000      0.000
REMARK  Name = *****
REMARK  1 active torsions:
REMARK  status: ('A' for Active; 'I' for Inactive)
REMARK    1  A    between atoms: C_5  and  C_7
REMARK                            x       y       z     vdW  Elec       q    Type
REMARK                         _______ _______ _______ _____ _____    ______ ____
ROOT
ATOM      1  C   UNL     1     102.430 126.067  82.497  0.00  0.00    +0.000 A 
ATOM      2  N   UNL     1     102.680 127.209  83.118  0.00  0.00    +0.000 NA
ATOM      3  C   UNL     1     101.454 127.821  83.190  0.00  0.00    +0.000 A 
ATOM      4  C   UNL     1     100.493 127.014  82.606  0.00  0.00    +0.000 A 
ATOM      5  O   UNL     1     101.112 125.886  82.159  0.00  0.00    +0.000 OA
ATOM      6  C   UNL     1      99.144 127.330  82.507  0.00  0.00    +0.000 A 
ATOM      7  C   UNL     1      98.773 128.566  83.050  0.00  0.00    +0.000 A 
ATOM      8  C   UNL     1      99.719 129.408  83.649  0.00  0.00    +0.000 A 
ATOM      9  C   UNL     1     101.073 129.055  83.732  0.00  0.00    +0.000 A 
ATOM     10 CL   UNL     1      99.207 130.919  84.301  0.00  0.00    +0.000 Cl
ENDROOT
BRANCH   1  15
ATOM     11  C   UNL     1     104.773 123.142  82.854  0.00  0.00    +0.000 A 
ATOM     12  C   UNL     1     105.190 122.938  81.541  0.00  0.00    +0.000 A 
ATOM     13  C   UNL     1     104.704 123.760  80.527  0.00  0.00    +0.000 A 
ATOM     14  C   UNL     1     103.801 124.782  80.828  0.00  0.00    +0.000 A 
ATOM     15  C   UNL     1     103.367 125.007  82.139  0.00  0.00    +0.000 A 
ATOM     16  C   UNL     1     103.870 124.168  83.150  0.00  0.00    +0.000 A 
ATOM     17  F   UNL     1     103.368 125.542  79.812  0.00  0.00    +0.000 F 
ENDBRANCH   1  15
TORSDOF 1
ENDMDL
