REMARK  Name = *****
REMARK  3 active torsions:
REMARK  status: ('A' for Active; 'I' for Inactive)
REMARK    1  A    between atoms: C_6  and  N_7
REMARK    2  A    between atoms: N_7  and  C_8
REMARK    3  A    between atoms: N_9  and  C_10
REMARK                            x       y       z     vdW  Elec       q    Type
REMARK                         _______ _______ _______ _____ _____    ______ ____
ROOT
ATOM      1  C   UNL     1      -4.270   1.127  -0.510  0.00  0.00    +0.000 C 
ATOM      2  N   UNL     1      -5.547   1.228  -0.691  0.00  0.00    +0.000 NA
ENDROOT
BRANCH   2   3
ATOM      3  C   UNL     1      -6.115   2.466  -0.374  0.00  0.00    +0.000 A 
ATOM      4  C   UNL     1      -5.938   3.576  -1.209  0.00  0.00    +0.000 A 
ATOM      5  C   UNL     1      -6.534   4.799  -0.897  0.00  0.00    +0.000 A 
ATOM      6  C   UNL     1      -7.315   4.902   0.249  0.00  0.00    +0.000 A 
ATOM      7  C   UNL     1      -7.514   3.808   1.084  0.00  0.00    +0.000 A 
ATOM      8  C   UNL     1      -6.914   2.588   0.766  0.00  0.00    +0.000 A 
ATOM      9  F   UNL     1      -7.891   6.074   0.550  0.00  0.00    +0.000 F 
ENDBRANCH   2   3
BRANCH   1  10
ATOM     10  N   UNL     1      -3.632  -0.008  -0.777  0.00  0.00    +0.000 NA
BRANCH  10  16
ATOM     11  C   UNL     1      -1.576   1.016  -1.577  0.00  0.00    +0.000 A 
ATOM     12  C   UNL     1      -0.180   1.027  -1.617  0.00  0.00    +0.000 A 
ATOM     13  C   UNL     1       0.529   0.072  -0.903  0.00  0.00    +0.000 A 
ATOM     14  C   UNL     1      -0.130  -0.895  -0.159  0.00  0.00    +0.000 A 
ATOM     15  C   UNL     1      -1.526  -0.900  -0.126  0.00  0.00    +0.000 A 
ATOM     16  C   UNL     1      -2.280   0.063  -0.816  0.00  0.00    +0.000 A 
ATOM     17  F   UNL     1       1.870   0.078  -0.941  0.00  0.00    +0.000 F 
ENDBRANCH  10  16
ENDBRANCH   1  10
TORSDOF 3
