MODEL 1
REMARK VINA RESULT:      -4.3      0.000      0.000
REMARK  Name = *****
REMARK  2 active torsions:
REMARK  status: ('A' for Active; 'I' for Inactive)
REMARK    1  A    between atoms: C_1  and  N_2
REMARK    2  A    between atoms: C_10  and  C_11
REMARK                            x       y       z     vdW  Elec       q    Type
REMARK                         _______ _______ _______ _____ _____    ______ ____
ROOT
ATOM      1  C   UNL     1     104.078 128.312  83.394  0.00  0.00    +0.000 C 
ATOM      2  N   UNL     1     102.664 128.024  83.263  0.00  0.00    +0.000 N 
ATOM      3  C   UNL     1     101.644 128.874  83.700  0.00  0.00    +0.000 A 
ATOM      4  C   UNL     1     101.702 130.120  84.349  0.00  0.00    +0.000 A 
ATOM      5  C   UNL     1     100.498 130.756  84.670  0.00  0.00    +0.000 A 
ATOM      6  C   UNL     1      99.270 130.174  84.362  0.00  0.00    +0.000 A 
ATOM      7  C   UNL     1      99.208 128.930  83.721  0.00  0.00    +0.000 A 
ATOM      8  C   UNL     1     100.411 128.279  83.392  0.00  0.00    +0.000 A 
ATOM      9  P   UNL     1     100.441 126.782  82.632  0.00  0.00    +0.000 P 
ATOM     10  C   UNL     1     102.136 126.865  82.702  0.00  0.00    +0.000 A 
ENDROOT
BRANCH  10  11
ATOM     11  C   UNL     1     102.958 125.753  82.218  0.00  0.00    +0.000 A 
ATOM     12  C   UNL     1     103.313 125.666  80.865  0.00  0.00    +0.000 A 
ATOM     13  C   UNL     1     104.120 124.618  80.414  0.00  0.00    +0.000 A 
ATOM     14  C   UNL     1     104.578 123.655  81.312  0.00  0.00    +0.000 A 
ATOM     15  C   UNL     1     104.231 123.735  82.660  0.00  0.00    +0.000 A 
ATOM     16  C   UNL     1     103.424 124.781  83.112  0.00  0.00    +0.000 A 
ENDBRANCH  10  11
TORSDOF 1
ENDMDL
