MODEL 1
REMARK VINA RESULT:      -4.2      0.000      0.000
REMARK  Name = *****
REMARK  3 active torsions:
REMARK  status: ('A' for Active; 'I' for Inactive)
REMARK    1  A    between atoms: C_4  and  S_7
REMARK    2  A    between atoms: S_7  and  N_8
REMARK    3  A    between atoms: N_8  and  C_9
REMARK                            x       y       z     vdW  Elec       q    Type
REMARK                         _______ _______ _______ _____ _____    ______ ____
ROOT
ATOM      1  N   UNL     1      89.267  63.731  87.998  0.00  0.00    +0.000 N 
ATOM      2  H   UNL     1      90.199  63.636  88.301  0.00  0.00    +0.000 HD
ENDROOT
BRANCH   1   3
ATOM      3  C   UNL     1      88.234  63.424  88.909  0.00  0.00    +0.000 A 
ATOM      4  C   UNL     1      87.169  62.558  88.614  0.00  0.00    +0.000 A 
ATOM      5  C   UNL     1      86.131  62.346  89.528  0.00  0.00    +0.000 A 
ATOM      6  C   UNL     1      86.133  63.017  90.745  0.00  0.00    +0.000 A 
ATOM      7  C   UNL     1      87.160  63.904  91.051  0.00  0.00    +0.000 A 
ATOM      8  C   UNL     1      88.195  64.112  90.134  0.00  0.00    +0.000 A 
ATOM      9 CL   UNL     1      84.855  62.764  91.868  0.00  0.00    +0.000 Cl
ENDBRANCH   1   3
BRANCH   1  10
ATOM     10  S   UNL     1      88.995  64.246  86.441  0.00  0.00    +0.000 S 
BRANCH  10  14
ATOM     11  C   UNL     1      88.829  68.799  87.009  0.00  0.00    +0.000 A 
ATOM     12  C   UNL     1      87.774  68.012  87.467  0.00  0.00    +0.000 A 
ATOM     13  C   UNL     1      87.816  66.625  87.306  0.00  0.00    +0.000 A 
ATOM     14  C   UNL     1      88.916  66.014  86.692  0.00  0.00    +0.000 A 
ATOM     15  C   UNL     1      89.967  66.813  86.230  0.00  0.00    +0.000 A 
ATOM     16  C   UNL     1      89.925  68.201  86.389  0.00  0.00    +0.000 A 
ENDBRANCH  10  14
ENDBRANCH   1  10
TORSDOF 3
ENDMDL
