REMARK  Name = *****
REMARK  3 active torsions:
REMARK  status: ('A' for Active; 'I' for Inactive)
REMARK    1  A    between atoms: C_4  and  C_7
REMARK    2  A    between atoms: C_8  and  C_9
REMARK    3  A    between atoms: C_12  and  C_15
REMARK                            x       y       z     vdW  Elec       q    Type
REMARK                         _______ _______ _______ _____ _____    ______ ____
ROOT
ATOM      1  C   UNL     1       2.035   0.003  -0.034  0.00  0.00    +0.000 A 
ATOM      2  C   UNL     1       2.736   1.209  -0.003  0.00  0.00    +0.000 A 
ATOM      3  C   UNL     1       4.135   1.206  -0.018  0.00  0.00    +0.000 A 
ATOM      4  C   UNL     1       4.847  -0.003  -0.065  0.00  0.00    +0.000 A 
ATOM      5  C   UNL     1       4.135  -1.210  -0.096  0.00  0.00    +0.000 A 
ATOM      6  C   UNL     1       2.735  -1.205  -0.081  0.00  0.00    +0.000 A 
ENDROOT
BRANCH   4   7
ATOM      7  C   UNL     1       6.347   0.039  -0.082  0.00  0.00    +0.000 C 
ATOM      8  O   UNL     1       6.880   1.148  -0.050  0.00  0.00    +0.000 OA
ATOM      9 CL   UNL     1       7.262  -1.453  -0.145  0.00  0.00    +0.000 Cl
ENDBRANCH   4   7
BRANCH   1  11
ATOM     10  C   UNL     1      -0.596   0.008  -0.013  0.00  0.00    +0.000 C 
ATOM     11  C   UNL     1       0.606   0.004  -0.021  0.00  0.00    +0.000 C 
BRANCH  10  15
ATOM     12  C   UNL     1      -4.819   0.035   0.007  0.00  0.00    +0.000 A 
ATOM     13  C   UNL     1      -4.130  -1.177   0.037  0.00  0.00    +0.000 A 
ATOM     14  C   UNL     1      -2.734  -1.187   0.031  0.00  0.00    +0.000 A 
ATOM     15  C   UNL     1      -2.026   0.016  -0.005  0.00  0.00    +0.000 A 
ATOM     16  C   UNL     1      -2.718   1.229  -0.035  0.00  0.00    +0.000 A 
ATOM     17  C   UNL     1      -4.114   1.238  -0.029  0.00  0.00    +0.000 A 
ENDBRANCH  10  15
ENDBRANCH   1  11
TORSDOF 3
