MODEL 1
REMARK VINA RESULT:      -5.2      0.000      0.000
REMARK  Name = *****
REMARK  0 active torsions:
REMARK  status: ('A' for Active; 'I' for Inactive)
REMARK                            x       y       z     vdW  Elec       q    Type
REMARK                         _______ _______ _______ _____ _____    ______ ____
ROOT
ATOM      1  C   UNL     1      96.129 115.168  80.545  0.00  0.00    +0.000 C 
ATOM      2  C   UNL     1      96.015 114.759  79.079  0.00  0.00    +0.000 A 
ATOM      3  C   UNL     1      95.170 113.706  78.707  0.00  0.00    +0.000 A 
ATOM      4  C   UNL     1      95.102 113.292  77.373  0.00  0.00    +0.000 A 
ATOM      5  C   UNL     1      95.876 113.921  76.397  0.00  0.00    +0.000 A 
ATOM      6  C   UNL     1      96.720 114.976  76.744  0.00  0.00    +0.000 A 
ATOM      7  C   UNL     1      96.789 115.388  78.073  0.00  0.00    +0.000 A 
ATOM      8  C   UNL     1      97.585 116.499  78.467  0.00  0.00    +0.000 C 
ATOM      9  C   UNL     1      97.868 117.344  79.266  0.00  0.00    +0.000 C 
ATOM     10  C   UNL     1      97.670 118.006  80.510  0.00  0.00    +0.000 A 
ATOM     11  C   UNL     1      98.528 119.021  80.931  0.00  0.00    +0.000 A 
ATOM     12  C   UNL     1      98.278 119.680  82.136  0.00  0.00    +0.000 A 
ATOM     13  C   UNL     1      97.169 119.335  82.913  0.00  0.00    +0.000 A 
ATOM     14  C   UNL     1      96.307 118.319  82.495  0.00  0.00    +0.000 A 
ATOM     15  C   UNL     1      96.563 117.634  81.302  0.00  0.00    +0.000 A 
ATOM     16  C   UNL     1      95.599 116.557  80.894  0.00  0.00    +0.000 C 
ATOM     17  O   UNL     1      94.394 116.804  80.939  0.00  0.00    +0.000 OA
ENDROOT
TORSDOF 0
ENDMDL
