REMARK  Name = *****
REMARK  6 active torsions:
REMARK  status: ('A' for Active; 'I' for Inactive)
REMARK    1  A    between atoms: C_1  and  C_2
REMARK    2  A    between atoms: C_3  and  C_10
REMARK    3  A    between atoms: C_5  and  O_8
REMARK    4  A    between atoms: O_8  and  C_9
REMARK    5  A    between atoms: C_10  and  C_11
REMARK    6  A    between atoms: C_11  and  C_13
REMARK                            x       y       z     vdW  Elec       q    Type
REMARK                         _______ _______ _______ _____ _____    ______ ____
ROOT
ATOM      1  C   UNL     1       2.193   0.014  -1.432  0.00  0.00    +0.000 C 
ATOM      2  C   UNL     1       0.760   0.116  -0.989  0.00  0.00    +0.000 A 
ATOM      3  C   UNL     1       0.286   1.203  -0.226  0.00  0.00    +0.000 A 
ATOM      4  C   UNL     1      -1.078   1.257   0.127  0.00  0.00    +0.000 A 
ATOM      5  C   UNL     1      -1.958   0.240  -0.245  0.00  0.00    +0.000 A 
ATOM      6  C   UNL     1      -1.471  -0.856  -0.953  0.00  0.00    +0.000 A 
ATOM      7  C   UNL     1      -0.128  -0.916  -1.328  0.00  0.00    +0.000 A 
ENDROOT
BRANCH   5   8
ATOM      8  O   UNL     1      -3.294   0.195   0.044  0.00  0.00    +0.000 OA
ATOM      9  C   UNL     1      -3.902   1.434   0.390  0.00  0.00    +0.000 C 
ENDBRANCH   5   8
BRANCH   3  10
ATOM     10  C   UNL     1       1.192   2.337   0.214  0.00  0.00    +0.000 C 
BRANCH  10  11
ATOM     11  C   UNL     1       1.262   3.495  -0.769  0.00  0.00    +0.000 C 
ATOM     12  O   UNL     1       0.440   3.664  -1.668  0.00  0.00    +0.000 OA
BRANCH  11  13
ATOM     13  C   UNL     1       2.367   4.491  -0.614  0.00  0.00    +0.000 A 
ATOM     14  C   UNL     1       3.185   4.537   0.523  0.00  0.00    +0.000 A 
ATOM     15  C   UNL     1       4.203   5.490   0.617  0.00  0.00    +0.000 A 
ATOM     16  C   UNL     1       4.407   6.403  -0.417  0.00  0.00    +0.000 A 
ATOM     17  C   UNL     1       3.593   6.369  -1.547  0.00  0.00    +0.000 A 
ATOM     18  C   UNL     1       2.576   5.418  -1.645  0.00  0.00    +0.000 A 
ENDBRANCH  11  13
ENDBRANCH  10  11
ENDBRANCH   3  10
TORSDOF 4
