MODEL 1
REMARK VINA RESULT:      -5.1      0.000      0.000
REMARK  Name = *****
REMARK  5 active torsions:
REMARK  status: ('A' for Active; 'I' for Inactive)
REMARK    1  A    between atoms: C_1  and  C_2
REMARK    2  A    between atoms: C_5  and  C_8
REMARK    3  A    between atoms: C_8  and  N_9
REMARK    4  A    between atoms: C_13  and  C_17
REMARK    5  A    between atoms: C_14  and  C_16
REMARK                            x       y       z     vdW  Elec       q    Type
REMARK                         _______ _______ _______ _____ _____    ______ ____
ROOT
ATOM      1  N   UNL     1      88.696  64.714  87.051  0.00  0.00    +0.000 N 
ATOM      2  C   UNL     1      88.665  66.084  87.000  0.00  0.00    +0.000 A 
ATOM      3  C   UNL     1      89.734  66.388  86.171  0.00  0.00    +0.000 A 
ATOM      4  C   UNL     1      90.041  67.729  85.906  0.00  0.00    +0.000 A 
ATOM      5  C   UNL     1      89.257  68.747  86.486  0.00  0.00    +0.000 A 
ATOM      6  C   UNL     1      88.156  68.411  87.306  0.00  0.00    +0.000 A 
ATOM      7  C   UNL     1      87.852  67.063  87.582  0.00  0.00    +0.000 A 
ATOM      8  C   UNL     1      87.298  69.481  87.932  0.00  0.00    +0.000 C 
ATOM      9  C   UNL     1      89.606  70.182  86.194  0.00  0.00    +0.000 C 
ATOM     10  N   UNL     1      90.328  65.233  85.739  0.00  0.00    +0.000 NA
ATOM     11  N   UNL     1      89.674  64.208  86.271  0.00  0.00    +0.000 NA
ENDROOT
BRANCH   1  12
ATOM     12  C   UNL     1      87.797  63.823  87.765  0.00  0.00    +0.000 C 
BRANCH  12  17
ATOM     13  C   UNL     1      87.967  64.642  93.541  0.00  0.00    +0.000 C 
ATOM     14  C   UNL     1      87.926  64.401  92.061  0.00  0.00    +0.000 A 
ATOM     15  C   UNL     1      89.075  64.002  91.373  0.00  0.00    +0.000 A 
ATOM     16  C   UNL     1      89.042  63.803  89.990  0.00  0.00    +0.000 A 
ATOM     17  C   UNL     1      87.856  63.994  89.265  0.00  0.00    +0.000 A 
ATOM     18  C   UNL     1      86.714  64.421  89.958  0.00  0.00    +0.000 A 
ATOM     19  C   UNL     1      86.749  64.624  91.340  0.00  0.00    +0.000 A 
ENDBRANCH  12  17
ENDBRANCH   1  12
TORSDOF 2
ENDMDL
