MODEL 1
REMARK VINA RESULT:      -5.3      0.000      0.000
REMARK  Name = *****
REMARK  2 active torsions:
REMARK  status: ('A' for Active; 'I' for Inactive)
REMARK    1  A    between atoms: C_1  and  C_2
REMARK    2  A    between atoms: C_4  and  C_5
REMARK                            x       y       z     vdW  Elec       q    Type
REMARK                         _______ _______ _______ _____ _____    ______ ____
ROOT
ATOM      1  C   UNL     1      86.926  69.812  89.713  0.00  0.00    +0.000 C 
ATOM      2  C   UNL     1      87.064  71.091  88.889  0.00  0.00    +0.000 C 
ATOM      3  C   UNL     1      87.633  70.836  87.493  0.00  0.00    +0.000 C 
ATOM      4  C   UNL     1      88.853  70.325  87.252  0.00  0.00    +0.000 C 
ATOM      5  C   UNL     1      86.630  71.281  86.438  0.00  0.00    +0.000 C 
ATOM      6  C   UNL     1      85.491  71.840  87.237  0.00  0.00    +0.000 A 
ATOM      7  C   UNL     1      84.323  72.407  86.754  0.00  0.00    +0.000 A 
ATOM      8  C   UNL     1      83.380  72.875  87.672  0.00  0.00    +0.000 A 
ATOM      9  C   UNL     1      83.617  72.774  89.050  0.00  0.00    +0.000 A 
ATOM     10  C   UNL     1      84.798  72.202  89.529  0.00  0.00    +0.000 A 
ATOM     11  C   UNL     1      85.727  71.732  88.613  0.00  0.00    +0.000 A 
ENDROOT
BRANCH   4  12
ATOM     12  C   UNL     1      89.378  70.099  85.906  0.00  0.00    +0.000 A 
ATOM     13  C   UNL     1      90.070  71.116  85.240  0.00  0.00    +0.000 A 
ATOM     14  C   UNL     1      90.562  70.901  83.951  0.00  0.00    +0.000 A 
ATOM     15  C   UNL     1      90.364  69.671  83.324  0.00  0.00    +0.000 A 
ATOM     16  C   UNL     1      89.672  68.655  83.984  0.00  0.00    +0.000 A 
ATOM     17  C   UNL     1      89.178  68.869  85.273  0.00  0.00    +0.000 A 
ENDBRANCH   4  12
TORSDOF 1
ENDMDL
