MODEL 1
REMARK VINA RESULT:      -4.5      0.000      0.000
REMARK  Name = *****
REMARK  6 active torsions:
REMARK  status: ('A' for Active; 'I' for Inactive)
REMARK    1  A    between atoms: C_1  and  C_2
REMARK    2  A    between atoms: C_5  and  S_8
REMARK    3  A    between atoms: S_8  and  O_10
REMARK    4  A    between atoms: O_10  and  C_11
REMARK    5  A    between atoms: C_11  and  C_12
REMARK    6  A    between atoms: C_11  and  C_13
REMARK                            x       y       z     vdW  Elec       q    Type
REMARK                         _______ _______ _______ _____ _____    ______ ____
ROOT
ATOM      1  S   UNL     1      88.823  64.394  86.876  0.00  0.00    +0.000 S 
ATOM      2  O   UNL     1      88.090  63.303  86.153  0.00  0.00    +0.000 OA
ENDROOT
BRANCH   1   7
ATOM      3  C   UNL     1      86.796  64.381  92.655  0.00  0.00    +0.000 C 
ATOM      4  C   UNL     1      87.304  64.401  91.244  0.00  0.00    +0.000 A 
ATOM      5  C   UNL     1      88.560  63.868  90.934  0.00  0.00    +0.000 A 
ATOM      6  C   UNL     1      89.020  63.857  89.614  0.00  0.00    +0.000 A 
ATOM      7  C   UNL     1      88.223  64.365  88.584  0.00  0.00    +0.000 A 
ATOM      8  C   UNL     1      86.961  64.888  88.891  0.00  0.00    +0.000 A 
ATOM      9  C   UNL     1      86.502  64.898  90.210  0.00  0.00    +0.000 A 
ENDBRANCH   1   7
BRANCH   1  10
ATOM     10  O   UNL     1      88.082  65.786  86.544  0.00  0.00    +0.000 OA
BRANCH  10  11
ATOM     11  C   UNL     1      88.905  66.815  85.991  0.00  0.00    +0.000 C 
ATOM     12  C   UNL     1      90.372  66.379  86.028  0.00  0.00    +0.000 C 
BRANCH  11  13
ATOM     13  C   UNL     1      88.726  68.085  86.809  0.00  0.00    +0.000 A 
ATOM     14  C   UNL     1      89.602  69.175  86.678  0.00  0.00    +0.000 A 
ATOM     15  C   UNL     1      89.403  70.341  87.420  0.00  0.00    +0.000 A 
ATOM     16  C   UNL     1      88.324  70.435  88.296  0.00  0.00    +0.000 A 
ATOM     17  C   UNL     1      87.443  69.365  88.433  0.00  0.00    +0.000 A 
ATOM     18  C   UNL     1      87.641  68.197  87.693  0.00  0.00    +0.000 A 
ENDBRANCH  11  13
ENDBRANCH  10  11
ENDBRANCH   1  10
TORSDOF 4
ENDMDL
