MODEL 1
REMARK VINA RESULT:      -4.2      0.000      0.000
REMARK  Name = *****
REMARK  5 active torsions:
REMARK  status: ('A' for Active; 'I' for Inactive)
REMARK    1  A    between atoms: C_4  and  C_7
REMARK    2  A    between atoms: C_7  and  C_8
REMARK    3  A    between atoms: C_8  and  C_9
REMARK    4  A    between atoms: C_9  and  C_10
REMARK    5  A    between atoms: C_9  and  C_12
REMARK                            x       y       z     vdW  Elec       q    Type
REMARK                         _______ _______ _______ _____ _____    ______ ____
ROOT
ATOM      1  C   UNL     1      88.974  67.645  85.597  0.00  0.00    +0.000 C 
ENDROOT
BRANCH   1   2
ATOM      2  C   UNL     1      88.377  66.823  86.735  0.00  0.00    +0.000 A 
ATOM      3  C   UNL     1      87.226  67.281  87.401  0.00  0.00    +0.000 A 
ATOM      4  C   UNL     1      86.671  66.541  88.448  0.00  0.00    +0.000 A 
ATOM      5  C   UNL     1      87.261  65.344  88.832  0.00  0.00    +0.000 A 
ATOM      6  C   UNL     1      88.397  64.870  88.189  0.00  0.00    +0.000 A 
ATOM      7  C   UNL     1      88.956  65.607  87.143  0.00  0.00    +0.000 A 
ATOM      8  F   UNL     1      86.727  64.637  89.837  0.00  0.00    +0.000 F 
ENDBRANCH   1   2
BRANCH   1   9
ATOM      9  C   UNL     1      89.596  66.777  84.573  0.00  0.00    +0.000 C 
ATOM     10  N   UNL     1      90.085  66.117  83.752  0.00  0.00    +0.000 NA
ENDBRANCH   1   9
BRANCH   1  11
ATOM     11  C   UNL     1      89.977  68.683  86.136  0.00  0.00    +0.000 C 
BRANCH  11  12
ATOM     12  C   UNL     1      89.525  70.125  85.873  0.00  0.00    +0.000 C 
BRANCH  12  16
ATOM     13  C   UNL     1      86.496  71.318  88.700  0.00  0.00    +0.000 A 
ATOM     14  C   UNL     1      87.743  70.892  89.152  0.00  0.00    +0.000 A 
ATOM     15  C   UNL     1      88.727  70.511  88.236  0.00  0.00    +0.000 A 
ATOM     16  C   UNL     1      88.470  70.558  86.859  0.00  0.00    +0.000 A 
ATOM     17  C   UNL     1      87.211  70.982  86.416  0.00  0.00    +0.000 A 
ATOM     18  C   UNL     1      86.229  71.362  87.332  0.00  0.00    +0.000 A 
ENDBRANCH  12  16
ENDBRANCH  11  12
ENDBRANCH   1  11
TORSDOF 5
ENDMDL
