REMARK  Name = *****
REMARK  4 active torsions:
REMARK  status: ('A' for Active; 'I' for Inactive)
REMARK    1  A    between atoms: C_7  and  C_8
REMARK    2  A    between atoms: C_8  and  C_9
REMARK    3  A    between atoms: C_9  and  O_11
REMARK    4  A    between atoms: O_11  and  C_12
REMARK                            x       y       z     vdW  Elec       q    Type
REMARK                         _______ _______ _______ _____ _____    ______ ____
ROOT
ATOM      1  C   UNL     1      -2.261   2.576  -1.272  0.00  0.00    +0.000 C 
ATOM      2  O   UNL     1      -3.130   1.715  -1.258  0.00  0.00    +0.000 OA
ENDROOT
BRANCH   1   3
ATOM      3  C   UNL     1      -1.027   2.560  -0.402  0.00  0.00    +0.000 C 
BRANCH   3  10
ATOM      4  C   UNL     1       1.252   1.946   1.420  0.00  0.00    +0.000 C 
ATOM      5  C   UNL     1       0.823   1.020   0.546  0.00  0.00    +0.000 C 
ATOM      6  C   UNL     1       1.488  -0.338   0.477  0.00  0.00    +0.000 C 
ATOM      7  C   UNL     1       2.007  -0.611  -0.933  0.00  0.00    +0.000 C 
ATOM      8  C   UNL     1       0.907  -0.445  -1.979  0.00  0.00    +0.000 C 
ATOM      9  C   UNL     1       0.227   0.922  -1.876  0.00  0.00    +0.000 C 
ATOM     10  C   UNL     1      -0.318   1.197  -0.456  0.00  0.00    +0.000 C 
ENDBRANCH   3  10
ENDBRANCH   1   3
BRANCH   1  11
ATOM     11  O   UNL     1      -2.265   3.686  -2.061  0.00  0.00    +0.000 OA
BRANCH  11  12
ATOM     12  C   UNL     1      -3.376   3.815  -2.967  0.00  0.00    +0.000 C 
ATOM     13  C   UNL     1      -3.122   2.979  -4.225  0.00  0.00    +0.000 C 
ATOM     14  C   UNL     1      -4.196   3.211  -5.283  0.00  0.00    +0.000 C 
ATOM     15  C   UNL     1      -4.338   4.692  -5.624  0.00  0.00    +0.000 C 
ATOM     16  C   UNL     1      -4.581   5.537  -4.377  0.00  0.00    +0.000 C 
ATOM     17  C   UNL     1      -3.506   5.299  -3.321  0.00  0.00    +0.000 C 
ENDBRANCH  11  12
ENDBRANCH   1  11
TORSDOF 4
