MODEL 1
REMARK VINA RESULT:      -4.6      0.000      0.000
REMARK  Name = *****
REMARK  3 active torsions:
REMARK  status: ('A' for Active; 'I' for Inactive)
REMARK    1  A    between atoms: C_4  and  C_7
REMARK    2  A    between atoms: C_7  and  O_9
REMARK    3  A    between atoms: O_9  and  C_10
REMARK                            x       y       z     vdW  Elec       q    Type
REMARK                         _______ _______ _______ _____ _____    ______ ____
ROOT
ATOM      1  O   UNL     1     102.360 125.575  81.224  0.00  0.00    +0.000 OA
ENDROOT
BRANCH   1   2
ATOM      2  C   UNL     1     103.690 125.368  80.845  0.00  0.00    +0.000 A 
ATOM      3  C   UNL     1     104.473 126.433  80.391  0.00  0.00    +0.000 A 
ATOM      4  C   UNL     1     105.787 126.196  79.986  0.00  0.00    +0.000 A 
ATOM      5  C   UNL     1     106.304 124.896  80.024  0.00  0.00    +0.000 A 
ATOM      6  C   UNL     1     105.503 123.839  80.463  0.00  0.00    +0.000 A 
ATOM      7  C   UNL     1     104.190 124.064  80.868  0.00  0.00    +0.000 A 
ATOM      8 CL   UNL     1     106.143 122.242  80.493  0.00  0.00    +0.000 Cl
ATOM      9 CL   UNL     1     103.847 128.037  80.305  0.00  0.00    +0.000 Cl
ENDBRANCH   1   2
BRANCH   1  10
ATOM     10  C   UNL     1     102.240 125.856  82.572  0.00  0.00    +0.000 C 
ATOM     11  O   UNL     1     102.889 125.366  83.483  0.00  0.00    +0.000 OA
BRANCH  10  15
ATOM     12  C   UNL     1      99.183 128.792  83.228  0.00  0.00    +0.000 A 
ATOM     13  C   UNL     1      98.847 127.587  82.611  0.00  0.00    +0.000 A 
ATOM     14  C   UNL     1      99.827 126.617  82.388  0.00  0.00    +0.000 A 
ATOM     15  C   UNL     1     101.151 126.850  82.785  0.00  0.00    +0.000 A 
ATOM     16  C   UNL     1     101.481 128.066  83.399  0.00  0.00    +0.000 A 
ATOM     17  C   UNL     1     100.498 129.033  83.621  0.00  0.00    +0.000 A 
ENDBRANCH  10  15
ENDBRANCH   1  10
TORSDOF 3
ENDMDL
