MODEL 1
REMARK VINA RESULT:      -5.0      0.000      0.000
REMARK  Name = *****
REMARK  4 active torsions:
REMARK  status: ('A' for Active; 'I' for Inactive)
REMARK    1  A    between atoms: C_1  and  O_2
REMARK    2  A    between atoms: O_2  and  C_3
REMARK    3  A    between atoms: C_6  and  C_11
REMARK    4  A    between atoms: C_12  and  C_13
REMARK                            x       y       z     vdW  Elec       q    Type
REMARK                         _______ _______ _______ _____ _____    ______ ____
ROOT
ATOM      1  C   UNL     1     106.044 122.693  80.784  0.00  0.00    +0.000 A 
ATOM      2  C   UNL     1     105.435 122.600  82.042  0.00  0.00    +0.000 A 
ATOM      3  C   UNL     1     104.420 123.477  82.420  0.00  0.00    +0.000 A 
ATOM      4  C   UNL     1     103.984 124.473  81.552  0.00  0.00    +0.000 A 
ATOM      5  C   UNL     1     104.585 124.572  80.298  0.00  0.00    +0.000 A 
ATOM      6  C   UNL     1     105.603 123.694  79.917  0.00  0.00    +0.000 A 
ATOM      7  F   UNL     1     106.139 123.845  78.697  0.00  0.00    +0.000 F 
ATOM      8  F   UNL     1     104.191 125.521  79.435  0.00  0.00    +0.000 F 
ATOM      9  F   UNL     1     103.864 123.349  83.635  0.00  0.00    +0.000 F 
ATOM     10  F   UNL     1     105.829 121.652  82.906  0.00  0.00    +0.000 F 
ENDROOT
BRANCH   1  12
ATOM     11  C   UNL     1     108.375 122.217  80.573  0.00  0.00    +0.000 C 
ATOM     12  O   UNL     1     107.025 121.770  80.544  0.00  0.00    +0.000 OA
ENDBRANCH   1  12
BRANCH   4  13
ATOM     13  C   UNL     1     102.943 125.374  81.935  0.00  0.00    +0.000 C 
ATOM     14  C   UNL     1     102.069 126.132  82.257  0.00  0.00    +0.000 C 
BRANCH  14  15
ATOM     15  C   UNL     1     101.029 127.036  82.640  0.00  0.00    +0.000 A 
ATOM     16  C   UNL     1      99.697 126.730  82.356  0.00  0.00    +0.000 A 
ATOM     17  C   UNL     1      98.682 127.613  82.730  0.00  0.00    +0.000 A 
ATOM     18  C   UNL     1      98.998 128.801  83.388  0.00  0.00    +0.000 A 
ATOM     19  C   UNL     1     100.328 129.108  83.672  0.00  0.00    +0.000 A 
ATOM     20  C   UNL     1     101.345 128.227  83.298  0.00  0.00    +0.000 A 
ENDBRANCH  14  15
ENDBRANCH   4  13
TORSDOF 3
ENDMDL
