MODEL 1
REMARK VINA RESULT:      -3.8      0.000      0.000
REMARK  Name = *****
REMARK  5 active torsions:
REMARK  status: ('A' for Active; 'I' for Inactive)
REMARK    1  A    between atoms: C_1  and  C_2
REMARK    2  A    between atoms: C_2  and  O_8
REMARK    3  A    between atoms: O_8  and  O_9
REMARK    4  A    between atoms: O_9  and  C_10
REMARK    5  A    between atoms: C_10  and  C_16
REMARK                            x       y       z     vdW  Elec       q    Type
REMARK                         _______ _______ _______ _____ _____    ______ ____
ROOT
ATOM      1  O   UNL     1      87.159  69.181  87.417  0.00  0.00    +0.000 OA
ENDROOT
BRANCH   1   3
ATOM      2  C   UNL     1      89.212  70.490  87.459  0.00  0.00    +0.000 C 
ATOM      3  C   UNL     1      87.679  70.523  87.399  0.00  0.00    +0.000 C 
ATOM      4  C   UNL     1      87.095  71.354  88.559  0.00  0.00    +0.000 C 
ATOM      5  C   UNL     1      85.574  71.490  88.464  0.00  0.00    +0.000 C 
ATOM      6  C   UNL     1      85.148  72.077  87.122  0.00  0.00    +0.000 C 
ATOM      7  C   UNL     1      85.718  71.282  85.952  0.00  0.00    +0.000 C 
ATOM      8  C   UNL     1      87.238  71.135  86.054  0.00  0.00    +0.000 C 
ENDBRANCH   1   3
BRANCH   1   9
ATOM      9  O   UNL     1      88.296  68.267  87.480  0.00  0.00    +0.000 OA
BRANCH   9  10
ATOM     10  C   UNL     1      87.932  67.069  86.771  0.00  0.00    +0.000 C 
ATOM     11  C   UNL     1      89.081  66.041  86.800  0.00  0.00    +0.000 C 
ATOM     12  C   UNL     1      90.345  66.568  86.117  0.00  0.00    +0.000 C 
ATOM     13  C   UNL     1      90.062  67.009  84.686  0.00  0.00    +0.000 C 
ATOM     14  C   UNL     1      88.924  68.021  84.620  0.00  0.00    +0.000 C 
ATOM     15  C   UNL     1      87.663  67.499  85.314  0.00  0.00    +0.000 C 
ATOM     16  C   UNL     1      86.647  66.480  87.366  0.00  0.00    +0.000 C 
ENDBRANCH   9  10
ENDBRANCH   1   9
TORSDOF 3
ENDMDL
