REMARK  Name = *****
REMARK  3 active torsions:
REMARK  status: ('A' for Active; 'I' for Inactive)
REMARK    1  A    between atoms: C_6  and  C_7
REMARK    2  A    between atoms: C_7  and  C_10
REMARK    3  A    between atoms: C_10  and  C_12
REMARK                            x       y       z     vdW  Elec       q    Type
REMARK                         _______ _______ _______ _____ _____    ______ ____
ROOT
ATOM      1  C   UNL     1       3.916   0.018   0.061  0.00  0.00    +0.000 C 
ATOM      2  C   UNL     1       4.570  -1.102  -0.066  0.00  0.00    +0.000 C 
ATOM      3  O   UNL     1       5.157  -2.116  -0.166  0.00  0.00    +0.000 OA
ENDROOT
BRANCH   1   9
ATOM      4  C   UNL     1       1.698  -1.031  -0.549  0.00  0.00    +0.000 A 
ATOM      5  C   UNL     1       0.299  -1.009  -0.590  0.00  0.00    +0.000 A 
ATOM      6  C   UNL     1      -0.393   0.087  -0.084  0.00  0.00    +0.000 A 
ATOM      7  C   UNL     1       0.304   1.158   0.464  0.00  0.00    +0.000 A 
ATOM      8  C   UNL     1       1.703   1.134   0.506  0.00  0.00    +0.000 A 
ATOM      9  C   UNL     1       2.429   0.042  -0.003  0.00  0.00    +0.000 A 
ATOM     10 CL   UNL     1      -2.111   0.115  -0.135  0.00  0.00    +0.000 Cl
ENDBRANCH   1   9
BRANCH   1  11
ATOM     11  C   UNL     1       4.727   1.273   0.107  0.00  0.00    +0.000 C 
ATOM     12  O   UNL     1       4.331   2.308  -0.423  0.00  0.00    +0.000 OA
BRANCH  11  13
ATOM     13  C   UNL     1       6.047   1.283   0.794  0.00  0.00    +0.000 A 
ATOM     14  C   UNL     1       7.062   2.089   0.260  0.00  0.00    +0.000 A 
ATOM     15  C   UNL     1       8.314   2.147   0.878  0.00  0.00    +0.000 A 
ATOM     16  C   UNL     1       8.547   1.410   2.038  0.00  0.00    +0.000 A 
ATOM     17  C   UNL     1       7.537   0.622   2.588  0.00  0.00    +0.000 A 
ATOM     18  C   UNL     1       6.282   0.562   1.973  0.00  0.00    +0.000 A 
ATOM     19 CL   UNL     1      10.086   1.483   2.802  0.00  0.00    +0.000 Cl
ENDBRANCH  11  13
ENDBRANCH   1  11
TORSDOF 3
