MODEL 1
REMARK VINA RESULT:      -4.4      0.000      0.000
REMARK  Name = *****
REMARK  2 active torsions:
REMARK  status: ('A' for Active; 'I' for Inactive)
REMARK    1  A    between atoms: C_4  and  S_7
REMARK    2  A    between atoms: S_7  and  C_8
REMARK                            x       y       z     vdW  Elec       q    Type
REMARK                         _______ _______ _______ _____ _____    ______ ____
ROOT
ATOM      1  C   UNL     1     103.464 126.893  82.229  0.00  0.00    +0.000 A 
ATOM      2  C   UNL     1     103.852 125.583  82.076  0.00  0.00    +0.000 A 
ATOM      3  C   UNL     1     103.901 124.598  83.064  0.00  0.00    +0.000 A 
ATOM      4  C   UNL     1     104.346 123.366  82.542  0.00  0.00    +0.000 A 
ATOM      5  C   UNL     1     104.699 123.162  81.173  0.00  0.00    +0.000 A 
ATOM      6  C   UNL     1     104.639 124.178  80.192  0.00  0.00    +0.000 A 
ATOM      7  C   UNL     1     104.198 125.419  80.685  0.00  0.00    +0.000 A 
ATOM      8  N   UNL     1     104.023 126.587  80.049  0.00  0.00    +0.000 NA
ATOM      9  O   UNL     1     103.576 127.488  80.999  0.00  0.00    +0.000 OA
ENDROOT
BRANCH   1  10
ATOM     10  S   UNL     1     102.925 127.741  83.662  0.00  0.00    +0.000 S 
BRANCH  10  14
ATOM     11  C   UNL     1      98.446 127.973  82.736  0.00  0.00    +0.000 A 
ATOM     12  C   UNL     1      99.165 126.822  82.422  0.00  0.00    +0.000 A 
ATOM     13  C   UNL     1     100.530 126.750  82.709  0.00  0.00    +0.000 A 
ATOM     14  C   UNL     1     101.180 127.829  83.317  0.00  0.00    +0.000 A 
ATOM     15  C   UNL     1     100.455 128.986  83.622  0.00  0.00    +0.000 A 
ATOM     16  C   UNL     1      99.090 129.056  83.335  0.00  0.00    +0.000 A 
ENDBRANCH  10  14
ENDBRANCH   1  10
TORSDOF 2
ENDMDL
