REMARK  Name = *****
REMARK  5 active torsions:
REMARK  status: ('A' for Active; 'I' for Inactive)
REMARK    1  A    between atoms: C_1  and  N_2
REMARK    2  A    between atoms: N_2  and  C_3
REMARK    3  A    between atoms: N_2  and  C_4
REMARK    4  A    between atoms: C_9  and  C_10
REMARK    5  A    between atoms: C_11  and  C_12
REMARK                            x       y       z     vdW  Elec       q    Type
REMARK                         _______ _______ _______ _____ _____    ______ ____
ROOT
ATOM      1  C   UNL     1       3.452  -0.234  -0.953  0.00  0.00    +0.000 A 
ATOM      2  C   UNL     1       3.418   0.414  -2.202  0.00  0.00    +0.000 A 
ATOM      3  C   UNL     1       3.966  -0.174  -3.344  0.00  0.00    +0.000 A 
ATOM      4  C   UNL     1       4.565  -1.426  -3.263  0.00  0.00    +0.000 A 
ATOM      5  C   UNL     1       4.612  -2.092  -2.040  0.00  0.00    +0.000 A 
ATOM      6  C   UNL     1       4.051  -1.521  -0.884  0.00  0.00    +0.000 A 
ENDROOT
BRANCH   1   8
ATOM      7  C   UNL     1       1.516  -0.154   0.424  0.00  0.00    +0.000 C 
ATOM      8  N   UNL     1       2.877   0.349   0.204  0.00  0.00    +0.000 N 
ATOM      9  C   UNL     1       3.010   1.798   0.332  0.00  0.00    +0.000 C 
ENDBRANCH   1   8
BRANCH   6  10
ATOM     10  C   UNL     1       4.176  -2.222   0.410  0.00  0.00    +0.000 C 
ATOM     11  C   UNL     1       3.979  -3.541   0.575  0.00  0.00    +0.000 C 
BRANCH  11  12
ATOM     12  C   UNL     1       4.076  -4.204   1.885  0.00  0.00    +0.000 A 
ATOM     13  C   UNL     1       5.224  -4.012   2.672  0.00  0.00    +0.000 A 
ATOM     14  C   UNL     1       5.362  -4.650   3.908  0.00  0.00    +0.000 A 
ATOM     15  C   UNL     1       4.358  -5.494   4.374  0.00  0.00    +0.000 A 
ATOM     16  C   UNL     1       3.216  -5.705   3.602  0.00  0.00    +0.000 A 
ATOM     17  C   UNL     1       3.075  -5.068   2.363  0.00  0.00    +0.000 A 
ATOM     18 CL   UNL     1       1.624  -5.376   1.470  0.00  0.00    +0.000 Cl
ENDBRANCH  11  12
ENDBRANCH   6  10
TORSDOF 3
