MODEL 1
REMARK VINA RESULT:      -4.4      0.000      0.000
REMARK  Name = *****
REMARK  6 active torsions:
REMARK  status: ('A' for Active; 'I' for Inactive)
REMARK    1  A    between atoms: C_1  and  C_2
REMARK    2  A    between atoms: C_2  and  O_3
REMARK    3  A    between atoms: O_3  and  C_4
REMARK    4  A    between atoms: C_4  and  C_5
REMARK    5  A    between atoms: C_4  and  C_12
REMARK    6  A    between atoms: C_5  and  C_6
REMARK                            x       y       z     vdW  Elec       q    Type
REMARK                         _______ _______ _______ _____ _____    ______ ____
ROOT
ATOM      1  C   UNL     1      89.375  68.911  85.998  0.00  0.00    +0.000 C 
ATOM      2  S   UNL     1      87.681  68.086  85.718  0.00  0.00    +0.000 S 
ENDROOT
BRANCH   1   3
ATOM      3  C   UNL     1      89.899  69.288  84.551  0.00  0.00    +0.000 C 
ATOM      4  C   UNL     1      90.458  70.731  84.455  0.00  0.00    +0.000 C 
ATOM      5  C   UNL     1      91.076  71.013  83.086  0.00  0.00    +0.000 C 
ATOM      6  C   UNL     1      90.084  70.756  81.958  0.00  0.00    +0.000 C 
ATOM      7  C   UNL     1      89.511  69.347  82.032  0.00  0.00    +0.000 C 
ATOM      8  C   UNL     1      88.889  69.061  83.400  0.00  0.00    +0.000 C 
ENDBRANCH   1   3
BRANCH   1   9
ATOM      9  O   UNL     1      90.301  67.943  86.535  0.00  0.00    +0.000 OA
BRANCH   9  11
ATOM     10  C   UNL     1      91.007  65.926  85.497  0.00  0.00    +0.000 C 
ATOM     11  C   UNL     1      89.981  66.560  86.421  0.00  0.00    +0.000 C 
ENDBRANCH   9  11
ENDBRANCH   1   9
BRANCH   1  12
ATOM     12  C   UNL     1      89.110  70.128  86.951  0.00  0.00    +0.000 C 
BRANCH  12  13
ATOM     13  C   UNL     1      87.723  70.755  86.980  0.00  0.00    +0.000 A 
ATOM     14  C   UNL     1      87.057  70.924  88.204  0.00  0.00    +0.000 A 
ATOM     15  C   UNL     1      85.797  71.524  88.261  0.00  0.00    +0.000 A 
ATOM     16  C   UNL     1      85.189  71.977  87.092  0.00  0.00    +0.000 A 
ATOM     17  C   UNL     1      85.843  71.832  85.872  0.00  0.00    +0.000 A 
ATOM     18  C   UNL     1      87.103  71.231  85.818  0.00  0.00    +0.000 A 
ENDBRANCH  12  13
ENDBRANCH   1  12
TORSDOF 5
ENDMDL
