MODEL 1
REMARK VINA RESULT:      -4.2      0.000      0.000
REMARK  Name = *****
REMARK  4 active torsions:
REMARK  status: ('A' for Active; 'I' for Inactive)
REMARK    1  A    between atoms: C_1  and  O_2
REMARK    2  A    between atoms: O_2  and  C_3
REMARK    3  A    between atoms: C_3  and  C_11
REMARK    4  A    between atoms: C_12  and  C_13
REMARK                            x       y       z     vdW  Elec       q    Type
REMARK                         _______ _______ _______ _____ _____    ______ ____
ROOT
ATOM      1  C   UNL     1      84.939  59.414  90.875  0.00  0.00    +0.000 C 
ATOM      2  C   UNL     1      86.006  58.312  90.939  0.00  0.00    +0.000 C 
ATOM      3  C   UNL     1      85.588  59.014  92.201  0.00  0.00    +0.000 C 
ATOM      4  C   UNL     1      84.921  58.378  93.375  0.00  0.00    +0.000 C 
ATOM      5  C   UNL     1      83.850  57.320  93.178  0.00  0.00    +0.000 C 
ATOM      6  C   UNL     1      84.338  56.035  92.528  0.00  0.00    +0.000 C 
ATOM      7  C   UNL     1      84.537  56.151  91.025  0.00  0.00    +0.000 C 
ATOM      8  C   UNL     1      85.810  56.869  90.615  0.00  0.00    +0.000 C 
ENDROOT
BRANCH   1  10
ATOM      9  C   UNL     1      82.593  59.938  90.888  0.00  0.00    +0.000 C 
ATOM     10  O   UNL     1      83.592  58.959  90.632  0.00  0.00    +0.000 OA
ENDBRANCH   1  10
BRANCH   1  11
ATOM     11  C   UNL     1      85.417  60.664  90.232  0.00  0.00    +0.000 C 
ATOM     12  C   UNL     1      85.636  61.841  90.843  0.00  0.00    +0.000 C 
BRANCH  12  13
ATOM     13  C   UNL     1      86.102  63.082  90.143  0.00  0.00    +0.000 C 
ATOM     14  C   UNL     1      86.996  62.765  88.971  0.00  0.00    +0.000 C 
ATOM     15  C   UNL     1      88.207  63.316  89.154  0.00  0.00    +0.000 C 
ATOM     16  C   UNL     1      88.225  64.018  90.414  0.00  0.00    +0.000 C 
ATOM     17  C   UNL     1      87.027  63.900  91.006  0.00  0.00    +0.000 C 
ENDBRANCH  12  13
ENDBRANCH   1  11
TORSDOF 3
ENDMDL
