MODEL 1
REMARK VINA RESULT:      -4.4      0.000      0.000
REMARK  Name = *****
REMARK  5 active torsions:
REMARK  status: ('A' for Active; 'I' for Inactive)
REMARK    1  A    between atoms: C_1  and  O_2
REMARK    2  A    between atoms: O_2  and  C_3
REMARK    3  A    between atoms: C_3  and  C_4
REMARK    4  A    between atoms: C_3  and  C_10
REMARK    5  A    between atoms: C_10  and  C_11
REMARK                            x       y       z     vdW  Elec       q    Type
REMARK                         _______ _______ _______ _____ _____    ______ ____
ROOT
ATOM      1  C   UNL     1      87.274  70.703  85.996  0.00  0.00    +0.000 C 
ENDROOT
BRANCH   1   2
ATOM      2  C   UNL     1      86.285  71.321  86.972  0.00  0.00    +0.000 A 
ATOM      3  C   UNL     1      86.501  71.280  88.359  0.00  0.00    +0.000 A 
ATOM      4  C   UNL     1      85.574  71.833  89.245  0.00  0.00    +0.000 A 
ATOM      5  C   UNL     1      84.418  72.437  88.756  0.00  0.00    +0.000 A 
ATOM      6  C   UNL     1      84.188  72.489  87.384  0.00  0.00    +0.000 A 
ATOM      7  C   UNL     1      85.115  71.935  86.497  0.00  0.00    +0.000 A 
ENDBRANCH   1   2
BRANCH   1   9
ATOM      8  C   UNL     1      87.203  71.128  83.644  0.00  0.00    +0.000 C 
ATOM      9  O   UNL     1      87.529  71.643  84.928  0.00  0.00    +0.000 OA
ENDBRANCH   1   9
BRANCH   1  10
ATOM     10  C   UNL     1      88.620  70.227  86.620  0.00  0.00    +0.000 C 
ATOM     11 CL   UNL     1      90.028  71.008  85.811  0.00  0.00    +0.000 Cl
BRANCH  10  12
ATOM     12  C   UNL     1      88.802  68.721  86.738  0.00  0.00    +0.000 A 
ATOM     13  C   UNL     1      89.925  68.050  86.228  0.00  0.00    +0.000 A 
ATOM     14  C   UNL     1      90.041  66.661  86.335  0.00  0.00    +0.000 A 
ATOM     15  C   UNL     1      89.032  65.921  86.944  0.00  0.00    +0.000 A 
ATOM     16  C   UNL     1      87.904  66.566  87.444  0.00  0.00    +0.000 A 
ATOM     17  C   UNL     1      87.788  67.954  87.339  0.00  0.00    +0.000 A 
ENDBRANCH  10  12
ENDBRANCH   1  10
TORSDOF 4
ENDMDL
