MODEL 1
REMARK VINA RESULT:      -4.9      0.000      0.000
REMARK  Name = *****
REMARK  4 active torsions:
REMARK  status: ('A' for Active; 'I' for Inactive)
REMARK    1  A    between atoms: C_1  and  O_2
REMARK    2  A    between atoms: O_2  and  C_3
REMARK    3  A    between atoms: C_7  and  C_9
REMARK    4  A    between atoms: C_11  and  C_12
REMARK                            x       y       z     vdW  Elec       q    Type
REMARK                         _______ _______ _______ _____ _____    ______ ____
ROOT
ATOM      1  C   UNL     1     102.292 125.936  81.559  0.00  0.00    +0.000 C 
ATOM      2  C   UNL     1     103.602 126.479  81.050  0.00  0.00    +0.000 C 
ATOM      3  C   UNL     1     103.604 125.516  82.209  0.00  0.00    +0.000 C 
ENDROOT
BRANCH   1   8
ATOM      4  C   UNL     1      99.049 127.462  82.937  0.00  0.00    +0.000 A 
ATOM      5  C   UNL     1      99.541 128.536  83.677  0.00  0.00    +0.000 A 
ATOM      6  C   UNL     1     100.915 128.770  83.733  0.00  0.00    +0.000 A 
ATOM      7  C   UNL     1     101.800 127.929  83.053  0.00  0.00    +0.000 A 
ATOM      8  C   UNL     1     101.337 126.835  82.308  0.00  0.00    +0.000 A 
ATOM      9  C   UNL     1      99.947 126.630  82.260  0.00  0.00    +0.000 A 
BRANCH   4  11
ATOM     10  C   UNL     1      97.210 126.172  83.714  0.00  0.00    +0.000 C 
ATOM     11  O   UNL     1      97.733 127.120  82.792  0.00  0.00    +0.000 OA
ENDBRANCH   4  11
ENDBRANCH   1   8
BRANCH   3  12
ATOM     12  C   UNL     1     104.115 124.106  82.024  0.00  0.00    +0.000 A 
ATOM     13  C   UNL     1     104.541 123.643  80.769  0.00  0.00    +0.000 A 
ATOM     14  C   UNL     1     105.029 122.345  80.596  0.00  0.00    +0.000 A 
ATOM     15  C   UNL     1     105.105 121.481  81.685  0.00  0.00    +0.000 A 
ATOM     16  C   UNL     1     104.699 121.917  82.943  0.00  0.00    +0.000 A 
ATOM     17  C   UNL     1     104.213 123.217  83.108  0.00  0.00    +0.000 A 
ENDBRANCH   3  12
TORSDOF 3
ENDMDL
