MODEL 1
REMARK VINA RESULT:      -4.0      0.000      0.000
REMARK  Name = *****
REMARK  3 active torsions:
REMARK  status: ('A' for Active; 'I' for Inactive)
REMARK    1  A    between atoms: C_4  and  C_6
REMARK    2  A    between atoms: C_6  and  O_8
REMARK    3  A    between atoms: O_8  and  C_9
REMARK                            x       y       z     vdW  Elec       q    Type
REMARK                         _______ _______ _______ _____ _____    ______ ____
ROOT
ATOM      1  O   UNL     1     103.825 126.807  82.079  0.00  0.00    +0.000 OA
ENDROOT
BRANCH   1   2
ATOM      2  C   UNL     1     102.545 127.189  82.488  0.00  0.00    +0.000 A 
ATOM      3  C   UNL     1     102.345 128.387  83.183  0.00  0.00    +0.000 A 
ATOM      4  C   UNL     1     101.062 128.731  83.610  0.00  0.00    +0.000 A 
ATOM      5  C   UNL     1      99.999 127.867  83.347  0.00  0.00    +0.000 A 
ATOM      6  C   UNL     1     100.203 126.662  82.670  0.00  0.00    +0.000 A 
ATOM      7  C   UNL     1     101.485 126.315  82.243  0.00  0.00    +0.000 A 
ATOM      8 CL   UNL     1      98.414 128.285  83.874  0.00  0.00    +0.000 Cl
ATOM      9 CL   UNL     1     103.658 129.446  83.542  0.00  0.00    +0.000 Cl
ENDBRANCH   1   2
BRANCH   1  10
ATOM     10  C   UNL     1     103.922 126.630  80.699  0.00  0.00    +0.000 C 
ATOM     11  O   UNL     1     103.522 127.434  79.863  0.00  0.00    +0.000 OA
BRANCH  10  15
ATOM     12  C   UNL     1     105.080 123.069  80.380  0.00  0.00    +0.000 A 
ATOM     13  C   UNL     1     106.063 123.591  79.571  0.00  0.00    +0.000 A 
ATOM     14  S   UNL     1     105.931 125.287  79.412  0.00  0.00    +0.000 S 
ATOM     15  C   UNL     1     104.549 125.347  80.427  0.00  0.00    +0.000 A 
ATOM     16  C   UNL     1     104.205 124.082  80.875  0.00  0.00    +0.000 A 
ENDBRANCH  10  15
ENDBRANCH   1  10
TORSDOF 3
ENDMDL
