MODEL 1
REMARK VINA RESULT:      -4.5      0.000      0.000
REMARK  Name = *****
REMARK  6 active torsions:
REMARK  status: ('A' for Active; 'I' for Inactive)
REMARK    1  A    between atoms: C_1  and  N_2
REMARK    2  A    between atoms: N_2  and  C_3
REMARK    3  A    between atoms: N_2  and  C_4
REMARK    4  A    between atoms: C_7  and  C_10
REMARK    5  A    between atoms: C_10  and  S_12
REMARK    6  A    between atoms: S_12  and  C_13
REMARK                            x       y       z     vdW  Elec       q    Type
REMARK                         _______ _______ _______ _____ _____    ______ ____
ROOT
ATOM      1  C   UNL     1     104.862 122.808  81.404  0.00  0.00    +0.000 A 
ATOM      2  C   UNL     1     104.764 123.639  80.273  0.00  0.00    +0.000 A 
ATOM      3  C   UNL     1     104.303 124.965  80.345  0.00  0.00    +0.000 A 
ATOM      4  C   UNL     1     103.930 125.519  81.569  0.00  0.00    +0.000 A 
ATOM      5  C   UNL     1     104.028 124.719  82.710  0.00  0.00    +0.000 A 
ATOM      6  C   UNL     1     104.491 123.397  82.625  0.00  0.00    +0.000 A 
ENDROOT
BRANCH   1   8
ATOM      7  C   UNL     1     104.588 120.423  81.972  0.00  0.00    +0.000 C 
ATOM      8  N   UNL     1     105.339 121.496  81.322  0.00  0.00    +0.000 N 
ATOM      9  C   UNL     1     106.777 121.266  81.185  0.00  0.00    +0.000 C 
ENDBRANCH   1   8
BRANCH   4  10
ATOM     10  C   UNL     1     103.430 126.915  81.738  0.00  0.00    +0.000 C 
ATOM     11  O   UNL     1     103.321 127.667  80.776  0.00  0.00    +0.000 OA
BRANCH  10  12
ATOM     12  S   UNL     1     102.991 127.469  83.351  0.00  0.00    +0.000 S 
BRANCH  12  13
ATOM     13  C   UNL     1     101.234 127.677  83.135  0.00  0.00    +0.000 A 
ATOM     14  C   UNL     1     100.491 126.662  82.523  0.00  0.00    +0.000 A 
ATOM     15  C   UNL     1      99.113 126.804  82.350  0.00  0.00    +0.000 A 
ATOM     16  C   UNL     1      98.469 127.958  82.793  0.00  0.00    +0.000 A 
ATOM     17  C   UNL     1      99.202 128.969  83.413  0.00  0.00    +0.000 A 
ATOM     18  C   UNL     1     100.579 128.827  83.586  0.00  0.00    +0.000 A 
ENDBRANCH  12  13
ENDBRANCH  10  12
ENDBRANCH   4  10
TORSDOF 4
ENDMDL
