MODEL 1
REMARK VINA RESULT:      -4.6      0.000      0.000
REMARK  Name = *****
REMARK  5 active torsions:
REMARK  status: ('A' for Active; 'I' for Inactive)
REMARK    1  A    between atoms: C_1  and  O_2
REMARK    2  A    between atoms: O_2  and  C_3
REMARK    3  A    between atoms: C_3  and  C_5
REMARK    4  A    between atoms: C_5  and  C_13
REMARK    5  A    between atoms: C_6  and  C_7
REMARK                            x       y       z     vdW  Elec       q    Type
REMARK                         _______ _______ _______ _____ _____    ______ ____
ROOT
ATOM      1  C   UNL     1     102.700 126.129  82.270  0.00  0.00    +0.000 C 
ATOM      2  C   UNL     1     102.960 125.801  80.988  0.00  0.00    +0.000 C 
ENDROOT
BRANCH   2   3
ATOM      3  C   UNL     1     104.140 125.071  80.511  0.00  0.00    +0.000 A 
ATOM      4  C   UNL     1     105.168 125.768  79.867  0.00  0.00    +0.000 A 
ATOM      5  C   UNL     1     106.302 125.089  79.413  0.00  0.00    +0.000 A 
ATOM      6  C   UNL     1     106.417 123.714  79.608  0.00  0.00    +0.000 A 
ATOM      7  C   UNL     1     105.402 123.015  80.257  0.00  0.00    +0.000 A 
ATOM      8  C   UNL     1     104.267 123.690  80.711  0.00  0.00    +0.000 A 
ENDBRANCH   2   3
BRANCH   1   9
ATOM      9  C   UNL     1     101.501 126.925  82.602  0.00  0.00    +0.000 A 
ATOM     10  C   UNL     1     100.219 126.459  82.273  0.00  0.00    +0.000 A 
ATOM     11  C   UNL     1      99.085 127.209  82.593  0.00  0.00    +0.000 A 
ATOM     12  C   UNL     1      99.219 128.431  83.250  0.00  0.00    +0.000 A 
ATOM     13  C   UNL     1     100.486 128.902  83.587  0.00  0.00    +0.000 A 
ATOM     14  C   UNL     1     101.621 128.153  83.267  0.00  0.00    +0.000 A 
ENDBRANCH   1   9
BRANCH   1  15
ATOM     15  C   UNL     1     103.647 125.739  83.349  0.00  0.00    +0.000 C 
ATOM     16  O   UNL     1     104.660 126.361  83.635  0.00  0.00    +0.000 OA
BRANCH  15  18
ATOM     17  C   UNL     1     104.210 123.745  84.418  0.00  0.00    +0.000 C 
ATOM     18  O   UNL     1     103.180 124.625  83.971  0.00  0.00    +0.000 OA
ENDBRANCH  15  18
ENDBRANCH   1  15
TORSDOF 4
ENDMDL
