MODEL 1
REMARK VINA RESULT:      -4.6      0.000      0.000
REMARK  Name = *****
REMARK  5 active torsions:
REMARK  status: ('A' for Active; 'I' for Inactive)
REMARK    1  A    between atoms: C_1  and  C_2
REMARK    2  A    between atoms: C_3  and  C_16
REMARK    3  A    between atoms: C_6  and  C_7
REMARK    4  A    between atoms: C_7  and  C_8
REMARK    5  A    between atoms: C_9  and  C_10
REMARK                            x       y       z     vdW  Elec       q    Type
REMARK                         _______ _______ _______ _____ _____    ______ ____
ROOT
ATOM      1  C   UNL     1     103.898 124.514  82.822  0.00  0.00    +0.000 C 
ENDROOT
BRANCH   1   7
ATOM      2  C   UNL     1     104.823 122.485  80.454  0.00  0.00    +0.000 C 
ATOM      3  C   UNL     1     105.036 123.954  80.515  0.00  0.00    +0.000 A 
ATOM      4  C   UNL     1     105.682 124.742  79.578  0.00  0.00    +0.000 A 
ATOM      5  O   UNL     1     105.686 126.044  79.972  0.00  0.00    +0.000 OA
ATOM      6  C   UNL     1     105.053 126.098  81.168  0.00  0.00    +0.000 A 
ATOM      7  C   UNL     1     104.630 124.847  81.563  0.00  0.00    +0.000 A 
ATOM      8  C   UNL     1     106.335 124.457  78.283  0.00  0.00    +0.000 C 
ENDBRANCH   1   7
BRANCH   1   9
ATOM      9  C   UNL     1     102.874 125.560  83.162  0.00  0.00    +0.000 C 
ATOM     10  C   UNL     1     101.920 125.977  82.314  0.00  0.00    +0.000 C 
BRANCH  10  11
ATOM     11  C   UNL     1     100.916 126.996  82.648  0.00  0.00    +0.000 A 
ATOM     12  C   UNL     1      99.568 126.742  82.361  0.00  0.00    +0.000 A 
ATOM     13  C   UNL     1      98.582 127.675  82.693  0.00  0.00    +0.000 A 
ATOM     14  C   UNL     1      98.933 128.865  83.328  0.00  0.00    +0.000 A 
ATOM     15  C   UNL     1     100.268 129.122  83.633  0.00  0.00    +0.000 A 
ATOM     16  C   UNL     1     101.254 128.190  83.300  0.00  0.00    +0.000 A 
ENDBRANCH  10  11
ENDBRANCH   1   9
TORSDOF 3
ENDMDL
