REMARK  Name = *****
REMARK  3 active torsions:
REMARK  status: ('A' for Active; 'I' for Inactive)
REMARK    1  A    between atoms: C_4  and  C_7
REMARK    2  A    between atoms: C_8  and  C_9
REMARK    3  A    between atoms: C_12  and  C_15
REMARK                            x       y       z     vdW  Elec       q    Type
REMARK                         _______ _______ _______ _____ _____    ______ ____
ROOT
ATOM      1  C   UNL     1       2.778  -0.635  -0.342  0.00  0.00    +0.000 C 
ATOM      2  C   UNL     1       3.860  -0.829   0.429  0.00  0.00    +0.000 C 
ENDROOT
BRANCH   1   6
ATOM      3  C   UNL     1      -1.463   0.294  -0.185  0.00  0.00    +0.000 C 
ATOM      4  C   UNL     1      -1.005  -1.077   0.303  0.00  0.00    +0.000 C 
ATOM      5  C   UNL     1       0.404  -1.408  -0.185  0.00  0.00    +0.000 C 
ATOM      6  C   UNL     1       1.409  -0.314   0.208  0.00  0.00    +0.000 C 
ATOM      7  C   UNL     1       0.941   1.061  -0.293  0.00  0.00    +0.000 C 
ATOM      8  C   UNL     1      -0.469   1.387   0.196  0.00  0.00    +0.000 C 
ENDBRANCH   1   6
BRANCH   2   9
ATOM      9  C   UNL     1       5.197  -1.149  -0.090  0.00  0.00    +0.000 A 
ATOM     10  C   UNL     1       5.699  -0.578  -1.268  0.00  0.00    +0.000 A 
ATOM     11  C   UNL     1       6.988  -0.883  -1.714  0.00  0.00    +0.000 A 
ATOM     12  C   UNL     1       7.789  -1.755  -0.976  0.00  0.00    +0.000 A 
ATOM     13  C   UNL     1       7.311  -2.320   0.208  0.00  0.00    +0.000 A 
ATOM     14  C   UNL     1       6.021  -2.010   0.649  0.00  0.00    +0.000 A 
BRANCH  12  15
ATOM     15  C   UNL     1       9.153  -2.084  -1.438  0.00  0.00    +0.000 C 
ATOM     16  O   UNL     1       9.625  -1.616  -2.466  0.00  0.00    +0.000 OA
ENDBRANCH  12  15
ENDBRANCH   2   9
TORSDOF 3
