REMARK  Name = *****
REMARK  2 active torsions:
REMARK  status: ('A' for Active; 'I' for Inactive)
REMARK    1  A    between atoms: C_2  and  C_12
REMARK    2  A    between atoms: N_3  and  C_4
REMARK                            x       y       z     vdW  Elec       q    Type
REMARK                         _______ _______ _______ _____ _____    ______ ____
ROOT
ATOM      1  C   UNL     1      -0.122   0.447  -0.350  0.00  0.00    +0.000 C 
ATOM      2  C   UNL     1       0.591  -0.854  -0.098  0.00  0.00    +0.000 C 
ATOM      3  N   UNL     1      -0.672  -0.806  -0.861  0.00  0.00    +0.000 N 
ENDROOT
BRANCH   3   4
ATOM      4  C   UNL     1      -1.853  -1.357  -0.293  0.00  0.00    +0.000 A 
ATOM      5  C   UNL     1      -2.240  -1.283   1.054  0.00  0.00    +0.000 A 
ATOM      6  C   UNL     1      -3.427  -1.861   1.515  0.00  0.00    +0.000 A 
ATOM      7  C   UNL     1      -4.267  -2.535   0.633  0.00  0.00    +0.000 A 
ATOM      8  C   UNL     1      -3.912  -2.628  -0.709  0.00  0.00    +0.000 A 
ATOM      9  C   UNL     1      -2.723  -2.047  -1.156  0.00  0.00    +0.000 A 
ATOM     10  F   UNL     1      -2.420  -2.166  -2.459  0.00  0.00    +0.000 F 
ATOM     11  F   UNL     1      -1.477  -0.651   1.959  0.00  0.00    +0.000 F 
ENDBRANCH   3   4
BRANCH   2  12
ATOM     12  C   UNL     1       1.855  -1.171  -0.856  0.00  0.00    +0.000 A 
ATOM     13  C   UNL     1       3.048  -0.475  -0.593  0.00  0.00    +0.000 A 
ATOM     14  C   UNL     1       4.231  -0.770  -1.277  0.00  0.00    +0.000 A 
ATOM     15  C   UNL     1       4.245  -1.775  -2.240  0.00  0.00    +0.000 A 
ATOM     16  C   UNL     1       3.079  -2.483  -2.517  0.00  0.00    +0.000 A 
ATOM     17  C   UNL     1       1.900  -2.183  -1.829  0.00  0.00    +0.000 A 
ENDBRANCH   2  12
TORSDOF 2
