MODEL 1
REMARK VINA RESULT:      -3.6      0.000      0.000
REMARK  Name = *****
REMARK  4 active torsions:
REMARK  status: ('A' for Active; 'I' for Inactive)
REMARK    1  A    between atoms: C_4  and  C_7
REMARK    2  A    between atoms: C_7  and  C_8
REMARK    3  A    between atoms: C_8  and  S_9
REMARK    4  A    between atoms: S_9  and  C_10
REMARK                            x       y       z     vdW  Elec       q    Type
REMARK                         _______ _______ _______ _____ _____    ______ ____
ROOT
ATOM      1  C   UNL     1      90.188  70.014  83.679  0.00  0.00    +0.000 C 
ENDROOT
BRANCH   1   2
ATOM      2  C   UNL     1      89.387  71.231  84.142  0.00  0.00    +0.000 C 
BRANCH   2   6
ATOM      3  C   UNL     1      87.665  70.525  88.033  0.00  0.00    +0.000 A 
ATOM      4  C   UNL     1      89.031  70.338  87.830  0.00  0.00    +0.000 A 
ATOM      5  C   UNL     1      89.591  70.573  86.574  0.00  0.00    +0.000 A 
ATOM      6  C   UNL     1      88.787  71.000  85.508  0.00  0.00    +0.000 A 
ATOM      7  C   UNL     1      87.414  71.181  85.721  0.00  0.00    +0.000 A 
ATOM      8  C   UNL     1      86.856  70.946  86.979  0.00  0.00    +0.000 A 
ENDBRANCH   2   6
ENDBRANCH   1   2
BRANCH   1   9
ATOM      9  S   UNL     1      89.053  68.708  83.091  0.00  0.00    +0.000 S 
BRANCH   9  10
ATOM     10  C   UNL     1      88.941  67.683  84.547  0.00  0.00    +0.000 A 
ATOM     11  C   UNL     1      90.072  67.145  85.171  0.00  0.00    +0.000 A 
ATOM     12  C   UNL     1      89.939  66.359  86.320  0.00  0.00    +0.000 A 
ATOM     13  C   UNL     1      88.675  66.118  86.853  0.00  0.00    +0.000 A 
ATOM     14  C   UNL     1      87.543  66.662  86.251  0.00  0.00    +0.000 A 
ATOM     15  C   UNL     1      87.678  67.447  85.103  0.00  0.00    +0.000 A 
ATOM     16 CL   UNL     1      88.513  65.152  88.267  0.00  0.00    +0.000 Cl
ENDBRANCH   9  10
ENDBRANCH   1   9
TORSDOF 4
ENDMDL
