MODEL 1
REMARK VINA RESULT:      -4.6      0.000      0.000
REMARK  Name = *****
REMARK  3 active torsions:
REMARK  status: ('A' for Active; 'I' for Inactive)
REMARK    1  A    between atoms: C_4  and  S_7
REMARK    2  A    between atoms: S_7  and  N_9
REMARK    3  A    between atoms: N_9  and  C_10
REMARK                            x       y       z     vdW  Elec       q    Type
REMARK                         _______ _______ _______ _____ _____    ______ ____
ROOT
ATOM      1  N   UNL     1     101.378 126.859  81.901  0.00  0.00    +0.000 N 
ATOM      2  H   UNL     1     101.465 127.589  81.248  0.00  0.00    +0.000 HD
ENDROOT
BRANCH   1   3
ATOM      3  C   UNL     1     102.420 125.912  81.966  0.00  0.00    +0.000 A 
ATOM      4  C   UNL     1     102.816 125.264  83.145  0.00  0.00    +0.000 A 
ATOM      5  C   UNL     1     103.835 124.306  83.136  0.00  0.00    +0.000 A 
ATOM      6  C   UNL     1     104.457 123.976  81.940  0.00  0.00    +0.000 A 
ATOM      7  C   UNL     1     104.071 124.579  80.753  0.00  0.00    +0.000 A 
ATOM      8  C   UNL     1     103.052 125.536  80.766  0.00  0.00    +0.000 A 
ATOM      9  F   UNL     1     105.432 123.058  81.930  0.00  0.00    +0.000 F 
ENDBRANCH   1   3
BRANCH   1  10
ATOM     10  S   UNL     1     100.008 126.832  82.851  0.00  0.00    +0.000 S 
ATOM     11  O   UNL     1      98.778 126.887  81.996  0.00  0.00    +0.000 OA
BRANCH  10  15
ATOM     12  C   UNL     1     100.671 131.085  84.485  0.00  0.00    +0.000 A 
ATOM     13  C   UNL     1     101.698 130.144  84.568  0.00  0.00    +0.000 A 
ATOM     14  C   UNL     1     101.503 128.853  84.072  0.00  0.00    +0.000 A 
ATOM     15  C   UNL     1     100.281 128.499  83.491  0.00  0.00    +0.000 A 
ATOM     16  C   UNL     1      99.256 129.450  83.406  0.00  0.00    +0.000 A 
ATOM     17  C   UNL     1      99.452 130.740  83.903  0.00  0.00    +0.000 A 
ENDBRANCH  10  15
ENDBRANCH   1  10
TORSDOF 3
ENDMDL
