REMARK  Name = *****
REMARK  3 active torsions:
REMARK  status: ('A' for Active; 'I' for Inactive)
REMARK    1  A    between atoms: C_1  and  C_2
REMARK    2  A    between atoms: C_4  and  C_7
REMARK    3  A    between atoms: C_8  and  C_9
REMARK                            x       y       z     vdW  Elec       q    Type
REMARK                         _______ _______ _______ _____ _____    ______ ____
ROOT
ATOM      1  C   UNL     1       5.825   1.651   0.110  0.00  0.00    +0.000 C 
ATOM      2  C   UNL     1       6.738   2.432   0.093  0.00  0.00    +0.000 C 
ENDROOT
BRANCH   2   3
ATOM      3  C   UNL     1       7.845   3.337   0.055  0.00  0.00    +0.000 A 
ATOM      4  C   UNL     1       7.629   4.717   0.126  0.00  0.00    +0.000 A 
ATOM      5  C   UNL     1       8.715   5.594   0.076  0.00  0.00    +0.000 A 
ATOM      6  C   UNL     1      10.004   5.085  -0.045  0.00  0.00    +0.000 A 
ATOM      7  C   UNL     1      10.230   3.715  -0.115  0.00  0.00    +0.000 A 
ATOM      8  C   UNL     1       9.146   2.836  -0.064  0.00  0.00    +0.000 A 
ATOM      9  F   UNL     1      11.044   5.927  -0.097  0.00  0.00    +0.000 F 
ENDBRANCH   2   3
BRANCH   1  13
ATOM     10  C   UNL     1       1.166   0.202   0.087  0.00  0.00    +0.000 C 
ATOM     11  C   UNL     1       2.651   0.108   0.100  0.00  0.00    +0.000 A 
ATOM     12  N   UNL     1       3.465   1.143   0.108  0.00  0.00    +0.000 NA
ATOM     13  C   UNL     1       4.768   0.697   0.113  0.00  0.00    +0.000 A 
ATOM     14  C   UNL     1       4.942  -0.668   0.111  0.00  0.00    +0.000 A 
ATOM     15  S   UNL     1       3.411  -1.437   0.101  0.00  0.00    +0.000 S 
ENDBRANCH   1  13
TORSDOF 2
