MODEL 1
REMARK VINA RESULT:      -4.6      0.000      0.000
REMARK  Name = *****
REMARK  3 active torsions:
REMARK  status: ('A' for Active; 'I' for Inactive)
REMARK    1  A    between atoms: C_3  and  S_8
REMARK    2  A    between atoms: S_8  and  C_9
REMARK    3  A    between atoms: C_9  and  C_10
REMARK                            x       y       z     vdW  Elec       q    Type
REMARK                         _______ _______ _______ _____ _____    ______ ____
ROOT
ATOM      1  C   UNL     1     102.935 127.560  83.413  0.00  0.00    +0.000 C 
ENDROOT
BRANCH   1   2
ATOM      2  C   UNL     1     101.459 127.805  83.227  0.00  0.00    +0.000 A 
ATOM      3  C   UNL     1     100.875 129.011  83.643  0.00  0.00    +0.000 A 
ATOM      4  C   UNL     1      99.507 129.220  83.481  0.00  0.00    +0.000 A 
ATOM      5  C   UNL     1      98.694 128.248  82.916  0.00  0.00    +0.000 A 
ATOM      6  C   UNL     1      99.269 127.051  82.513  0.00  0.00    +0.000 A 
ATOM      7  C   UNL     1     100.635 126.819  82.664  0.00  0.00    +0.000 A 
ATOM      8  F   UNL     1      98.498 126.100  81.970  0.00  0.00    +0.000 F 
ATOM      9  F   UNL     1      98.968 130.379  83.879  0.00  0.00    +0.000 F 
ENDBRANCH   1   2
BRANCH   1  10
ATOM     10  S   UNL     1     103.862 127.938  81.890  0.00  0.00    +0.000 S 
BRANCH  10  13
ATOM     11  C   UNL     1     105.009 124.730  79.652  0.00  0.00    +0.000 A 
ATOM     12  C   UNL     1     104.741 126.037  80.063  0.00  0.00    +0.000 A 
ATOM     13  C   UNL     1     104.201 126.280  81.332  0.00  0.00    +0.000 A 
ATOM     14  C   UNL     1     103.952 125.205  82.193  0.00  0.00    +0.000 A 
ATOM     15  C   UNL     1     104.220 123.897  81.781  0.00  0.00    +0.000 A 
ATOM     16  C   UNL     1     104.743 123.673  80.513  0.00  0.00    +0.000 A 
ATOM     17  F   UNL     1     105.001 122.419  80.118  0.00  0.00    +0.000 F 
ENDBRANCH  10  13
ENDBRANCH   1  10
TORSDOF 3
ENDMDL
