REMARK  Name = *****
REMARK  4 active torsions:
REMARK  status: ('A' for Active; 'I' for Inactive)
REMARK    1  A    between atoms: C_1  and  C_2
REMARK    2  A    between atoms: C_5  and  S_8
REMARK    3  A    between atoms: S_8  and  C_9
REMARK    4  A    between atoms: C_9  and  N_11
REMARK                            x       y       z     vdW  Elec       q    Type
REMARK                         _______ _______ _______ _____ _____    ______ ____
ROOT
ATOM      1  S   UNL     1      -4.114   0.015   1.432  0.00  0.00    +0.000 S 
ENDROOT
BRANCH   1   6
ATOM      2  C   UNL     1       1.796   0.471   0.000  0.00  0.00    +0.000 C 
ATOM      3  C   UNL     1       0.341   0.393   0.355  0.00  0.00    +0.000 A 
ATOM      4  C   UNL     1      -0.059  -0.122   1.593  0.00  0.00    +0.000 A 
ATOM      5  C   UNL     1      -1.415  -0.225   1.914  0.00  0.00    +0.000 A 
ATOM      6  C   UNL     1      -2.391   0.182   0.999  0.00  0.00    +0.000 A 
ATOM      7  C   UNL     1      -1.995   0.674  -0.248  0.00  0.00    +0.000 A 
ATOM      8  C   UNL     1      -0.638   0.776  -0.568  0.00  0.00    +0.000 A 
ENDBRANCH   1   6
BRANCH   1   9
ATOM      9  C   UNL     1      -4.664   1.695   1.285  0.00  0.00    +0.000 C 
ATOM     10  S   UNL     1      -4.346   2.740   2.573  0.00  0.00    +0.000 S 
BRANCH   9  11
ATOM     11  N   UNL     1      -5.355   2.039   0.097  0.00  0.00    +0.000 N 
ATOM     12  C   UNL     1      -5.949   1.021  -0.791  0.00  0.00    +0.000 C 
ATOM     13  C   UNL     1      -6.022   1.472  -2.248  0.00  0.00    +0.000 C 
ATOM     14  C   UNL     1      -6.719   2.817  -2.380  0.00  0.00    +0.000 C 
ATOM     15  C   UNL     1      -6.018   3.844  -1.506  0.00  0.00    +0.000 C 
ATOM     16  C   UNL     1      -5.943   3.383  -0.053  0.00  0.00    +0.000 C 
ENDBRANCH   9  11
ENDBRANCH   1   9
TORSDOF 3
