MODEL 1
REMARK VINA RESULT:      -4.6      0.000      0.000
REMARK  Name = *****
REMARK  3 active torsions:
REMARK  status: ('A' for Active; 'I' for Inactive)
REMARK    1  A    between atoms: C_6  and  C_7
REMARK    2  A    between atoms: C_7  and  N_8
REMARK    3  A    between atoms: N_8  and  C_9
REMARK                            x       y       z     vdW  Elec       q    Type
REMARK                         _______ _______ _______ _____ _____    ______ ____
ROOT
ATOM      1  N   UNL     1     103.527 127.659  82.060  0.00  0.00    +0.000 N 
ATOM      2  O   UNL     1     104.063 128.619  81.419  0.00  0.00    +0.000 OA
ENDROOT
BRANCH   1   3
ATOM      3  C   UNL     1     103.852 126.292  81.676  0.00  0.00    +0.000 A 
ATOM      4  C   UNL     1     104.097 125.964  80.336  0.00  0.00    +0.000 A 
ATOM      5  C   UNL     1     104.421 124.647  80.001  0.00  0.00    +0.000 A 
ATOM      6  C   UNL     1     104.509 123.677  81.000  0.00  0.00    +0.000 A 
ATOM      7  C   UNL     1     104.283 124.009  82.337  0.00  0.00    +0.000 A 
ATOM      8  C   UNL     1     103.957 125.323  82.679  0.00  0.00    +0.000 A 
ATOM      9 CL   UNL     1     104.910 122.056  80.581  0.00  0.00    +0.000 Cl
ENDBRANCH   1   3
BRANCH   1  10
ATOM     10  C   UNL     1     102.699 127.821  83.068  0.00  0.00    +0.000 C 
BRANCH  10  16
ATOM     11  C   UNL     1     100.528 126.663  82.428  0.00  0.00    +0.000 A 
ATOM     12  C   UNL     1      99.130 126.675  82.407  0.00  0.00    +0.000 A 
ATOM     13  C   UNL     1      98.441 127.748  82.959  0.00  0.00    +0.000 A 
ATOM     14  C   UNL     1      99.124 128.815  83.531  0.00  0.00    +0.000 A 
ATOM     15  C   UNL     1     100.520 128.805  83.553  0.00  0.00    +0.000 A 
ATOM     16  C   UNL     1     101.230 127.722  83.011  0.00  0.00    +0.000 A 
ATOM     17  F   UNL     1      97.103 127.758  82.937  0.00  0.00    +0.000 F 
ENDBRANCH  10  16
ENDBRANCH   1  10
TORSDOF 3
ENDMDL
