REMARK  Name = *****
REMARK  6 active torsions:
REMARK  status: ('A' for Active; 'I' for Inactive)
REMARK    1  A    between atoms: C_1  and  C_2
REMARK    2  A    between atoms: C_4  and  C_8
REMARK    3  A    between atoms: C_8  and  O_10
REMARK    4  A    between atoms: O_10  and  C_11
REMARK    5  A    between atoms: C_11  and  C_12
REMARK    6  A    between atoms: C_11  and  C_13
REMARK                            x       y       z     vdW  Elec       q    Type
REMARK                         _______ _______ _______ _____ _____    ______ ____
ROOT
ATOM      1  C   UNL     1      -1.984   2.563   0.105  0.00  0.00    +0.000 C 
ATOM      2  O   UNL     1      -3.180   2.571   0.351  0.00  0.00    +0.000 OA
ENDROOT
BRANCH   1   6
ATOM      3  C   UNL     1       2.451   0.185  -0.360  0.00  0.00    +0.000 C 
ATOM      4  C   UNL     1       0.961   0.153  -0.186  0.00  0.00    +0.000 A 
ATOM      5  C   UNL     1       0.227   1.347  -0.139  0.00  0.00    +0.000 A 
ATOM      6  C   UNL     1      -1.162   1.323   0.057  0.00  0.00    +0.000 A 
ATOM      7  C   UNL     1      -1.813   0.093   0.222  0.00  0.00    +0.000 A 
ATOM      8  C   UNL     1      -1.085  -1.096   0.192  0.00  0.00    +0.000 A 
ATOM      9  C   UNL     1       0.296  -1.066  -0.006  0.00  0.00    +0.000 A 
ENDBRANCH   1   6
BRANCH   1  10
ATOM     10  O   UNL     1      -1.222   3.647  -0.173  0.00  0.00    +0.000 OA
BRANCH  10  11
ATOM     11  C   UNL     1      -1.899   4.916  -0.146  0.00  0.00    +0.000 C 
ATOM     12  C   UNL     1      -2.598   5.162  -1.483  0.00  0.00    +0.000 C 
BRANCH  11  13
ATOM     13  C   UNL     1      -0.863   5.992   0.127  0.00  0.00    +0.000 A 
ATOM     14  C   UNL     1       0.349   6.034  -0.580  0.00  0.00    +0.000 A 
ATOM     15  C   UNL     1       1.286   7.037  -0.328  0.00  0.00    +0.000 A 
ATOM     16  C   UNL     1       1.023   8.013   0.631  0.00  0.00    +0.000 A 
ATOM     17  C   UNL     1      -0.177   7.986   1.338  0.00  0.00    +0.000 A 
ATOM     18  C   UNL     1      -1.116   6.983   1.088  0.00  0.00    +0.000 A 
ENDBRANCH  11  13
ENDBRANCH  10  11
ENDBRANCH   1  10
TORSDOF 4
