MODEL 1
REMARK VINA RESULT:      -5.0      0.000      0.000
REMARK  Name = *****
REMARK  4 active torsions:
REMARK  status: ('A' for Active; 'I' for Inactive)
REMARK    1  A    between atoms: C_5  and  O_7
REMARK    2  A    between atoms: O_7  and  C_8
REMARK    3  A    between atoms: C_8  and  C_10
REMARK    4  A    between atoms: C_10  and  C_11
REMARK                            x       y       z     vdW  Elec       q    Type
REMARK                         _______ _______ _______ _____ _____    ______ ____
ROOT
ATOM      1  C   UNL     1     102.865 125.306  83.263  0.00  0.00    +0.000 C 
ATOM      2  O   UNL     1     102.489 124.978  84.381  0.00  0.00    +0.000 OA
ENDROOT
BRANCH   1   3
ATOM      3  O   UNL     1     104.138 125.109  82.730  0.00  0.00    +0.000 OA
BRANCH   3   8
ATOM      4  C   UNL     1     104.723 121.483  82.828  0.00  0.00    +0.000 A 
ATOM      5  C   UNL     1     104.827 121.196  81.462  0.00  0.00    +0.000 A 
ATOM      6  C   UNL     1     104.696 122.216  80.517  0.00  0.00    +0.000 A 
ATOM      7  C   UNL     1     104.457 123.517  80.945  0.00  0.00    +0.000 A 
ATOM      8  C   UNL     1     104.336 123.797  82.303  0.00  0.00    +0.000 A 
ATOM      9  C   UNL     1     104.483 122.790  83.255  0.00  0.00    +0.000 A 
ATOM     10  F   UNL     1     104.350 124.502  80.040  0.00  0.00    +0.000 F 
ENDBRANCH   3   8
ENDBRANCH   1   3
BRANCH   1  11
ATOM     11  C   UNL     1     102.003 125.956  82.201  0.00  0.00    +0.000 C 
BRANCH  11  12
ATOM     12  C   UNL     1     101.178 127.103  82.726  0.00  0.00    +0.000 A 
ATOM     13  C   UNL     1      99.792 127.115  82.519  0.00  0.00    +0.000 A 
ATOM     14  C   UNL     1      99.000 128.162  82.971  0.00  0.00    +0.000 A 
ATOM     15  C   UNL     1      99.606 129.219  83.636  0.00  0.00    +0.000 A 
ATOM     16  C   UNL     1     100.981 129.241  83.849  0.00  0.00    +0.000 A 
ATOM     17  C   UNL     1     101.772 128.184  83.393  0.00  0.00    +0.000 A 
ATOM     18  F   UNL     1      98.855 130.235  84.078  0.00  0.00    +0.000 F 
ATOM     19  F   UNL     1      99.213 126.091  81.876  0.00  0.00    +0.000 F 
ENDBRANCH  11  12
ENDBRANCH   1  11
TORSDOF 4
ENDMDL
