REMARK  Name = *****
REMARK  3 active torsions:
REMARK  status: ('A' for Active; 'I' for Inactive)
REMARK    1  A    between atoms: C_1  and  N_2
REMARK    2  A    between atoms: P_10  and  O_12
REMARK    3  A    between atoms: O_12  and  C_13
REMARK                            x       y       z     vdW  Elec       q    Type
REMARK                         _______ _______ _______ _____ _____    ______ ____
ROOT
ATOM      1  C   UNL     1       1.826  -0.376   0.007  0.00  0.00    +0.000 C 
ATOM      2  N   UNL     1       3.008   0.017  -0.721  0.00  0.00    +0.000 N 
ATOM      3  C   UNL     1       3.809   1.044  -0.214  0.00  0.00    +0.000 A 
ATOM      4  C   UNL     1       3.439   2.142   0.543  0.00  0.00    +0.000 A 
ATOM      5  C   UNL     1       4.417   3.084   0.885  0.00  0.00    +0.000 A 
ATOM      6  C   UNL     1       5.745   2.926   0.461  0.00  0.00    +0.000 A 
ATOM      7  C   UNL     1       6.116   1.821  -0.306  0.00  0.00    +0.000 A 
ATOM      8  C   UNL     1       5.142   0.890  -0.621  0.00  0.00    +0.000 A 
ATOM      9  N   UNL     1       5.342  -0.284  -1.389  0.00  0.00    +0.000 N 
ATOM     10  P   UNL     1       3.927  -1.197  -1.406  0.00  0.00    +0.000 P 
ATOM     11  S   UNL     1       3.365  -1.742  -3.178  0.00  0.00    +0.000 S 
ATOM     12  H   UNL     1       6.181  -0.529  -1.843  0.00  0.00    +0.000 HD
ENDROOT
BRANCH  10  13
ATOM     13  O   UNL     1       4.057  -2.353  -0.286  0.00  0.00    +0.000 OA
BRANCH  13  14
ATOM     14  C   UNL     1       4.954  -3.382  -0.279  0.00  0.00    +0.000 A 
ATOM     15  C   UNL     1       4.785  -4.321   0.742  0.00  0.00    +0.000 A 
ATOM     16  C   UNL     1       5.646  -5.414   0.845  0.00  0.00    +0.000 A 
ATOM     17  C   UNL     1       6.682  -5.570  -0.073  0.00  0.00    +0.000 A 
ATOM     18  C   UNL     1       6.855  -4.632  -1.090  0.00  0.00    +0.000 A 
ATOM     19  C   UNL     1       5.993  -3.536  -1.193  0.00  0.00    +0.000 A 
ENDBRANCH  13  14
ENDBRANCH  10  13
TORSDOF 2
