MODEL 1
REMARK VINA RESULT:      -4.7      0.000      0.000
REMARK  Name = *****
REMARK  4 active torsions:
REMARK  status: ('A' for Active; 'I' for Inactive)
REMARK    1  A    between atoms: C_5  and  C_7
REMARK    2  A    between atoms: C_7  and  O_8
REMARK    3  A    between atoms: O_8  and  C_9
REMARK    4  A    between atoms: C_12  and  C_15
REMARK                            x       y       z     vdW  Elec       q    Type
REMARK                         _______ _______ _______ _____ _____    ______ ____
ROOT
ATOM      1  O   UNL     1     103.209 127.385  81.821  0.00  0.00    +0.000 OA
ENDROOT
BRANCH   1   2
ATOM      2  C   UNL     1     103.711 126.157  81.495  0.00  0.00    +0.000 A 
ATOM      3  C   UNL     1     103.773 125.253  82.560  0.00  0.00    +0.000 A 
ATOM      4  C   UNL     1     104.264 123.956  82.376  0.00  0.00    +0.000 A 
ATOM      5  C   UNL     1     104.702 123.545  81.112  0.00  0.00    +0.000 A 
ATOM      6  C   UNL     1     104.636 124.453  80.044  0.00  0.00    +0.000 A 
ATOM      7  C   UNL     1     104.144 125.751  80.234  0.00  0.00    +0.000 A 
BRANCH   5   8
ATOM      8  C   UNL     1     105.237 122.166  80.861  0.00  0.00    +0.000 C 
ATOM      9  O   UNL     1     106.385 122.078  80.426  0.00  0.00    +0.000 OA
ATOM     10 CL   UNL     1     104.235 120.767  81.188  0.00  0.00    +0.000 Cl
ENDBRANCH   5   8
ENDBRANCH   1   2
BRANCH   1  11
ATOM     11  C   UNL     1     102.641 127.534  83.126  0.00  0.00    +0.000 C 
BRANCH  11  16
ATOM     12  C   UNL     1      98.928 126.874  82.417  0.00  0.00    +0.000 A 
ATOM     13  C   UNL     1      98.333 128.012  82.954  0.00  0.00    +0.000 A 
ATOM     14  C   UNL     1      99.126 128.993  83.544  0.00  0.00    +0.000 A 
ATOM     15  C   UNL     1     100.515 128.836  83.599  0.00  0.00    +0.000 A 
ATOM     16  C   UNL     1     101.133 127.692  83.065  0.00  0.00    +0.000 A 
ATOM     17  C   UNL     1     100.316 126.715  82.471  0.00  0.00    +0.000 A 
ATOM     18 CL   UNL     1     101.433 130.100  84.342  0.00  0.00    +0.000 Cl
ENDBRANCH  11  16
ENDBRANCH   1  11
TORSDOF 4
ENDMDL
