MODEL 1
REMARK VINA RESULT:      -4.7      0.000      0.000
REMARK  Name = *****
REMARK  5 active torsions:
REMARK  status: ('A' for Active; 'I' for Inactive)
REMARK    1  A    between atoms: C_1  and  C_2
REMARK    2  A    between atoms: C_2  and  C_3
REMARK    3  A    between atoms: C_2  and  O_9
REMARK    4  A    between atoms: O_9  and  C_10
REMARK    5  A    between atoms: C_10  and  C_12
REMARK                            x       y       z     vdW  Elec       q    Type
REMARK                         _______ _______ _______ _____ _____    ______ ____
ROOT
ATOM      1  O   UNL     1     103.364 125.392  80.518  0.00  0.00    +0.000 OA
ENDROOT
BRANCH   1   3
ATOM      2  C   UNL     1     103.740 127.718  79.921  0.00  0.00    +0.000 C 
ATOM      3  C   UNL     1     103.665 126.695  81.053  0.00  0.00    +0.000 C 
BRANCH   3   4
ATOM      4  C   UNL     1     102.569 127.059  82.038  0.00  0.00    +0.000 A 
ATOM      5  C   UNL     1     101.427 126.256  82.189  0.00  0.00    +0.000 A 
ATOM      6  C   UNL     1     100.419 126.611  83.087  0.00  0.00    +0.000 A 
ATOM      7  C   UNL     1     100.539 127.775  83.845  0.00  0.00    +0.000 A 
ATOM      8  C   UNL     1     101.665 128.583  83.704  0.00  0.00    +0.000 A 
ATOM      9  C   UNL     1     102.674 128.229  82.805  0.00  0.00    +0.000 A 
ENDBRANCH   3   4
ENDBRANCH   1   3
BRANCH   1  10
ATOM     10  C   UNL     1     104.430 124.609  80.233  0.00  0.00    +0.000 C 
ATOM     11  O   UNL     1     105.237 124.793  79.336  0.00  0.00    +0.000 OA
BRANCH  10  12
ATOM     12  C   UNL     1     104.490 123.453  81.168  0.00  0.00    +0.000 A 
ATOM     13  C   UNL     1     104.696 122.176  80.630  0.00  0.00    +0.000 A 
ATOM     14  C   UNL     1     104.759 121.060  81.466  0.00  0.00    +0.000 A 
ATOM     15  C   UNL     1     104.619 121.213  82.844  0.00  0.00    +0.000 A 
ATOM     16  C   UNL     1     104.416 122.481  83.389  0.00  0.00    +0.000 A 
ATOM     17  C   UNL     1     104.352 123.601  82.556  0.00  0.00    +0.000 A 
ENDBRANCH  10  12
ENDBRANCH   1  10
TORSDOF 4
ENDMDL
