MODEL 1
REMARK VINA RESULT:      -4.9      0.000      0.000
REMARK  Name = *****
REMARK  5 active torsions:
REMARK  status: ('A' for Active; 'I' for Inactive)
REMARK    1  A    between atoms: C_1  and  C_2
REMARK    2  A    between atoms: C_5  and  C_8
REMARK    3  A    between atoms: C_8  and  C_9
REMARK    4  A    between atoms: C_9  and  C_10
REMARK    5  A    between atoms: C_13  and  C_16
REMARK                            x       y       z     vdW  Elec       q    Type
REMARK                         _______ _______ _______ _____ _____    ______ ____
ROOT
ATOM      1  C   UNL     1      88.975  70.019  86.898  0.00  0.00    +0.000 C 
ENDROOT
BRANCH   1   6
ATOM      2  C   UNL     1      89.026  64.196  86.749  0.00  0.00    +0.000 C 
ATOM      3  C   UNL     1      89.026  65.694  86.809  0.00  0.00    +0.000 A 
ATOM      4  C   UNL     1      87.969  66.380  87.418  0.00  0.00    +0.000 A 
ATOM      5  C   UNL     1      87.951  67.776  87.445  0.00  0.00    +0.000 A 
ATOM      6  C   UNL     1      88.983  68.511  86.850  0.00  0.00    +0.000 A 
ATOM      7  C   UNL     1      90.036  67.825  86.232  0.00  0.00    +0.000 A 
ATOM      8  C   UNL     1      90.052  66.428  86.205  0.00  0.00    +0.000 A 
ENDBRANCH   1   6
BRANCH   1   9
ATOM      9  C   UNL     1      88.158  70.541  88.082  0.00  0.00    +0.000 C 
BRANCH   9  10
ATOM     10  C   UNL     1      86.863  71.169  87.630  0.00  0.00    +0.000 A 
ATOM     11  C   UNL     1      86.609  71.372  86.268  0.00  0.00    +0.000 A 
ATOM     12  C   UNL     1      85.419  71.972  85.851  0.00  0.00    +0.000 A 
ATOM     13  C   UNL     1      84.467  72.389  86.788  0.00  0.00    +0.000 A 
ATOM     14  C   UNL     1      84.716  72.177  88.148  0.00  0.00    +0.000 A 
ATOM     15  C   UNL     1      85.906  71.579  88.567  0.00  0.00    +0.000 A 
ATOM     16  C   UNL     1      83.174  73.000  86.337  0.00  0.00    +0.000 C 
ENDBRANCH   9  10
ENDBRANCH   1   9
TORSDOF 3
ENDMDL
