MODEL 1
REMARK VINA RESULT:      -4.7      0.000      0.000
REMARK  Name = *****
REMARK  3 active torsions:
REMARK  status: ('A' for Active; 'I' for Inactive)
REMARK    1  A    between atoms: C_4  and  C_7
REMARK    2  A    between atoms: C_7  and  C_8
REMARK    3  A    between atoms: C_8  and  C_9
REMARK                            x       y       z     vdW  Elec       q    Type
REMARK                         _______ _______ _______ _____ _____    ______ ____
ROOT
ATOM      1  C   UNL     1      87.820  70.876  85.804  0.00  0.00    +0.000 C 
ATOM      2  F   UNL     1      87.598  69.872  84.896  0.00  0.00    +0.000 F 
ENDROOT
BRANCH   1   6
ATOM      3  C   UNL     1      84.079  72.475  87.271  0.00  0.00    +0.000 A 
ATOM      4  C   UNL     1      85.022  71.976  88.168  0.00  0.00    +0.000 A 
ATOM      5  C   UNL     1      86.231  71.462  87.697  0.00  0.00    +0.000 A 
ATOM      6  C   UNL     1      86.509  71.438  86.322  0.00  0.00    +0.000 A 
ATOM      7  C   UNL     1      85.552  71.946  85.431  0.00  0.00    +0.000 A 
ATOM      8  C   UNL     1      84.344  72.461  85.904  0.00  0.00    +0.000 A 
ENDBRANCH   1   6
BRANCH   1   9
ATOM      9  C   UNL     1      88.715  70.333  86.939  0.00  0.00    +0.000 C 
ATOM     10  F   UNL     1      89.956  70.907  86.839  0.00  0.00    +0.000 F 
BRANCH   9  11
ATOM     11  C   UNL     1      88.815  68.819  86.919  0.00  0.00    +0.000 A 
ATOM     12  C   UNL     1      89.925  68.188  86.339  0.00  0.00    +0.000 A 
ATOM     13  C   UNL     1      90.019  66.796  86.317  0.00  0.00    +0.000 A 
ATOM     14  C   UNL     1      89.005  66.018  86.873  0.00  0.00    +0.000 A 
ATOM     15  C   UNL     1      87.898  66.632  87.453  0.00  0.00    +0.000 A 
ATOM     16  C   UNL     1      87.802  68.025  87.478  0.00  0.00    +0.000 A 
ENDBRANCH   9  11
ENDBRANCH   1   9
TORSDOF 3
ENDMDL
