MODEL 1
REMARK VINA RESULT:      -3.7      0.000      0.000
REMARK  Name = *****
REMARK  4 active torsions:
REMARK  status: ('A' for Active; 'I' for Inactive)
REMARK    1  A    between atoms: C_4  and  N_7
REMARK    2  A    between atoms: N_7  and  S_8
REMARK    3  A    between atoms: S_8  and  N_9
REMARK    4  A    between atoms: N_9  and  C_10
REMARK                            x       y       z     vdW  Elec       q    Type
REMARK                         _______ _______ _______ _____ _____    ______ ____
ROOT
ATOM      1  S   UNL     1     102.192 126.060  84.833  0.00  0.00    +0.000 S 
ENDROOT
BRANCH   1   2
ATOM      2  N   UNL     1     102.771 125.142  83.782  0.00  0.00    +0.000 NA
BRANCH   2   6
ATOM      3  C   UNL     1     103.524 127.463  80.236  0.00  0.00    +0.000 C 
ATOM      4  C   UNL     1     103.832 128.104  81.584  0.00  0.00    +0.000 C 
ATOM      5  C   UNL     1     103.158 127.358  82.733  0.00  0.00    +0.000 C 
ATOM      6  C   UNL     1     103.536 125.861  82.744  0.00  0.00    +0.000 C 
ATOM      7  C   UNL     1     103.202 125.233  81.374  0.00  0.00    +0.000 C 
ATOM      8  C   UNL     1     103.879 125.980  80.226  0.00  0.00    +0.000 C 
ENDBRANCH   2   6
ENDBRANCH   1   2
BRANCH   1   9
ATOM      9  N   UNL     1     100.745 125.646  84.969  0.00  0.00    +0.000 NA
BRANCH   9  10
ATOM     10  C   UNL     1      99.798 126.738  84.672  0.00  0.00    +0.000 C 
ATOM     11  C   UNL     1      99.611 126.814  83.141  0.00  0.00    +0.000 C 
ATOM     12  C   UNL     1      98.715 127.983  82.735  0.00  0.00    +0.000 C 
ATOM     13  C   UNL     1      99.239 129.308  83.277  0.00  0.00    +0.000 C 
ATOM     14  C   UNL     1      99.442 129.254  84.788  0.00  0.00    +0.000 C 
ATOM     15  C   UNL     1     100.339 128.086  85.195  0.00  0.00    +0.000 C 
ENDBRANCH   9  10
ENDBRANCH   1   9
TORSDOF 4
ENDMDL
