REMARK  Name = *****
REMARK  4 active torsions:
REMARK  status: ('A' for Active; 'I' for Inactive)
REMARK    1  A    between atoms: C_4  and  C_7
REMARK    2  A    between atoms: C_7  and  C_8
REMARK    3  A    between atoms: C_8  and  C_9
REMARK    4  A    between atoms: C_8  and  N_15
REMARK                            x       y       z     vdW  Elec       q    Type
REMARK                         _______ _______ _______ _____ _____    ______ ____
ROOT
ATOM      1  C   UNL     1      -3.599  -1.031  -0.280  0.00  0.00    +0.000 C 
ENDROOT
BRANCH   1   2
ATOM      2  C   UNL     1      -3.612  -1.624   1.122  0.00  0.00    +0.000 A 
ATOM      3  C   UNL     1      -4.267  -0.986   2.190  0.00  0.00    +0.000 A 
ATOM      4  C   UNL     1      -4.242  -1.538   3.473  0.00  0.00    +0.000 A 
ATOM      5  C   UNL     1      -3.561  -2.730   3.707  0.00  0.00    +0.000 A 
ATOM      6  C   UNL     1      -2.904  -3.372   2.660  0.00  0.00    +0.000 A 
ATOM      7  C   UNL     1      -2.928  -2.824   1.377  0.00  0.00    +0.000 A 
ENDBRANCH   1   2
BRANCH   1   8
ATOM      8  N   UNL     1      -5.011  -0.769  -0.748  0.00  0.00    +0.000 NA
ATOM      9  O   UNL     1      -5.261  -1.328  -1.822  0.00  0.00    +0.000 OA
ENDBRANCH   1   8
BRANCH   1  10
ATOM     10  C   UNL     1      -2.796   0.283  -0.373  0.00  0.00    +0.000 C 
BRANCH  10  14
ATOM     11  C   UNL     1       1.457  -0.366  -0.030  0.00  0.00    +0.000 A 
ATOM     12  C   UNL     1       0.829  -0.497  -1.267  0.00  0.00    +0.000 A 
ATOM     13  C   UNL     1      -0.545  -0.280  -1.380  0.00  0.00    +0.000 A 
ATOM     14  C   UNL     1      -1.302   0.073  -0.254  0.00  0.00    +0.000 A 
ATOM     15  C   UNL     1      -0.661   0.200   0.985  0.00  0.00    +0.000 A 
ATOM     16  C   UNL     1       0.713  -0.018   1.096  0.00  0.00    +0.000 A 
ENDBRANCH  10  14
ENDBRANCH   1  10
TORSDOF 4
