REMARK  Name = *****
REMARK  4 active torsions:
REMARK  status: ('A' for Active; 'I' for Inactive)
REMARK    1  A    between atoms: C_3  and  S_16
REMARK    2  A    between atoms: C_6  and  C_7
REMARK    3  A    between atoms: N_8  and  C_9
REMARK    4  A    between atoms: C_12  and  S_15
REMARK                            x       y       z     vdW  Elec       q    Type
REMARK                         _______ _______ _______ _____ _____    ______ ____
ROOT
ATOM      1  C   UNL     1      -3.878   0.181  -0.458  0.00  0.00    +0.000 C 
ATOM      2  N   UNL     1      -4.644   1.136  -0.034  0.00  0.00    +0.000 NA
ENDROOT
BRANCH   1   8
ATOM      3  C   UNL     1      -1.667  -0.914  -0.646  0.00  0.00    +0.000 A 
ATOM      4  C   UNL     1      -0.292  -0.952  -0.389  0.00  0.00    +0.000 A 
ATOM      5  C   UNL     1       0.319   0.076   0.336  0.00  0.00    +0.000 A 
ATOM      6  C   UNL     1      -0.450   1.149   0.796  0.00  0.00    +0.000 A 
ATOM      7  C   UNL     1      -1.824   1.191   0.544  0.00  0.00    +0.000 A 
ATOM      8  C   UNL     1      -2.430   0.159  -0.177  0.00  0.00    +0.000 A 
BRANCH   5   9
ATOM      9  S   UNL     1       2.068   0.040   0.658  0.00  0.00    +0.000 S 
ATOM     10  H   UNL     1       2.604  -1.089   0.121  0.00  0.00    +0.000 HD
ENDBRANCH   5   9
ENDBRANCH   1   8
BRANCH   2  11
ATOM     11  C   UNL     1      -5.998   1.031  -0.374  0.00  0.00    +0.000 A 
ATOM     12  C   UNL     1      -6.886   0.349   0.461  0.00  0.00    +0.000 A 
ATOM     13  C   UNL     1      -8.242   0.257   0.129  0.00  0.00    +0.000 A 
ATOM     14  C   UNL     1      -8.721   0.853  -1.040  0.00  0.00    +0.000 A 
ATOM     15  C   UNL     1      -7.838   1.556  -1.864  0.00  0.00    +0.000 A 
ATOM     16  C   UNL     1      -6.483   1.646  -1.529  0.00  0.00    +0.000 A 
BRANCH  14  17
ATOM     17  S   UNL     1     -10.443   0.757  -1.474  0.00  0.00    +0.000 S 
ATOM     18  H   UNL     1     -11.107   0.029  -0.536  0.00  0.00    +0.000 HD
ENDBRANCH  14  17
ENDBRANCH   2  11
TORSDOF 4
