MODEL 1
REMARK VINA RESULT:      -4.6      0.000      0.000
REMARK  Name = *****
REMARK  4 active torsions:
REMARK  status: ('A' for Active; 'I' for Inactive)
REMARK    1  A    between atoms: C_1  and  O_2
REMARK    2  A    between atoms: O_2  and  C_3
REMARK    3  A    between atoms: C_8  and  C_9
REMARK    4  A    between atoms: C_10  and  C_11
REMARK                            x       y       z     vdW  Elec       q    Type
REMARK                         _______ _______ _______ _____ _____    ______ ____
ROOT
ATOM      1  C   UNL     1     104.329 123.432  82.276  0.00  0.00    +0.000 A 
ATOM      2  C   UNL     1     105.178 122.667  81.465  0.00  0.00    +0.000 A 
ATOM      3  C   UNL     1     105.545 123.120  80.196  0.00  0.00    +0.000 A 
ATOM      4  C   UNL     1     105.065 124.334  79.722  0.00  0.00    +0.000 A 
ATOM      5  C   UNL     1     104.218 125.104  80.520  0.00  0.00    +0.000 A 
ATOM      6  C   UNL     1     103.851 124.675  81.806  0.00  0.00    +0.000 A 
ENDROOT
BRANCH   1   8
ATOM      7  C   UNL     1     104.494 121.883  84.090  0.00  0.00    +0.000 C 
ATOM      8  O   UNL     1     103.915 123.054  83.531  0.00  0.00    +0.000 OA
ENDBRANCH   1   8
BRANCH   6   9
ATOM      9  C   UNL     1     102.927 125.486  82.623  0.00  0.00    +0.000 C 
ATOM     10  C   UNL     1     101.784 126.026  82.168  0.00  0.00    +0.000 C 
BRANCH  10  11
ATOM     11  C   UNL     1     100.860 126.862  83.022  0.00  0.00    +0.000 C 
ATOM     12  C   UNL     1      99.464 126.929  82.386  0.00  0.00    +0.000 C 
ATOM     13  C   UNL     1      98.522 127.822  83.192  0.00  0.00    +0.000 C 
ATOM     14  C   UNL     1      99.105 129.218  83.391  0.00  0.00    +0.000 C 
ATOM     15  C   UNL     1     100.494 129.163  84.018  0.00  0.00    +0.000 C 
ATOM     16  C   UNL     1     101.440 128.272  83.215  0.00  0.00    +0.000 C 
ENDBRANCH  10  11
ENDBRANCH   6   9
TORSDOF 3
ENDMDL
