REMARK  Name = *****
REMARK  3 active torsions:
REMARK  status: ('A' for Active; 'I' for Inactive)
REMARK    1  A    between atoms: C_6  and  C_7
REMARK    2  A    between atoms: C_7  and  N_8
REMARK    3  A    between atoms: N_8  and  C_9
REMARK                            x       y       z     vdW  Elec       q    Type
REMARK                         _______ _______ _______ _____ _____    ______ ____
ROOT
ATOM      1  N   UNL     1       4.608   1.334  -0.082  0.00  0.00    +0.000 N 
ATOM      2  O   UNL     1       4.129   2.501  -0.256  0.00  0.00    +0.000 OA
ENDROOT
BRANCH   1   3
ATOM      3  C   UNL     1       6.053   1.174  -0.005  0.00  0.00    +0.000 A 
ATOM      4  C   UNL     1       6.717   0.258  -0.834  0.00  0.00    +0.000 A 
ATOM      5  C   UNL     1       8.105   0.140  -0.747  0.00  0.00    +0.000 A 
ATOM      6  C   UNL     1       8.810   0.939   0.149  0.00  0.00    +0.000 A 
ATOM      7  C   UNL     1       8.157   1.863   0.961  0.00  0.00    +0.000 A 
ATOM      8  C   UNL     1       6.770   1.988   0.882  0.00  0.00    +0.000 A 
ATOM      9  F   UNL     1      10.142   0.822   0.226  0.00  0.00    +0.000 F 
ENDBRANCH   1   3
BRANCH   1  10
ATOM     10  C   UNL     1       3.873   0.252   0.049  0.00  0.00    +0.000 C 
BRANCH  10  16
ATOM     11  C   UNL     1       1.556   1.282   0.225  0.00  0.00    +0.000 A 
ATOM     12  C   UNL     1       0.167   1.114   0.188  0.00  0.00    +0.000 A 
ATOM     13  C   UNL     1      -0.376  -0.145  -0.055  0.00  0.00    +0.000 A 
ATOM     14  C   UNL     1       0.458  -1.242  -0.257  0.00  0.00    +0.000 A 
ATOM     15  C   UNL     1       1.845  -1.076  -0.220  0.00  0.00    +0.000 A 
ATOM     16  C   UNL     1       2.401   0.190   0.011  0.00  0.00    +0.000 A 
ATOM     17 CL   UNL     1      -2.083  -0.349  -0.098  0.00  0.00    +0.000 Cl
ENDBRANCH  10  16
ENDBRANCH   1  10
TORSDOF 3
