REMARK  Name = *****
REMARK  6 active torsions:
REMARK  status: ('A' for Active; 'I' for Inactive)
REMARK    1  A    between atoms: C_1  and  C_2
REMARK    2  A    between atoms: C_5  and  S_8
REMARK    3  A    between atoms: S_8  and  C_9
REMARK    4  A    between atoms: C_9  and  C_10
REMARK    5  A    between atoms: C_12  and  O_16
REMARK    6  A    between atoms: O_16  and  C_17
REMARK                            x       y       z     vdW  Elec       q    Type
REMARK                         _______ _______ _______ _____ _____    ______ ____
ROOT
ATOM      1  C   UNL     1      -4.026   1.510  -0.121  0.00  0.00    +0.000 C 
ENDROOT
BRANCH   1   2
ATOM      2  C   UNL     1      -5.570   1.490  -0.111  0.00  0.00    +0.000 C 
ATOM      3  C   UNL     1      -6.149   2.704   0.647  0.00  0.00    +0.000 C 
ATOM      4  C   UNL     1      -7.641   2.530   0.954  0.00  0.00    +0.000 C 
ATOM      5  C   UNL     1      -7.863   1.270   1.806  0.00  0.00    +0.000 C 
ATOM      6  C   UNL     1      -7.082   0.083   1.329  0.00  0.00    +0.000 C 
ATOM      7  C   UNL     1      -6.068   0.178   0.458  0.00  0.00    +0.000 C 
BRANCH   4   8
ATOM      8  O   UNL     1      -8.154   3.642   1.698  0.00  0.00    +0.000 OA
ATOM      9  C   UNL     1      -8.386   4.799   0.907  0.00  0.00    +0.000 C 
ENDBRANCH   4   8
ENDBRANCH   1   2
BRANCH   1  10
ATOM     10  S   UNL     1      -3.363   2.891  -1.126  0.00  0.00    +0.000 S 
BRANCH  10  15
ATOM     11  C   UNL     1       2.612   3.078   0.132  0.00  0.00    +0.000 C 
ATOM     12  C   UNL     1       1.140   3.005  -0.143  0.00  0.00    +0.000 A 
ATOM     13  C   UNL     1       0.445   1.798  -0.025  0.00  0.00    +0.000 A 
ATOM     14  C   UNL     1      -0.924   1.733  -0.310  0.00  0.00    +0.000 A 
ATOM     15  C   UNL     1      -1.623   2.873  -0.716  0.00  0.00    +0.000 A 
ATOM     16  C   UNL     1      -0.918   4.075  -0.854  0.00  0.00    +0.000 A 
ATOM     17  C   UNL     1       0.449   4.142  -0.571  0.00  0.00    +0.000 A 
ENDBRANCH  10  15
ENDBRANCH   1  10
TORSDOF 4
