MODEL 1
REMARK VINA RESULT:      -4.5      0.000      0.000
REMARK  Name = *****
REMARK  4 active torsions:
REMARK  status: ('A' for Active; 'I' for Inactive)
REMARK    1  A    between atoms: C_1  and  C_2
REMARK    2  A    between atoms: C_2  and  C_4
REMARK    3  A    between atoms: C_5  and  C_9
REMARK    4  A    between atoms: C_10  and  C_11
REMARK                            x       y       z     vdW  Elec       q    Type
REMARK                         _______ _______ _______ _____ _____    ______ ____
ROOT
ATOM      1  C   UNL     1     104.625 123.558  82.338  0.00  0.00    +0.000 A 
ATOM      2  C   UNL     1     104.006 124.492  81.521  0.00  0.00    +0.000 A 
ATOM      3  C   UNL     1     104.526 124.493  80.192  0.00  0.00    +0.000 A 
ATOM      4  C   UNL     1     105.528 123.566  80.025  0.00  0.00    +0.000 A 
ATOM      5  S   UNL     1     105.836 122.703  81.463  0.00  0.00    +0.000 S 
ENDROOT
BRANCH   1   7
ATOM      6  C   UNL     1     104.765 124.282  84.795  0.00  0.00    +0.000 C 
ATOM      7  C   UNL     1     104.360 123.266  83.748  0.00  0.00    +0.000 C 
ATOM      8  O   UNL     1     103.821 122.224  84.131  0.00  0.00    +0.000 OA
ENDBRANCH   1   7
BRANCH   2   9
ATOM      9  C   UNL     1     102.957 125.371  81.941  0.00  0.00    +0.000 C 
ATOM     10  C   UNL     1     102.082 126.120  82.281  0.00  0.00    +0.000 C 
BRANCH  10  11
ATOM     11  C   UNL     1     101.054 127.039  82.656  0.00  0.00    +0.000 A 
ATOM     12  C   UNL     1     101.391 128.223  83.317  0.00  0.00    +0.000 A 
ATOM     13  C   UNL     1     100.391 129.126  83.687  0.00  0.00    +0.000 A 
ATOM     14  C   UNL     1      99.057 128.845  83.395  0.00  0.00    +0.000 A 
ATOM     15  C   UNL     1      98.719 127.664  82.735  0.00  0.00    +0.000 A 
ATOM     16  C   UNL     1      99.717 126.760  82.364  0.00  0.00    +0.000 A 
ENDBRANCH  10  11
ENDBRANCH   2   9
TORSDOF 3
ENDMDL
