MODEL 1
REMARK VINA RESULT:      -4.3      0.000      0.000
REMARK  Name = *****
REMARK  6 active torsions:
REMARK  status: ('A' for Active; 'I' for Inactive)
REMARK    1  A    between atoms: C_1  and  C_2
REMARK    2  A    between atoms: C_4  and  C_17
REMARK    3  A    between atoms: C_6  and  O_8
REMARK    4  A    between atoms: O_8  and  C_9
REMARK    5  A    between atoms: C_9  and  C_11
REMARK    6  A    between atoms: C_12  and  C_16
REMARK                            x       y       z     vdW  Elec       q    Type
REMARK                         _______ _______ _______ _____ _____    ______ ____
ROOT
ATOM      1  O   UNL     1      87.807  69.544  87.070  0.00  0.00    +0.000 OA
ENDROOT
BRANCH   1   7
ATOM      2  C   UNL     1      84.617  72.362  89.604  0.00  0.00    +0.000 C 
ATOM      3  C   UNL     1      85.239  71.910  88.315  0.00  0.00    +0.000 A 
ATOM      4  C   UNL     1      84.757  72.390  87.088  0.00  0.00    +0.000 A 
ATOM      5  C   UNL     1      85.309  71.957  85.873  0.00  0.00    +0.000 A 
ATOM      6  C   UNL     1      86.337  71.009  85.893  0.00  0.00    +0.000 A 
ATOM      7  C   UNL     1      86.819  70.539  87.112  0.00  0.00    +0.000 A 
ATOM      8  C   UNL     1      86.266  70.960  88.320  0.00  0.00    +0.000 A 
ATOM      9  C   UNL     1      84.756  72.452  84.569  0.00  0.00    +0.000 C 
ENDBRANCH   1   7
BRANCH   1  10
ATOM     10  C   UNL     1      89.081  69.931  86.658  0.00  0.00    +0.000 C 
ATOM     11  O   UNL     1      89.747  70.820  87.177  0.00  0.00    +0.000 OA
BRANCH  10  12
ATOM     12  C   UNL     1      89.485  69.129  85.533  0.00  0.00    +0.000 A 
ATOM     13  C   UNL     1      89.844  67.794  85.388  0.00  0.00    +0.000 A 
ATOM     14  N   UNL     1      90.175  67.425  84.087  0.00  0.00    +0.000 NA
ATOM     15  N   UNL     1      90.077  68.435  83.242  0.00  0.00    +0.000 NA
ATOM     16  S   UNL     1      89.586  69.850  83.978  0.00  0.00    +0.000 S 
ATOM     17  C   UNL     1      89.913  66.738  86.430  0.00  0.00    +0.000 C 
ENDBRANCH  10  12
ENDBRANCH   1  10
TORSDOF 3
ENDMDL
