MODEL 1
REMARK VINA RESULT:      -4.3      0.000      0.000
REMARK  Name = *****
REMARK  4 active torsions:
REMARK  status: ('A' for Active; 'I' for Inactive)
REMARK    1  A    between atoms: C_4  and  C_7
REMARK    2  A    between atoms: C_7  and  O_8
REMARK    3  A    between atoms: O_8  and  C_9
REMARK    4  A    between atoms: C_9  and  C_11
REMARK                            x       y       z     vdW  Elec       q    Type
REMARK                         _______ _______ _______ _____ _____    ______ ____
ROOT
ATOM      1  C   UNL     1      87.372  63.902  86.115  0.00  0.00    +0.000 C 
ATOM      2  O   UNL     1      86.341  64.189  85.529  0.00  0.00    +0.000 OA
ENDROOT
BRANCH   1   3
ATOM      3  C   UNL     1      88.612  64.687  85.975  0.00  0.00    +0.000 A 
ATOM      4  C   UNL     1      88.826  65.910  86.622  0.00  0.00    +0.000 A 
ATOM      5  C   UNL     1      90.037  66.588  86.431  0.00  0.00    +0.000 A 
ATOM      6  C   UNL     1      91.029  66.043  85.612  0.00  0.00    +0.000 A 
ATOM      7  C   UNL     1      90.817  64.816  84.988  0.00  0.00    +0.000 A 
ATOM      8  C   UNL     1      89.617  64.132  85.168  0.00  0.00    +0.000 A 
ATOM      9 CL   UNL     1      92.044  64.140  83.992  0.00  0.00    +0.000 Cl
ATOM     10 CL   UNL     1      87.688  66.616  87.711  0.00  0.00    +0.000 Cl
ENDBRANCH   1   3
BRANCH   1  11
ATOM     11  O   UNL     1      87.540  62.956  87.065  0.00  0.00    +0.000 OA
BRANCH  11  12
ATOM     12  C   UNL     1      86.587  62.976  88.134  0.00  0.00    +0.000 C 
BRANCH  12  16
ATOM     13  C   UNL     1      88.500  64.297  91.766  0.00  0.00    +0.000 A 
ATOM     14  C   UNL     1      87.109  64.288  91.676  0.00  0.00    +0.000 A 
ATOM     15  C   UNL     1      86.487  63.862  90.500  0.00  0.00    +0.000 A 
ATOM     16  C   UNL     1      87.253  63.431  89.407  0.00  0.00    +0.000 A 
ATOM     17  C   UNL     1      88.651  63.459  89.506  0.00  0.00    +0.000 A 
ATOM     18  C   UNL     1      89.271  63.887  90.680  0.00  0.00    +0.000 A 
ENDBRANCH  12  16
ENDBRANCH  11  12
ENDBRANCH   1  11
TORSDOF 4
ENDMDL
