MODEL 1
REMARK VINA RESULT:      -5.1      0.000      0.000
REMARK  Name = *****
REMARK  3 active torsions:
REMARK  status: ('A' for Active; 'I' for Inactive)
REMARK    1  A    between atoms: C_4  and  N_7
REMARK    2  A    between atoms: C_8  and  C_9
REMARK    3  A    between atoms: C_9  and  C_12
REMARK                            x       y       z     vdW  Elec       q    Type
REMARK                         _______ _______ _______ _____ _____    ______ ____
ROOT
ATOM      1  C   UNL     1     100.381 127.491  82.890  0.00  0.00    +0.000 C 
ATOM      2  C   UNL     1      99.248 126.999  82.474  0.00  0.00    +0.000 C 
ATOM      3  O   UNL     1      98.202 126.608  82.102  0.00  0.00    +0.000 OA
ENDROOT
BRANCH   1   4
ATOM      4  C   UNL     1     100.453 128.837  83.496  0.00  0.00    +0.000 A 
ATOM      5  C   UNL     1      99.364 129.719  83.409  0.00  0.00    +0.000 A 
ATOM      6  C   UNL     1      99.428 130.993  83.981  0.00  0.00    +0.000 A 
ATOM      7  C   UNL     1     100.579 131.403  84.646  0.00  0.00    +0.000 A 
ATOM      8  C   UNL     1     101.672 130.544  84.737  0.00  0.00    +0.000 A 
ATOM      9  C   UNL     1     101.611 129.271  84.165  0.00  0.00    +0.000 A 
ENDBRANCH   1   4
BRANCH   1  11
ATOM     10  N   UNL     1     102.413 126.810  81.698  0.00  0.00    +0.000 NA
ATOM     11  C   UNL     1     101.607 126.676  82.693  0.00  0.00    +0.000 C 
BRANCH  10  15
ATOM     12  C   UNL     1     104.556 123.128  81.429  0.00  0.00    +0.000 C 
ATOM     13  C   UNL     1     104.758 124.150  80.315  0.00  0.00    +0.000 C 
ATOM     14  C   UNL     1     103.671 125.221  80.329  0.00  0.00    +0.000 C 
ATOM     15  C   UNL     1     103.568 125.903  81.698  0.00  0.00    +0.000 C 
ATOM     16  C   UNL     1     103.354 124.868  82.807  0.00  0.00    +0.000 C 
ATOM     17  C   UNL     1     104.444 123.797  82.795  0.00  0.00    +0.000 C 
ENDBRANCH  10  15
ENDBRANCH   1  11
TORSDOF 3
ENDMDL
