MODEL 1
REMARK VINA RESULT:      -4.5      0.000      0.000
REMARK  Name = *****
REMARK  2 active torsions:
REMARK  status: ('A' for Active; 'I' for Inactive)
REMARK    1  A    between atoms: C_7  and  C_8
REMARK    2  A    between atoms: C_8  and  C_9
REMARK                            x       y       z     vdW  Elec       q    Type
REMARK                         _______ _______ _______ _____ _____    ______ ____
ROOT
ATOM      1  C   UNL     1      86.450  65.437  89.483  0.00  0.00    +0.000 C 
ATOM      2  C   UNL     1      86.304  66.918  89.128  0.00  0.00    +0.000 C 
ATOM      3  C   UNL     1      86.592  67.176  87.648  0.00  0.00    +0.000 C 
ATOM      4  C   UNL     1      87.930  66.606  87.263  0.00  0.00    +0.000 C 
ATOM      5  C   UNL     1      88.880  67.325  86.696  0.00  0.00    +0.000 C 
ATOM      6  C   UNL     1      90.187  67.305  86.171  0.00  0.00    +0.000 C 
ATOM      7  C   UNL     1      89.275  68.586  86.201  0.00  0.00    +0.000 C 
ATOM      8  C   UNL     1      88.116  65.148  87.595  0.00  0.00    +0.000 C 
ATOM      9  C   UNL     1      87.819  64.890  89.073  0.00  0.00    +0.000 C 
ENDROOT
BRANCH   7  10
ATOM     10  C   UNL     1      89.671  69.717  87.104  0.00  0.00    +0.000 C 
BRANCH  10  11
ATOM     11  C   UNL     1      88.463  70.354  87.748  0.00  0.00    +0.000 A 
ATOM     12  C   UNL     1      88.398  70.516  89.137  0.00  0.00    +0.000 A 
ATOM     13  C   UNL     1      87.274  71.095  89.730  0.00  0.00    +0.000 A 
ATOM     14  C   UNL     1      86.204  71.515  88.940  0.00  0.00    +0.000 A 
ATOM     15  C   UNL     1      86.258  71.355  87.556  0.00  0.00    +0.000 A 
ATOM     16  C   UNL     1      87.380  70.777  86.963  0.00  0.00    +0.000 A 
ENDBRANCH  10  11
ENDBRANCH   7  10
TORSDOF 2
ENDMDL
