REMARK  Name = *****
REMARK  3 active torsions:
REMARK  status: ('A' for Active; 'I' for Inactive)
REMARK    1  A    between atoms: C_5  and  C_7
REMARK    2  A    between atoms: C_7  and  C_9
REMARK    3  A    between atoms: C_9  and  C_10
REMARK                            x       y       z     vdW  Elec       q    Type
REMARK                         _______ _______ _______ _____ _____    ______ ____
ROOT
ATOM      1  C   UNL     1       0.009  -3.100   0.090  0.00  0.00    +0.000 C 
ATOM      2  O   UNL     1       0.696  -3.494  -0.851  0.00  0.00    +0.000 OA
ENDROOT
BRANCH   1   7
ATOM      3  C   UNL     1       2.280  -0.920   2.126  0.00  0.00    +0.000 A 
ATOM      4  C   UNL     1       2.091  -1.412   3.415  0.00  0.00    +0.000 A 
ATOM      5  C   UNL     1       1.224  -2.485   3.635  0.00  0.00    +0.000 A 
ATOM      6  C   UNL     1       0.531  -3.065   2.567  0.00  0.00    +0.000 A 
ATOM      7  C   UNL     1       0.705  -2.557   1.277  0.00  0.00    +0.000 A 
ATOM      8  C   UNL     1       1.593  -1.494   1.055  0.00  0.00    +0.000 A 
ATOM      9 CL   UNL     1      -0.468  -4.425   2.913  0.00  0.00    +0.000 Cl
ENDBRANCH   1   7
BRANCH   1  10
ATOM     10  C   UNL     1      -1.505  -2.990   0.036  0.00  0.00    +0.000 C 
BRANCH  10  11
ATOM     11  C   UNL     1      -2.236  -4.296  -0.179  0.00  0.00    +0.000 A 
ATOM     12  C   UNL     1      -3.291  -4.657   0.676  0.00  0.00    +0.000 A 
ATOM     13  C   UNL     1      -3.990  -5.849   0.479  0.00  0.00    +0.000 A 
ATOM     14  C   UNL     1      -3.644  -6.679  -0.579  0.00  0.00    +0.000 A 
ATOM     15  C   UNL     1      -2.617  -6.336  -1.447  0.00  0.00    +0.000 A 
ATOM     16  C   UNL     1      -1.918  -5.143  -1.252  0.00  0.00    +0.000 A 
ATOM     17  F   UNL     1      -4.315  -7.823  -0.767  0.00  0.00    +0.000 F 
ENDBRANCH  10  11
ENDBRANCH   1  10
TORSDOF 3
