MODEL 1
REMARK VINA RESULT:      -3.6      0.000      0.000
REMARK  Name = *****
REMARK  5 active torsions:
REMARK  status: ('A' for Active; 'I' for Inactive)
REMARK    1  A    between atoms: C_1  and  C_2
REMARK    2  A    between atoms: C_2  and  P_3
REMARK    3  A    between atoms: C_2  and  P_10
REMARK    4  A    between atoms: P_3  and  C_4
REMARK    5  A    between atoms: P_10  and  C_11
REMARK                            x       y       z     vdW  Elec       q    Type
REMARK                         _______ _______ _______ _____ _____    ______ ____
ROOT
ATOM      1  C   UNL     1      88.257  63.302  85.043  0.00  0.00    +0.000 C 
ATOM      2  C   UNL     1      87.582  63.485  86.406  0.00  0.00    +0.000 C 
ENDROOT
BRANCH   2   3
ATOM      3  P   UNL     1      88.177  65.122  87.149  0.00  0.00    +0.000 P 
ATOM      4  H   UNL     1      87.469  66.196  86.647  0.00  0.00    +0.000 HD
BRANCH   3   5
ATOM      5  C   UNL     1      87.815  64.849  88.911  0.00  0.00    +0.000 A 
ATOM      6  C   UNL     1      88.685  64.085  89.700  0.00  0.00    +0.000 A 
ATOM      7  C   UNL     1      88.416  63.872  91.055  0.00  0.00    +0.000 A 
ATOM      8  C   UNL     1      87.278  64.427  91.635  0.00  0.00    +0.000 A 
ATOM      9  C   UNL     1      86.411  65.196  90.863  0.00  0.00    +0.000 A 
ATOM     10  C   UNL     1      86.679  65.409  89.508  0.00  0.00    +0.000 A 
ENDBRANCH   3   5
ENDBRANCH   2   3
BRANCH   2  11
ATOM     11  P   UNL     1      85.707  63.409  86.252  0.00  0.00    +0.000 P 
ATOM     12  H   UNL     1      85.318  62.614  85.193  0.00  0.00    +0.000 HD
BRANCH  11  13
ATOM     13  C   UNL     1      85.252  62.667  87.845  0.00  0.00    +0.000 A 
ATOM     14  C   UNL     1      83.995  62.921  88.411  0.00  0.00    +0.000 A 
ATOM     15  C   UNL     1      83.640  62.353  89.637  0.00  0.00    +0.000 A 
ATOM     16  C   UNL     1      84.534  61.520  90.305  0.00  0.00    +0.000 A 
ATOM     17  C   UNL     1      85.782  61.251  89.746  0.00  0.00    +0.000 A 
ATOM     18  C   UNL     1      86.139  61.818  88.521  0.00  0.00    +0.000 A 
ENDBRANCH  11  13
ENDBRANCH   2  11
TORSDOF 4
ENDMDL
