REMARK  Name = *****
REMARK  8 active torsions:
REMARK  status: ('A' for Active; 'I' for Inactive)
REMARK    1  A    between atoms: C_1  and  C_2
REMARK    2  A    between atoms: C_2  and  N_3
REMARK    3  A    between atoms: N_3  and  C_4
REMARK    4  A    between atoms: N_3  and  C_13
REMARK    5  A    between atoms: C_4  and  C_5
REMARK    6  A    between atoms: C_9  and  C_12
REMARK    7  A    between atoms: C_10  and  C_11
REMARK    8  A    between atoms: C_16  and  C_19
REMARK                            x       y       z     vdW  Elec       q    Type
REMARK                         _______ _______ _______ _____ _____    ______ ____
ROOT
ATOM      1  N   UNL     1       2.786  -1.025   0.658  0.00  0.00    +0.000 N 
ENDROOT
BRANCH   1   2
ATOM      2  C   UNL     1       4.144  -1.228   0.890  0.00  0.00    +0.000 A 
ATOM      3  C   UNL     1       4.618  -1.865   2.050  0.00  0.00    +0.000 A 
ATOM      4  C   UNL     1       5.984  -2.066   2.298  0.00  0.00    +0.000 A 
ATOM      5  C   UNL     1       6.942  -1.620   1.391  0.00  0.00    +0.000 A 
ATOM      6  C   UNL     1       6.505  -0.992   0.227  0.00  0.00    +0.000 A 
ATOM      7  C   UNL     1       5.135  -0.795  -0.008  0.00  0.00    +0.000 A 
ATOM      8  C   UNL     1       8.401  -1.862   1.632  0.00  0.00    +0.000 C 
ENDBRANCH   1   2
BRANCH   1  10
ATOM      9  C   UNL     1       2.146  -1.132  -1.726  0.00  0.00    +0.000 C 
ATOM     10  C   UNL     1       2.291  -0.255  -0.489  0.00  0.00    +0.000 C 
ENDBRANCH   1  10
BRANCH   1  11
ATOM     11  C   UNL     1       1.758  -1.723   1.452  0.00  0.00    +0.000 C 
BRANCH  11  12
ATOM     12  C   UNL     1       1.364  -1.027   2.752  0.00  0.00    +0.000 A 
ATOM     13  C   UNL     1       1.781   0.289   3.020  0.00  0.00    +0.000 A 
ATOM     14  C   UNL     1       1.426   0.933   4.201  0.00  0.00    +0.000 A 
ATOM     15  C   UNL     1       0.647   0.273   5.144  0.00  0.00    +0.000 A 
ATOM     16  C   UNL     1       0.207  -1.039   4.917  0.00  0.00    +0.000 A 
ATOM     17  C   UNL     1       0.537  -1.689   3.702  0.00  0.00    +0.000 A 
ATOM     18  C   UNL     1       0.071  -3.103   3.446  0.00  0.00    +0.000 C 
ATOM     19  C   UNL     1      -0.628  -1.705   5.979  0.00  0.00    +0.000 C 
ENDBRANCH  11  12
ENDBRANCH   1  11
TORSDOF 4
