MODEL 1
REMARK VINA RESULT:      -5.1      0.000      0.000
REMARK  Name = *****
REMARK  4 active torsions:
REMARK  status: ('A' for Active; 'I' for Inactive)
REMARK    1  A    between atoms: C_4  and  C_9
REMARK    2  A    between atoms: C_5  and  C_7
REMARK    3  A    between atoms: C_10  and  C_11
REMARK    4  A    between atoms: C_16  and  C_17
REMARK                            x       y       z     vdW  Elec       q    Type
REMARK                         _______ _______ _______ _____ _____    ______ ____
ROOT
ATOM      1  C   UNL     1     103.067 125.357  81.804  0.00  0.00    +0.000 C 
ATOM      2  C   UNL     1     102.189 126.095  82.158  0.00  0.00    +0.000 C 
ENDROOT
BRANCH   1   6
ATOM      3  C   UNL     1     106.182 122.844  80.407  0.00  0.00    +0.000 A 
ATOM      4  C   UNL     1     105.616 123.810  79.577  0.00  0.00    +0.000 A 
ATOM      5  C   UNL     1     104.590 124.627  80.054  0.00  0.00    +0.000 A 
ATOM      6  C   UNL     1     104.119 124.486  81.366  0.00  0.00    +0.000 A 
ATOM      7  C   UNL     1     104.691 123.513  82.198  0.00  0.00    +0.000 A 
ATOM      8  C   UNL     1     105.722 122.694  81.715  0.00  0.00    +0.000 A 
BRANCH   7   9
ATOM      9  C   UNL     1     104.235 123.321  83.595  0.00  0.00    +0.000 C 
ATOM     10  O   UNL     1     103.859 122.230  84.011  0.00  0.00    +0.000 OA
ENDBRANCH   7   9
ENDBRANCH   1   6
BRANCH   2  11
ATOM     11  C   UNL     1     101.154 126.993  82.577  0.00  0.00    +0.000 A 
ATOM     12  C   UNL     1      99.823 126.618  82.353  0.00  0.00    +0.000 A 
ATOM     13  C   UNL     1      98.777 127.454  82.742  0.00  0.00    +0.000 A 
ATOM     14  C   UNL     1      99.055 128.672  83.355  0.00  0.00    +0.000 A 
ATOM     15  C   UNL     1     100.377 129.053  83.582  0.00  0.00    +0.000 A 
ATOM     16  C   UNL     1     101.446 128.218  83.201  0.00  0.00    +0.000 A 
BRANCH  16  17
ATOM     17  C   UNL     1     102.867 128.661  83.442  0.00  0.00    +0.000 C 
ATOM     18  F   UNL     1     103.560 127.839  84.281  0.00  0.00    +0.000 F 
ATOM     19  F   UNL     1     103.597 128.732  82.294  0.00  0.00    +0.000 F 
ATOM     20  F   UNL     1     102.954 129.902  84.005  0.00  0.00    +0.000 F 
ENDBRANCH  16  17
ENDBRANCH   2  11
TORSDOF 4
ENDMDL
