MODEL 1
REMARK VINA RESULT:      -4.4      0.000      0.000
REMARK  Name = *****
REMARK  3 active torsions:
REMARK  status: ('A' for Active; 'I' for Inactive)
REMARK    1  A    between atoms: C_1  and  C_2
REMARK    2  A    between atoms: C_4  and  S_8
REMARK    3  A    between atoms: S_8  and  C_9
REMARK                            x       y       z     vdW  Elec       q    Type
REMARK                         _______ _______ _______ _____ _____    ______ ____
ROOT
ATOM      1  S   UNL     1      87.495  64.982  86.969  0.00  0.00    +0.000 S 
ENDROOT
BRANCH   1   5
ATOM      2  C   UNL     1      91.587  62.492  84.674  0.00  0.00    +0.000 C 
ATOM      3  C   UNL     1      90.974  63.759  85.191  0.00  0.00    +0.000 A 
ATOM      4  C   UNL     1      89.692  63.762  85.759  0.00  0.00    +0.000 A 
ATOM      5  C   UNL     1      89.127  64.946  86.244  0.00  0.00    +0.000 A 
ATOM      6  C   UNL     1      89.841  66.142  86.133  0.00  0.00    +0.000 A 
ATOM      7  C   UNL     1      91.117  66.150  85.568  0.00  0.00    +0.000 A 
ATOM      8  C   UNL     1      91.682  64.964  85.102  0.00  0.00    +0.000 A 
ENDBRANCH   1   5
BRANCH   1   9
ATOM      9  C   UNL     1      87.920  65.048  88.752  0.00  0.00    +0.000 C 
ATOM     10  C   UNL     1      86.677  65.271  89.669  0.00  0.00    +0.000 C 
ATOM     11  C   UNL     1      86.719  64.047  90.610  0.00  0.00    +0.000 C 
ATOM     12  C   UNL     1      87.162  62.947  89.644  0.00  0.00    +0.000 C 
ATOM     13  C   UNL     1      88.453  63.676  89.252  0.00  0.00    +0.000 C 
ATOM     14  C   UNL     1      89.013  63.902  90.643  0.00  0.00    +0.000 C 
ATOM     15  C   UNL     1      87.970  64.138  91.453  0.00  0.00    +0.000 C 
ENDBRANCH   1   9
TORSDOF 2
ENDMDL
