MODEL 1
REMARK VINA RESULT:      -4.8      0.000      0.000
REMARK  Name = *****
REMARK  5 active torsions:
REMARK  status: ('A' for Active; 'I' for Inactive)
REMARK    1  A    between atoms: C_1  and  O_2
REMARK    2  A    between atoms: O_2  and  C_3
REMARK    3  A    between atoms: C_3  and  C_5
REMARK    4  A    between atoms: C_8  and  C_11
REMARK    5  A    between atoms: C_12  and  C_13
REMARK                            x       y       z     vdW  Elec       q    Type
REMARK                         _______ _______ _______ _____ _____    ______ ____
ROOT
ATOM      1  C   UNL     1     105.671 122.908  80.975  0.00  0.00    +0.000 A 
ATOM      2  C   UNL     1     105.351 123.780  79.927  0.00  0.00    +0.000 A 
ATOM      3  C   UNL     1     104.377 124.769  80.105  0.00  0.00    +0.000 A 
ATOM      4  C   UNL     1     103.699 124.895  81.325  0.00  0.00    +0.000 A 
ATOM      5  C   UNL     1     104.036 124.032  82.375  0.00  0.00    +0.000 A 
ATOM      6  C   UNL     1     105.008 123.042  82.201  0.00  0.00    +0.000 A 
ENDROOT
BRANCH   1   7
ATOM      7  C   UNL     1     106.698 121.838  80.843  0.00  0.00    +0.000 C 
ATOM      8  O   UNL     1     106.572 120.721  81.317  0.00  0.00    +0.000 OA
BRANCH   7  10
ATOM      9  C   UNL     1     108.972 121.563  80.387  0.00  0.00    +0.000 C 
ATOM     10  O   UNL     1     107.764 122.283  80.130  0.00  0.00    +0.000 OA
ENDBRANCH   7  10
ENDBRANCH   1   7
BRANCH   4  11
ATOM     11  C   UNL     1     102.694 125.940  81.558  0.00  0.00    +0.000 C 
ATOM     12  C   UNL     1     101.912 125.994  82.650  0.00  0.00    +0.000 C 
BRANCH  12  13
ATOM     13  C   UNL     1     100.920 127.051  82.893  0.00  0.00    +0.000 A 
ATOM     14  C   UNL     1     101.265 128.284  83.464  0.00  0.00    +0.000 A 
ATOM     15  C   UNL     1     100.299 129.275  83.651  0.00  0.00    +0.000 A 
ATOM     16  C   UNL     1      98.981 129.050  83.260  0.00  0.00    +0.000 A 
ATOM     17  C   UNL     1      98.629 127.833  82.677  0.00  0.00    +0.000 A 
ATOM     18  C   UNL     1      99.595 126.842  82.489  0.00  0.00    +0.000 A 
ENDBRANCH  12  13
ENDBRANCH   4  11
TORSDOF 4
ENDMDL
