MODEL 1
REMARK VINA RESULT:      -3.9      0.000      0.000
REMARK  Name = *****
REMARK  4 active torsions:
REMARK  status: ('A' for Active; 'I' for Inactive)
REMARK    1  A    between atoms: C_4  and  C_7
REMARK    2  A    between atoms: C_7  and  S_8
REMARK    3  A    between atoms: S_8  and  C_9
REMARK    4  A    between atoms: C_10  and  C_11
REMARK                            x       y       z     vdW  Elec       q    Type
REMARK                         _______ _______ _______ _____ _____    ______ ____
ROOT
ATOM      1  C   UNL     1      88.135  64.890  86.224  0.00  0.00    +0.000 C 
ATOM      2  C   UNL     1      88.144  65.615  87.353  0.00  0.00    +0.000 C 
ENDROOT
BRANCH   2   3
ATOM      3  C   UNL     1      87.791  65.162  88.703  0.00  0.00    +0.000 A 
ATOM      4  C   UNL     1      88.666  64.312  89.394  0.00  0.00    +0.000 A 
ATOM      5  C   UNL     1      88.357  63.887  90.687  0.00  0.00    +0.000 A 
ATOM      6  C   UNL     1      87.180  64.318  91.288  0.00  0.00    +0.000 A 
ATOM      7  C   UNL     1      86.305  65.167  90.621  0.00  0.00    +0.000 A 
ATOM      8  C   UNL     1      86.612  65.593  89.328  0.00  0.00    +0.000 A 
ATOM      9  F   UNL     1      86.885  63.910  92.530  0.00  0.00    +0.000 F 
ENDBRANCH   2   3
BRANCH   1  10
ATOM     10  S   UNL     1      87.711  63.214  86.131  0.00  0.00    +0.000 S 
BRANCH  10  11
ATOM     11  C   UNL     1      85.902  63.315  86.271  0.00  0.00    +0.000 C 
BRANCH  11  15
ATOM     12  C   UNL     1      84.499  61.676  90.007  0.00  0.00    +0.000 A 
ATOM     13  C   UNL     1      83.670  62.508  89.255  0.00  0.00    +0.000 A 
ATOM     14  C   UNL     1      84.123  63.038  88.046  0.00  0.00    +0.000 A 
ATOM     15  C   UNL     1      85.408  62.736  87.572  0.00  0.00    +0.000 A 
ATOM     16  C   UNL     1      86.236  61.906  88.343  0.00  0.00    +0.000 A 
ATOM     17  C   UNL     1      85.783  61.378  89.552  0.00  0.00    +0.000 A 
ENDBRANCH  11  15
ENDBRANCH  10  11
ENDBRANCH   1  10
TORSDOF 4
ENDMDL
