MODEL 1
REMARK VINA RESULT:      -4.0      0.000      0.000
REMARK  Name = *****
REMARK  2 active torsions:
REMARK  status: ('A' for Active; 'I' for Inactive)
REMARK    1  A    between atoms: C_4  and  C_6
REMARK    2  A    between atoms: N_7  and  C_8
REMARK                            x       y       z     vdW  Elec       q    Type
REMARK                         _______ _______ _______ _____ _____    ______ ____
ROOT
ATOM      1  C   UNL     1     103.328 126.350  82.216  0.00  0.00    +0.000 A 
ATOM      2  C   UNL     1     103.658 126.249  80.851  0.00  0.00    +0.000 A 
ATOM      3  C   UNL     1     104.138 125.049  80.319  0.00  0.00    +0.000 A 
ATOM      4  C   UNL     1     104.280 123.939  81.148  0.00  0.00    +0.000 A 
ATOM      5  C   UNL     1     103.944 124.015  82.498  0.00  0.00    +0.000 A 
ATOM      6  C   UNL     1     103.465 125.215  83.025  0.00  0.00    +0.000 A 
ATOM      7 CL   UNL     1     104.870 122.459  80.498  0.00  0.00    +0.000 Cl
ATOM      8 CL   UNL     1     103.490 127.599  79.784  0.00  0.00    +0.000 Cl
ENDROOT
BRANCH   1  10
ATOM      9  C   UNL     1     101.531 127.570  82.964  0.00  0.00    +0.000 C 
ATOM     10  N   UNL     1     102.817 127.522  82.803  0.00  0.00    +0.000 NA
BRANCH   9  14
ATOM     11  C   UNL     1      99.375 130.362  84.188  0.00  0.00    +0.000 A 
ATOM     12  C   UNL     1     100.504 130.780  84.856  0.00  0.00    +0.000 A 
ATOM     13  S   UNL     1     101.835 129.742  84.577  0.00  0.00    +0.000 S 
ATOM     14  C   UNL     1     100.909 128.725  83.561  0.00  0.00    +0.000 A 
ATOM     15  C   UNL     1      99.610 129.173  83.438  0.00  0.00    +0.000 A 
ENDBRANCH   9  14
ENDBRANCH   1  10
TORSDOF 2
ENDMDL
