MODEL 1
REMARK VINA RESULT:      -4.3      0.000      0.000
REMARK  Name = *****
REMARK  3 active torsions:
REMARK  status: ('A' for Active; 'I' for Inactive)
REMARK    1  A    between atoms: C_5  and  O_7
REMARK    2  A    between atoms: O_7  and  C_8
REMARK    3  A    between atoms: C_8  and  C_10
REMARK                            x       y       z     vdW  Elec       q    Type
REMARK                         _______ _______ _______ _____ _____    ______ ____
ROOT
ATOM      1  C   UNL     1      87.824  70.383  88.236  0.00  0.00    +0.000 C 
ATOM      2  O   UNL     1      88.394  70.543  89.304  0.00  0.00    +0.000 OA
ENDROOT
BRANCH   1   3
ATOM      3  C   UNL     1      86.590  71.121  87.849  0.00  0.00    +0.000 A 
ATOM      4  C   UNL     1      86.353  71.343  86.485  0.00  0.00    +0.000 A 
ATOM      5  C   UNL     1      85.208  72.029  86.069  0.00  0.00    +0.000 A 
ATOM      6  C   UNL     1      84.298  72.495  87.016  0.00  0.00    +0.000 A 
ATOM      7  C   UNL     1      84.523  72.280  88.375  0.00  0.00    +0.000 A 
ATOM      8  C   UNL     1      85.666  71.593  88.793  0.00  0.00    +0.000 A 
ATOM      9 CL   UNL     1      82.890  73.340  86.506  0.00  0.00    +0.000 Cl
ENDBRANCH   1   3
BRANCH   1  10
ATOM     10  O   UNL     1      88.197  69.538  87.247  0.00  0.00    +0.000 OA
BRANCH  10  15
ATOM     11  C   UNL     1      89.386  68.260  84.723  0.00  0.00    +0.000 C 
ATOM     12  C   UNL     1      90.025  69.415  83.947  0.00  0.00    +0.000 C 
ATOM     13  C   UNL     1      90.094  70.687  84.739  0.00  0.00    +0.000 C 
ATOM     14  C   UNL     1      89.881  70.737  86.064  0.00  0.00    +0.000 C 
ATOM     15  C   UNL     1      89.596  69.526  86.912  0.00  0.00    +0.000 C 
ATOM     16  C   UNL     1      89.888  68.213  86.167  0.00  0.00    +0.000 C 
ENDBRANCH  10  15
ENDBRANCH   1  10
TORSDOF 3
ENDMDL
