MODEL 1
REMARK VINA RESULT:      -4.3      0.000      0.000
REMARK  Name = *****
REMARK  3 active torsions:
REMARK  status: ('A' for Active; 'I' for Inactive)
REMARK    1  A    between atoms: C_1  and  C_2
REMARK    2  A    between atoms: C_5  and  N_8
REMARK    3  A    between atoms: C_10  and  C_11
REMARK                            x       y       z     vdW  Elec       q    Type
REMARK                         _______ _______ _______ _____ _____    ______ ____
ROOT
ATOM      1  N   UNL     1      87.596  63.876  86.527  0.00  0.00    +0.000 N 
ATOM      2  C   UNL     1      86.233  63.500  86.893  0.00  0.00    +0.000 C 
ATOM      3  C   UNL     1      87.399  63.004  87.702  0.00  0.00    +0.000 C 
ENDROOT
BRANCH   1   8
ATOM      4  C   UNL     1      89.650  69.242  86.788  0.00  0.00    +0.000 C 
ATOM      5  C   UNL     1      89.090  67.851  86.754  0.00  0.00    +0.000 A 
ATOM      6  C   UNL     1      89.895  66.774  86.379  0.00  0.00    +0.000 A 
ATOM      7  C   UNL     1      89.363  65.482  86.322  0.00  0.00    +0.000 A 
ATOM      8  C   UNL     1      88.018  65.226  86.630  0.00  0.00    +0.000 A 
ATOM      9  C   UNL     1      87.217  66.319  86.982  0.00  0.00    +0.000 A 
ATOM     10  C   UNL     1      87.744  67.616  87.043  0.00  0.00    +0.000 A 
ENDBRANCH   1   8
BRANCH   3  11
ATOM     11  C   UNL     1      87.635  63.450  89.122  0.00  0.00    +0.000 A 
ATOM     12  C   UNL     1      86.569  63.678  90.009  0.00  0.00    +0.000 A 
ATOM     13  C   UNL     1      86.790  64.066  91.334  0.00  0.00    +0.000 A 
ATOM     14  C   UNL     1      88.090  64.226  91.804  0.00  0.00    +0.000 A 
ATOM     15  C   UNL     1      89.165  63.992  90.953  0.00  0.00    +0.000 A 
ATOM     16  C   UNL     1      88.937  63.601  89.631  0.00  0.00    +0.000 A 
ENDBRANCH   3  11
TORSDOF 2
ENDMDL
