MODEL 1
REMARK VINA RESULT:      -4.5      0.000      0.000
REMARK  Name = *****
REMARK  6 active torsions:
REMARK  status: ('A' for Active; 'I' for Inactive)
REMARK    1  A    between atoms: C_1  and  C_2
REMARK    2  A    between atoms: C_5  and  C_8
REMARK    3  A    between atoms: C_8  and  C_9
REMARK    4  A    between atoms: C_9  and  O_11
REMARK    5  A    between atoms: O_11  and  C_12
REMARK    6  A    between atoms: C_15  and  C_18
REMARK                            x       y       z     vdW  Elec       q    Type
REMARK                         _______ _______ _______ _____ _____    ______ ____
ROOT
ATOM      1  C   UNL     1      89.304  68.217  86.267  0.00  0.00    +0.000 C 
ATOM      2  O   UNL     1      90.445  67.886  86.556  0.00  0.00    +0.000 OA
ENDROOT
BRANCH   1   3
ATOM      3  C   UNL     1      88.817  69.627  85.993  0.00  0.00    +0.000 C 
BRANCH   3   8
ATOM      4  C   UNL     1      86.138  72.177  90.497  0.00  0.00    +0.000 C 
ATOM      5  C   UNL     1      86.815  71.498  89.343  0.00  0.00    +0.000 A 
ATOM      6  C   UNL     1      88.072  70.907  89.508  0.00  0.00    +0.000 A 
ATOM      7  C   UNL     1      88.716  70.299  88.427  0.00  0.00    +0.000 A 
ATOM      8  C   UNL     1      88.121  70.285  87.160  0.00  0.00    +0.000 A 
ATOM      9  C   UNL     1      86.865  70.885  86.995  0.00  0.00    +0.000 A 
ATOM     10  C   UNL     1      86.223  71.493  88.075  0.00  0.00    +0.000 A 
ENDBRANCH   3   8
ENDBRANCH   1   3
BRANCH   1  11
ATOM     11  O   UNL     1      88.213  67.360  86.102  0.00  0.00    +0.000 OA
BRANCH  11  12
ATOM     12  C   UNL     1      87.973  66.541  87.207  0.00  0.00    +0.000 A 
ATOM     13  C   UNL     1      86.981  66.908  88.110  0.00  0.00    +0.000 A 
ATOM     14  C   UNL     1      86.695  66.067  89.187  0.00  0.00    +0.000 A 
ATOM     15  C   UNL     1      87.398  64.865  89.356  0.00  0.00    +0.000 A 
ATOM     16  C   UNL     1      88.371  64.500  88.414  0.00  0.00    +0.000 A 
ATOM     17  C   UNL     1      88.660  65.336  87.335  0.00  0.00    +0.000 A 
ATOM     18  C   UNL     1      87.068  63.948  90.497  0.00  0.00    +0.000 C 
ENDBRANCH  11  12
ENDBRANCH   1  11
TORSDOF 4
ENDMDL
