MODEL 1
REMARK VINA RESULT:      -5.1      0.000      0.000
REMARK  Name = *****
REMARK  1 active torsions:
REMARK  status: ('A' for Active; 'I' for Inactive)
REMARK    1  A    between atoms: C_10  and  C_11
REMARK                            x       y       z     vdW  Elec       q    Type
REMARK                         _______ _______ _______ _____ _____    ______ ____
ROOT
ATOM      1  C   UNL     1      98.944 128.896  83.746  0.00  0.00    +0.000 C 
ATOM      2  C   UNL     1      98.635 127.979  82.556  0.00  0.00    +0.000 C 
ATOM      3  C   UNL     1      99.557 126.750  82.520  0.00  0.00    +0.000 C 
ATOM      4  C   UNL     1     100.973 127.117  82.817  0.00  0.00    +0.000 C 
ATOM      5  C   UNL     1     101.336 128.299  83.346  0.00  0.00    +0.000 C 
ATOM      6  C   UNL     1     100.400 129.386  83.737  0.00  0.00    +0.000 C 
ATOM      7  C   UNL     1     102.836 128.376  83.460  0.00  0.00    +0.000 C 
ATOM      8  C   UNL     1     103.327 127.040  82.926  0.00  0.00    +0.000 C 
ATOM      9  C   UNL     1     102.109 126.233  82.516  0.00  0.00    +0.000 C 
ATOM     10  C   UNL     1     103.132 126.639  81.475  0.00  0.00    +0.000 C 
ENDROOT
BRANCH  10  11
ATOM     11  C   UNL     1     104.025 125.587  80.861  0.00  0.00    +0.000 A 
ATOM     12  C   UNL     1     103.983 124.252  81.294  0.00  0.00    +0.000 A 
ATOM     13  C   UNL     1     104.796 123.272  80.718  0.00  0.00    +0.000 A 
ATOM     14  C   UNL     1     105.669 123.610  79.687  0.00  0.00    +0.000 A 
ATOM     15  C   UNL     1     105.723 124.924  79.232  0.00  0.00    +0.000 A 
ATOM     16  C   UNL     1     104.907 125.898  79.812  0.00  0.00    +0.000 A 
ENDBRANCH  10  11
TORSDOF 1
ENDMDL
