MODEL 1
REMARK VINA RESULT:      -4.8      0.000      0.000
REMARK  Name = *****
REMARK  1 active torsions:
REMARK  status: ('A' for Active; 'I' for Inactive)
REMARK    1  A    between atoms: C_4  and  C_7
REMARK                            x       y       z     vdW  Elec       q    Type
REMARK                         _______ _______ _______ _____ _____    ______ ____
ROOT
ATOM      1  C   UNL     1      89.165  70.476  84.790  0.00  0.00    +0.000 A 
ATOM      2  C   UNL     1      89.538  69.321  84.068  0.00  0.00    +0.000 A 
ATOM      3  C   UNL     1      89.950  68.180  84.767  0.00  0.00    +0.000 A 
ATOM      4  C   UNL     1      89.977  68.214  86.151  0.00  0.00    +0.000 A 
ATOM      5  C   UNL     1      89.622  69.313  86.920  0.00  0.00    +0.000 A 
ATOM      6  C   UNL     1      89.215  70.447  86.201  0.00  0.00    +0.000 A 
ATOM      7  O   UNL     1      90.407  66.999  86.591  0.00  0.00    +0.000 OA
ATOM      8  C   UNL     1      90.618  66.289  85.438  0.00  0.00    +0.000 A 
ATOM      9  N   UNL     1      90.360  66.948  84.326  0.00  0.00    +0.000 NA
ATOM     10 CL   UNL     1      91.178  64.664  85.428  0.00  0.00    +0.000 Cl
ENDROOT
BRANCH   1  14
ATOM     11  C   UNL     1      87.905  74.021  82.717  0.00  0.00    +0.000 A 
ATOM     12  C   UNL     1      89.228  73.889  83.133  0.00  0.00    +0.000 A 
ATOM     13  C   UNL     1      89.636  72.736  83.808  0.00  0.00    +0.000 A 
ATOM     14  C   UNL     1      88.733  71.694  84.079  0.00  0.00    +0.000 A 
ATOM     15  C   UNL     1      87.404  71.849  83.650  0.00  0.00    +0.000 A 
ATOM     16  C   UNL     1      86.993  73.002  82.974  0.00  0.00    +0.000 A 
ENDBRANCH   1  14
TORSDOF 1
ENDMDL
