MODEL 1
REMARK VINA RESULT:      -5.0      0.000      0.000
REMARK  Name = *****
REMARK  2 active torsions:
REMARK  status: ('A' for Active; 'I' for Inactive)
REMARK    1  A    between atoms: C_1  and  C_2
REMARK    2  A    between atoms: N_5  and  C_6
REMARK                            x       y       z     vdW  Elec       q    Type
REMARK                         _______ _______ _______ _____ _____    ______ ____
ROOT
ATOM      1  C   UNL     1      98.113 126.728  82.975  0.00  0.00    +0.000 C 
ATOM      2  C   UNL     1      99.494 127.264  83.125  0.00  0.00    +0.000 C 
ATOM      3  C   UNL     1     100.605 126.698  82.655  0.00  0.00    +0.000 C 
ATOM      4  C   UNL     1     101.726 127.566  83.030  0.00  0.00    +0.000 C 
ATOM      5  N   UNL     1     102.990 127.473  82.818  0.00  0.00    +0.000 NA
ATOM      6  O   UNL     1     101.236 128.630  83.722  0.00  0.00    +0.000 OA
ATOM      7  C   UNL     1      99.803 128.539  83.841  0.00  0.00    +0.000 C 
ATOM      8  C   UNL     1      99.447 128.486  85.335  0.00  0.00    +0.000 C 
ATOM      9  C   UNL     1      99.796 129.790  86.056  0.00  0.00    +0.000 C 
ATOM     10  C   UNL     1      99.163 130.997  85.372  0.00  0.00    +0.000 C 
ATOM     11  C   UNL     1      99.538 131.068  83.894  0.00  0.00    +0.000 C 
ATOM     12  C   UNL     1      99.186 129.771  83.161  0.00  0.00    +0.000 C 
ENDROOT
BRANCH   5  13
ATOM     13  C   UNL     1     103.464 126.367  82.102  0.00  0.00    +0.000 A 
ATOM     14  C   UNL     1     103.760 125.171  82.762  0.00  0.00    +0.000 A 
ATOM     15  C   UNL     1     104.225 124.066  82.047  0.00  0.00    +0.000 A 
ATOM     16  C   UNL     1     104.384 124.148  80.664  0.00  0.00    +0.000 A 
ATOM     17  C   UNL     1     104.071 125.331  79.996  0.00  0.00    +0.000 A 
ATOM     18  C   UNL     1     103.607 126.434  80.714  0.00  0.00    +0.000 A 
ENDBRANCH   5  13
TORSDOF 1
ENDMDL
