MODEL 1
REMARK VINA RESULT:      -4.5      0.000      0.000
REMARK  Name = *****
REMARK  3 active torsions:
REMARK  status: ('A' for Active; 'I' for Inactive)
REMARK    1  A    between atoms: C_4  and  C_7
REMARK    2  A    between atoms: C_7  and  C_8
REMARK    3  A    between atoms: C_8  and  N_9
REMARK                            x       y       z     vdW  Elec       q    Type
REMARK                         _______ _______ _______ _____ _____    ______ ____
ROOT
ATOM      1  N   UNL     1     103.874 124.794  82.256  0.00  0.00    +0.000 N 
ATOM      2  C   UNL     1     104.012 124.855  80.865  0.00  0.00    +0.000 C 
ATOM      3  O   UNL     1     103.136 125.267  80.113  0.00  0.00    +0.000 OA
ATOM      4  C   UNL     1     105.367 124.282  80.436  0.00  0.00    +0.000 C 
ATOM      5  C   UNL     1     106.335 124.650  81.585  0.00  0.00    +0.000 C 
ATOM      6  S   UNL     1     105.312 124.421  83.099  0.00  0.00    +0.000 S 
ATOM      7 CL   UNL     1     107.822 123.670  81.659  0.00  0.00    +0.000 Cl
ATOM      8 CL   UNL     1     106.825 126.396  81.569  0.00  0.00    +0.000 Cl
ATOM      9 CL   UNL     1     105.094 122.495  80.236  0.00  0.00    +0.000 Cl
ATOM     10 CL   UNL     1     105.857 124.917  78.835  0.00  0.00    +0.000 Cl
ENDROOT
BRANCH   1  11
ATOM     11  C   UNL     1     102.724 125.343  82.956  0.00  0.00    +0.000 C 
BRANCH  11  12
ATOM     12  C   UNL     1     102.752 126.874  83.017  0.00  0.00    +0.000 C 
BRANCH  12  16
ATOM     13  C   UNL     1      98.765 128.508  83.024  0.00  0.00    +0.000 A 
ATOM     14  C   UNL     1      99.818 129.239  83.571  0.00  0.00    +0.000 A 
ATOM     15  C   UNL     1     101.111 128.715  83.563  0.00  0.00    +0.000 A 
ATOM     16  C   UNL     1     101.361 127.455  83.005  0.00  0.00    +0.000 A 
ATOM     17  C   UNL     1     100.296 126.725  82.462  0.00  0.00    +0.000 A 
ATOM     18  C   UNL     1      99.003 127.252  82.470  0.00  0.00    +0.000 A 
ENDBRANCH  12  16
ENDBRANCH  11  12
ENDBRANCH   1  11
TORSDOF 3
ENDMDL
