MODEL 1
REMARK VINA RESULT:      -4.8      0.000      0.000
REMARK  Name = *****
REMARK  3 active torsions:
REMARK  status: ('A' for Active; 'I' for Inactive)
REMARK    1  A    between atoms: C_1  and  C_2
REMARK    2  A    between atoms: C_4  and  C_8
REMARK    3  A    between atoms: C_8  and  N_9
REMARK                            x       y       z     vdW  Elec       q    Type
REMARK                         _______ _______ _______ _____ _____    ______ ____
ROOT
ATOM      1  N   UNL     1      88.015  70.742  85.922  0.00  0.00    +0.000 N 
ATOM      2  C   UNL     1      86.813  71.263  86.450  0.00  0.00    +0.000 A 
ATOM      3  C   UNL     1      86.445  71.334  87.786  0.00  0.00    +0.000 A 
ATOM      4  C   UNL     1      85.203  71.891  88.114  0.00  0.00    +0.000 A 
ATOM      5  C   UNL     1      84.348  72.370  87.113  0.00  0.00    +0.000 A 
ATOM      6  C   UNL     1      84.724  72.298  85.770  0.00  0.00    +0.000 A 
ATOM      7  C   UNL     1      85.955  71.743  85.459  0.00  0.00    +0.000 A 
ATOM      8  S   UNL     1      86.663  71.537  83.853  0.00  0.00    +0.000 S 
ATOM      9  C   UNL     1      88.118  70.794  84.540  0.00  0.00    +0.000 A 
ATOM     10  O   UNL     1      89.046  70.401  83.850  0.00  0.00    +0.000 OA
ENDROOT
BRANCH   1  11
ATOM     11  C   UNL     1      89.065  70.159  86.731  0.00  0.00    +0.000 C 
BRANCH  11  15
ATOM     12  C   UNL     1      91.201  65.753  85.484  0.00  0.00    +0.000 C 
ATOM     13  C   UNL     1      90.075  66.516  86.117  0.00  0.00    +0.000 A 
ATOM     14  C   UNL     1      90.082  67.918  86.121  0.00  0.00    +0.000 A 
ATOM     15  C   UNL     1      89.049  68.646  86.734  0.00  0.00    +0.000 A 
ATOM     16  C   UNL     1      88.020  67.944  87.378  0.00  0.00    +0.000 A 
ATOM     17  C   UNL     1      88.013  66.549  87.391  0.00  0.00    +0.000 A 
ATOM     18  C   UNL     1      89.038  65.839  86.767  0.00  0.00    +0.000 A 
ENDBRANCH  11  15
ENDBRANCH   1  11
TORSDOF 2
ENDMDL
