REMARK  Name = *****
REMARK  4 active torsions:
REMARK  status: ('A' for Active; 'I' for Inactive)
REMARK    1  A    between atoms: C_1  and  C_2
REMARK    2  A    between atoms: C_5  and  C_8
REMARK    3  A    between atoms: C_9  and  C_10
REMARK    4  A    between atoms: C_10  and  C_11
REMARK                            x       y       z     vdW  Elec       q    Type
REMARK                         _______ _______ _______ _____ _____    ______ ____
ROOT
ATOM      1  C   UNL     1      -3.258   0.045   0.051  0.00  0.00    +0.000 C 
ATOM      2  C   UNL     1      -4.031   1.138  -0.056  0.00  0.00    +0.000 C 
ENDROOT
BRANCH   1   7
ATOM      3  C   UNL     1       2.529  -0.028  -0.099  0.00  0.00    +0.000 C 
ATOM      4  C   UNL     1       1.030   0.019  -0.085  0.00  0.00    +0.000 A 
ATOM      5  C   UNL     1       0.358   1.052   0.577  0.00  0.00    +0.000 A 
ATOM      6  C   UNL     1      -1.040   1.078   0.617  0.00  0.00    +0.000 A 
ATOM      7  C   UNL     1      -1.790   0.071  -0.002  0.00  0.00    +0.000 A 
ATOM      8  C   UNL     1      -1.115  -0.978  -0.635  0.00  0.00    +0.000 A 
ATOM      9  C   UNL     1       0.283  -1.004  -0.678  0.00  0.00    +0.000 A 
ENDBRANCH   1   7
BRANCH   2  10
ATOM     10  C   UNL     1      -5.533   1.108  -0.004  0.00  0.00    +0.000 C 
BRANCH  10  11
ATOM     11  C   UNL     1      -6.081   1.956   1.120  0.00  0.00    +0.000 A 
ATOM     12  C   UNL     1      -6.601   3.234   0.862  0.00  0.00    +0.000 A 
ATOM     13  C   UNL     1      -7.094   4.019   1.906  0.00  0.00    +0.000 A 
ATOM     14  C   UNL     1      -7.062   3.530   3.206  0.00  0.00    +0.000 A 
ATOM     15  C   UNL     1      -6.544   2.271   3.485  0.00  0.00    +0.000 A 
ATOM     16  C   UNL     1      -6.052   1.484   2.443  0.00  0.00    +0.000 A 
ATOM     17  F   UNL     1      -7.534   4.285   4.207  0.00  0.00    +0.000 F 
ENDBRANCH  10  11
ENDBRANCH   2  10
TORSDOF 3
