MODEL 1
REMARK VINA RESULT:      -4.3      0.000      0.000
REMARK  Name = *****
REMARK  5 active torsions:
REMARK  status: ('A' for Active; 'I' for Inactive)
REMARK    1  A    between atoms: C_2  and  C_3
REMARK    2  A    between atoms: C_3  and  O_4
REMARK    3  A    between atoms: O_4  and  C_5
REMARK    4  A    between atoms: C_5  and  C_14
REMARK    5  A    between atoms: N_6  and  C_7
REMARK                            x       y       z     vdW  Elec       q    Type
REMARK                         _______ _______ _______ _____ _____    ______ ____
ROOT
ATOM      1  C   UNL     1      87.906  64.211  87.669  0.00  0.00    +0.000 C 
ATOM      2  N   UNL     1      87.064  63.335  87.216  0.00  0.00    +0.000 NA
ENDROOT
BRANCH   2   3
ATOM      3  C   UNL     1      86.094  62.749  88.031  0.00  0.00    +0.000 A 
ATOM      4  C   UNL     1      86.442  61.662  88.838  0.00  0.00    +0.000 A 
ATOM      5  C   UNL     1      85.501  61.079  89.689  0.00  0.00    +0.000 A 
ATOM      6  C   UNL     1      84.209  61.597  89.748  0.00  0.00    +0.000 A 
ATOM      7  C   UNL     1      83.855  62.698  88.970  0.00  0.00    +0.000 A 
ATOM      8  C   UNL     1      84.800  63.277  88.120  0.00  0.00    +0.000 A 
ATOM      9 CL   UNL     1      83.046  60.881  90.794  0.00  0.00    +0.000 Cl
ENDBRANCH   2   3
BRANCH   1  10
ATOM     10  C   UNL     1      89.035  64.715  86.841  0.00  0.00    +0.000 A 
ATOM     11  C   UNL     1      89.826  63.860  86.063  0.00  0.00    +0.000 A 
ATOM     12  C   UNL     1      90.875  64.371  85.295  0.00  0.00    +0.000 A 
ATOM     13  C   UNL     1      91.139  65.740  85.296  0.00  0.00    +0.000 A 
ATOM     14  C   UNL     1      90.353  66.601  86.061  0.00  0.00    +0.000 A 
ATOM     15  C   UNL     1      89.303  66.092  86.828  0.00  0.00    +0.000 A 
ENDBRANCH   1  10
BRANCH   1  16
ATOM     16  O   UNL     1      87.919  64.784  88.900  0.00  0.00    +0.000 OA
BRANCH  16  17
ATOM     17  C   UNL     1      88.721  64.133  89.897  0.00  0.00    +0.000 C 
BRANCH  17  19
ATOM     18  C   UNL     1      86.706  64.231  91.457  0.00  0.00    +0.000 C 
ATOM     19  C   UNL     1      88.020  64.102  91.227  0.00  0.00    +0.000 C 
ENDBRANCH  17  19
ENDBRANCH  16  17
ENDBRANCH   1  16
TORSDOF 5
ENDMDL
