MODEL 1
REMARK VINA RESULT:      -4.6      0.000      0.000
REMARK  Name = *****
REMARK  5 active torsions:
REMARK  status: ('A' for Active; 'I' for Inactive)
REMARK    1  A    between atoms: C_1  and  C_2
REMARK    2  A    between atoms: C_4  and  C_9
REMARK    3  A    between atoms: C_9  and  O_11
REMARK    4  A    between atoms: O_11  and  C_12
REMARK    5  A    between atoms: C_12  and  C_13
REMARK                            x       y       z     vdW  Elec       q    Type
REMARK                         _______ _______ _______ _____ _____    ______ ____
ROOT
ATOM      1  C   UNL     1     102.963 127.551  83.173  0.00  0.00    +0.000 C 
ATOM      2  O   UNL     1     103.454 126.748  83.947  0.00  0.00    +0.000 OA
ENDROOT
BRANCH   1   6
ATOM      3  C   UNL     1      99.210 130.696  84.188  0.00  0.00    +0.000 C 
ATOM      4  C   UNL     1      99.700 129.401  83.612  0.00  0.00    +0.000 A 
ATOM      5  C   UNL     1     101.067 129.092  83.643  0.00  0.00    +0.000 A 
ATOM      6  C   UNL     1     101.538 127.883  83.134  0.00  0.00    +0.000 A 
ATOM      7  C   UNL     1     100.636 126.965  82.612  0.00  0.00    +0.000 A 
ATOM      8  C   UNL     1      99.273 127.248  82.584  0.00  0.00    +0.000 A 
ATOM      9  C   UNL     1      98.802 128.463  83.086  0.00  0.00    +0.000 A 
ATOM     10  F   UNL     1     101.056 125.798  82.101  0.00  0.00    +0.000 F 
ATOM     11  F   UNL     1     101.916 129.973  84.194  0.00  0.00    +0.000 F 
ENDBRANCH   1   6
BRANCH   1  12
ATOM     12  O   UNL     1     103.593 128.228  82.183  0.00  0.00    +0.000 OA
BRANCH  12  13
ATOM     13  C   UNL     1     103.595 127.614  80.884  0.00  0.00    +0.000 C 
BRANCH  13  14
ATOM     14  C   UNL     1     104.513 126.383  80.891  0.00  0.00    +0.000 C 
ATOM     15  C   UNL     1     105.781 126.614  80.051  0.00  0.00    +0.000 C 
ATOM     16  C   UNL     1     106.663 125.368  80.001  0.00  0.00    +0.000 C 
ATOM     17  C   UNL     1     105.890 124.148  79.513  0.00  0.00    +0.000 C 
ATOM     18  C   UNL     1     104.637 123.909  80.350  0.00  0.00    +0.000 C 
ATOM     19  C   UNL     1     103.748 125.148  80.395  0.00  0.00    +0.000 C 
ENDBRANCH  13  14
ENDBRANCH  12  13
ENDBRANCH   1  12
TORSDOF 4
ENDMDL
