MODEL 1
REMARK VINA RESULT:      -5.0      0.000      0.000
REMARK  Name = *****
REMARK  2 active torsions:
REMARK  status: ('A' for Active; 'I' for Inactive)
REMARK    1  A    between atoms: C_1  and  C_2
REMARK    2  A    between atoms: C_4  and  C_8
REMARK                            x       y       z     vdW  Elec       q    Type
REMARK                         _______ _______ _______ _____ _____    ______ ____
ROOT
ATOM      1  C   UNL     1     102.792 126.094  81.785  0.00  0.00    +0.000 A 
ATOM      2  N   UNL     1     103.427 126.259  80.637  0.00  0.00    +0.000 NA
ATOM      3  C   UNL     1     104.226 125.150  80.541  0.00  0.00    +0.000 A 
ATOM      4  C   UNL     1     104.043 124.340  81.649  0.00  0.00    +0.000 A 
ATOM      5  O   UNL     1     103.122 124.941  82.456  0.00  0.00    +0.000 OA
ATOM      6  C   UNL     1     104.698 123.136  81.872  0.00  0.00    +0.000 A 
ATOM      7  C   UNL     1     105.599 122.754  80.872  0.00  0.00    +0.000 A 
ATOM      8  C   UNL     1     105.818 123.540  79.733  0.00  0.00    +0.000 A 
ATOM      9  C   UNL     1     105.135 124.753  79.551  0.00  0.00    +0.000 A 
ATOM     10 CL   UNL     1     106.463 121.274  81.049  0.00  0.00    +0.000 Cl
ENDROOT
BRANCH   1  14
ATOM     11  C   UNL     1      98.004 127.041  82.870  0.00  0.00    +0.000 C 
ATOM     12  C   UNL     1      99.454 127.412  82.955  0.00  0.00    +0.000 A 
ATOM     13  C   UNL     1     100.438 126.612  82.355  0.00  0.00    +0.000 A 
ATOM     14  C   UNL     1     101.798 126.959  82.417  0.00  0.00    +0.000 A 
ATOM     15  C   UNL     1     102.158 128.136  83.089  0.00  0.00    +0.000 A 
ATOM     16  C   UNL     1     101.185 128.944  83.682  0.00  0.00    +0.000 A 
ATOM     17  C   UNL     1      99.839 128.585  83.613  0.00  0.00    +0.000 A 
ENDBRANCH   1  14
TORSDOF 1
ENDMDL
