MODEL 1
REMARK VINA RESULT:      -4.9      0.000      0.000
REMARK  Name = *****
REMARK  2 active torsions:
REMARK  status: ('A' for Active; 'I' for Inactive)
REMARK    1  A    between atoms: C_5  and  C_8
REMARK    2  A    between atoms: C_9  and  C_10
REMARK                            x       y       z     vdW  Elec       q    Type
REMARK                         _______ _______ _______ _____ _____    ______ ____
ROOT
ATOM      1  C   UNL     1      89.681  68.988  86.555  0.00  0.00    +0.000 C 
ATOM      2  C   UNL     1      89.865  67.816  86.356  0.00  0.00    +0.000 C 
ENDROOT
BRANCH   1   7
ATOM      3  C   UNL     1      86.395  71.308  86.280  0.00  0.00    +0.000 C 
ATOM      4  C   UNL     1      86.404  71.092  87.597  0.00  0.00    +0.000 C 
ATOM      5  C   UNL     1      87.535  70.920  88.468  0.00  0.00    +0.000 C 
ATOM      6  C   UNL     1      88.793  70.607  88.133  0.00  0.00    +0.000 C 
ATOM      7  C   UNL     1      89.441  70.422  86.790  0.00  0.00    +0.000 C 
ATOM      8  C   UNL     1      88.776  71.022  85.585  0.00  0.00    +0.000 C 
ATOM      9  C   UNL     1      87.514  71.423  85.384  0.00  0.00    +0.000 C 
ENDBRANCH   1   7
BRANCH   2  10
ATOM     10  C   UNL     1      90.080  66.423  86.122  0.00  0.00    +0.000 A 
ATOM     11  C   UNL     1      89.157  65.484  86.588  0.00  0.00    +0.000 A 
ATOM     12  C   UNL     1      89.364  64.123  86.355  0.00  0.00    +0.000 A 
ATOM     13  C   UNL     1      90.494  63.700  85.655  0.00  0.00    +0.000 A 
ATOM     14  C   UNL     1      91.418  64.635  85.188  0.00  0.00    +0.000 A 
ATOM     15  C   UNL     1      91.211  65.996  85.422  0.00  0.00    +0.000 A 
ENDBRANCH   2  10
TORSDOF 2
ENDMDL
