MODEL 1
REMARK VINA RESULT:      -5.3      0.000      0.000
REMARK  Name = *****
REMARK  1 active torsions:
REMARK  status: ('A' for Active; 'I' for Inactive)
REMARK    1  A    between atoms: C_4  and  C_13
REMARK                            x       y       z     vdW  Elec       q    Type
REMARK                         _______ _______ _______ _____ _____    ______ ____
ROOT
ATOM      1  C   UNL     1     103.031 129.308  84.028  0.00  0.00    +0.000 C 
ATOM      2  C   UNL     1     103.824 128.932  83.014  0.00  0.00    +0.000 C 
ATOM      3  C   UNL     1     103.967 127.579  82.494  0.00  0.00    +0.000 C 
ATOM      4  C   UNL     1     103.113 126.563  82.232  0.00  0.00    +0.000 C 
ATOM      5  N   UNL     1     101.748 126.409  82.261  0.00  0.00    +0.000 NA
ATOM      6  C   UNL     1     100.845 127.106  82.870  0.00  0.00    +0.000 A 
ATOM      7  C   UNL     1      99.423 126.783  82.523  0.00  0.00    +0.000 A 
ATOM      8  C   UNL     1      98.484 127.738  82.603  0.00  0.00    +0.000 A 
ATOM      9  C   UNL     1      98.803 129.084  83.030  0.00  0.00    +0.000 A 
ATOM     10  C   UNL     1      99.986 129.358  83.602  0.00  0.00    +0.000 A 
ATOM     11  C   UNL     1     100.945 128.285  83.792  0.00  0.00    +0.000 A 
ATOM     12  C   UNL     1     102.055 128.367  84.542  0.00  0.00    +0.000 C 
ENDROOT
BRANCH   4  13
ATOM     13  C   UNL     1     103.798 125.358  81.689  0.00  0.00    +0.000 A 
ATOM     14  C   UNL     1     103.983 124.222  82.491  0.00  0.00    +0.000 A 
ATOM     15  C   UNL     1     104.631 123.098  81.975  0.00  0.00    +0.000 A 
ATOM     16  C   UNL     1     105.088 123.113  80.662  0.00  0.00    +0.000 A 
ATOM     17  C   UNL     1     104.907 124.227  79.850  0.00  0.00    +0.000 A 
ATOM     18  C   UNL     1     104.258 125.351  80.363  0.00  0.00    +0.000 A 
ATOM     19  F   UNL     1     105.710 122.033  80.169  0.00  0.00    +0.000 F 
ENDBRANCH   4  13
TORSDOF 1
ENDMDL
