MODEL 1
REMARK VINA RESULT:      -4.9      0.000      0.000
REMARK  Name = *****
REMARK  3 active torsions:
REMARK  status: ('A' for Active; 'I' for Inactive)
REMARK    1  A    between atoms: C_1  and  C_2
REMARK    2  A    between atoms: C_4  and  C_9
REMARK    3  A    between atoms: N_10  and  C_11
REMARK                            x       y       z     vdW  Elec       q    Type
REMARK                         _______ _______ _______ _____ _____    ______ ____
ROOT
ATOM      1  C   UNL     1     101.648 126.260  82.639  0.00  0.00    +0.000 C 
ATOM      2  N   UNL     1     102.695 126.391  81.873  0.00  0.00    +0.000 NA
ENDROOT
BRANCH   1   6
ATOM      3  C   UNL     1     101.089 130.793  84.656  0.00  0.00    +0.000 C 
ATOM      4  C   UNL     1     100.496 129.602  83.974  0.00  0.00    +0.000 C 
ATOM      5  C   UNL     1     101.288 128.506  83.632  0.00  0.00    +0.000 C 
ATOM      6  C   UNL     1     100.737 127.394  82.959  0.00  0.00    +0.000 C 
ATOM      7  C   UNL     1      99.369 127.326  82.579  0.00  0.00    +0.000 C 
ATOM      8  C   UNL     1      98.619 128.467  82.935  0.00  0.00    +0.000 C 
ATOM      9  C   UNL     1      99.153 129.578  83.606  0.00  0.00    +0.000 C 
ATOM     10  O   UNL     1      98.820 126.346  81.966  0.00  0.00    +0.000 OA
ENDBRANCH   1   6
BRANCH   2  11
ATOM     11  C   UNL     1     103.444 125.228  81.660  0.00  0.00    +0.000 A 
ATOM     12  C   UNL     1     103.973 124.929  80.400  0.00  0.00    +0.000 A 
ATOM     13  C   UNL     1     104.745 123.780  80.209  0.00  0.00    +0.000 A 
ATOM     14  C   UNL     1     104.997 122.934  81.287  0.00  0.00    +0.000 A 
ATOM     15  C   UNL     1     104.487 123.227  82.551  0.00  0.00    +0.000 A 
ATOM     16  C   UNL     1     103.715 124.376  82.734  0.00  0.00    +0.000 A 
ATOM     17 CL   UNL     1     105.954 121.521  81.059  0.00  0.00    +0.000 Cl
ENDBRANCH   2  11
TORSDOF 2
ENDMDL
