MODEL 1
REMARK VINA RESULT:      -4.3      0.000      0.000
REMARK  Name = *****
REMARK  4 active torsions:
REMARK  status: ('A' for Active; 'I' for Inactive)
REMARK    1  A    between atoms: C_4  and  C_7
REMARK    2  A    between atoms: C_7  and  C_8
REMARK    3  A    between atoms: C_8  and  C_9
REMARK    4  A    between atoms: C_14  and  C_15
REMARK                            x       y       z     vdW  Elec       q    Type
REMARK                         _______ _______ _______ _____ _____    ______ ____
ROOT
ATOM      1  C   UNL     1     100.938 128.397  84.402  0.00  0.00    +0.000 A 
ATOM      2  C   UNL     1     101.272 129.667  84.907  0.00  0.00    +0.000 A 
ATOM      3  C   UNL     1     100.546 130.800  84.541  0.00  0.00    +0.000 A 
ATOM      4  C   UNL     1      99.476 130.681  83.660  0.00  0.00    +0.000 A 
ATOM      5  C   UNL     1      99.135 129.431  83.146  0.00  0.00    +0.000 A 
ATOM      6  C   UNL     1      99.856 128.276  83.502  0.00  0.00    +0.000 A 
ENDROOT
BRANCH   6   7
ATOM      7  C   UNL     1      99.444 126.946  82.913  0.00  0.00    +0.000 C 
ATOM      8  F   UNL     1      98.225 126.992  82.309  0.00  0.00    +0.000 F 
ATOM      9  F   UNL     1     100.304 126.482  81.959  0.00  0.00    +0.000 F 
ENDBRANCH   6   7
BRANCH   1  10
ATOM     10  C   UNL     1     101.786 127.215  84.829  0.00  0.00    +0.000 C 
BRANCH  10  11
ATOM     11  C   UNL     1     103.203 127.291  84.242  0.00  0.00    +0.000 C 
BRANCH  11  15
ATOM     12  C   UNL     1     103.635 125.995  80.136  0.00  0.00    +0.000 A 
ATOM     13  C   UNL     1     103.534 127.357  80.411  0.00  0.00    +0.000 A 
ATOM     14  C   UNL     1     103.399 127.802  81.729  0.00  0.00    +0.000 A 
ATOM     15  C   UNL     1     103.365 126.889  82.792  0.00  0.00    +0.000 A 
ATOM     16  C   UNL     1     103.466 125.519  82.496  0.00  0.00    +0.000 A 
ATOM     17  C   UNL     1     103.601 125.075  81.179  0.00  0.00    +0.000 A 
ENDBRANCH  11  15
ENDBRANCH  10  11
ENDBRANCH   1  10
TORSDOF 4
ENDMDL
