MODEL 1
REMARK VINA RESULT:      -5.3      0.000      0.000
REMARK  Name = *****
REMARK  2 active torsions:
REMARK  status: ('A' for Active; 'I' for Inactive)
REMARK    1  A    between atoms: C_9  and  C_10
REMARK    2  A    between atoms: C_15  and  C_16
REMARK                            x       y       z     vdW  Elec       q    Type
REMARK                         _______ _______ _______ _____ _____    ______ ____
ROOT
ATOM      1  C   UNL     1     101.193 127.103  82.698  0.00  0.00    +0.000 A 
ATOM      2  C   UNL     1      99.860 126.738  82.440  0.00  0.00    +0.000 A 
ATOM      3  C   UNL     1      98.806 127.592  82.766  0.00  0.00    +0.000 A 
ATOM      4  C   UNL     1      99.070 128.823  83.354  0.00  0.00    +0.000 A 
ATOM      5  C   UNL     1     100.387 129.201  83.612  0.00  0.00    +0.000 A 
ATOM      6  C   UNL     1     101.465 128.354  83.284  0.00  0.00    +0.000 A 
ENDROOT
BRANCH   1  15
ATOM      7  C   UNL     1     102.797 126.063  80.934  0.00  0.00    +0.000 C 
ATOM      8  C   UNL     1     103.778 124.940  81.086  0.00  0.00    +0.000 A 
ATOM      9  C   UNL     1     104.623 124.385  80.141  0.00  0.00    +0.000 A 
ATOM     10  C   UNL     1     105.452 123.332  80.539  0.00  0.00    +0.000 A 
ATOM     11  C   UNL     1     105.423 122.856  81.861  0.00  0.00    +0.000 A 
ATOM     12  C   UNL     1     104.564 123.425  82.807  0.00  0.00    +0.000 A 
ATOM     13  C   UNL     1     103.749 124.466  82.405  0.00  0.00    +0.000 A 
ATOM     14  C   UNL     1     102.775 125.229  83.168  0.00  0.00    +0.000 C 
ATOM     15  C   UNL     1     102.239 126.145  82.341  0.00  0.00    +0.000 C 
ENDBRANCH   1  15
BRANCH   6  16
ATOM     16  C   UNL     1     102.875 128.820  83.565  0.00  0.00    +0.000 C 
ATOM     17  F   UNL     1     103.685 128.801  82.470  0.00  0.00    +0.000 F 
ATOM     18  F   UNL     1     102.928 130.109  84.019  0.00  0.00    +0.000 F 
ATOM     19  F   UNL     1     103.501 128.080  84.524  0.00  0.00    +0.000 F 
ENDBRANCH   6  16
TORSDOF 2
ENDMDL
