MODEL 1
REMARK VINA RESULT:      -4.5      0.000      0.000
REMARK  Name = *****
REMARK  5 active torsions:
REMARK  status: ('A' for Active; 'I' for Inactive)
REMARK    1  A    between atoms: C_1  and  C_2
REMARK    2  A    between atoms: C_7  and  C_8
REMARK    3  A    between atoms: C_8  and  C_9
REMARK    4  A    between atoms: C_9  and  C_10
REMARK    5  A    between atoms: C_10  and  C_12
REMARK                            x       y       z     vdW  Elec       q    Type
REMARK                         _______ _______ _______ _____ _____    ______ ____
ROOT
ATOM      1  C   UNL     1      99.891 126.659  82.315  0.00  0.00    +0.000 C 
ENDROOT
BRANCH   1   2
ATOM      2  C   UNL     1      98.661 127.344  82.879  0.00  0.00    +0.000 C 
ATOM      3  O   UNL     1      97.525 126.927  82.656  0.00  0.00    +0.000 OA
BRANCH   2   4
ATOM      4  C   UNL     1      98.820 128.558  83.733  0.00  0.00    +0.000 A 
ATOM      5  C   UNL     1      99.279 129.739  83.127  0.00  0.00    +0.000 A 
ATOM      6  C   UNL     1      99.443 130.907  83.878  0.00  0.00    +0.000 A 
ATOM      7  C   UNL     1      99.153 130.908  85.240  0.00  0.00    +0.000 A 
ATOM      8  C   UNL     1      98.699 129.740  85.851  0.00  0.00    +0.000 A 
ATOM      9  C   UNL     1      98.536 128.576  85.099  0.00  0.00    +0.000 A 
ATOM     10  F   UNL     1      98.106 127.482  85.742  0.00  0.00    +0.000 F 
ENDBRANCH   2   4
ENDBRANCH   1   2
BRANCH   1  11
ATOM     11  C   UNL     1     101.038 126.636  83.327  0.00  0.00    +0.000 C 
BRANCH  11  18
ATOM     12  C   UNL     1     102.346 128.775  85.012  0.00  0.00    +0.000 C 
ATOM     13  C   UNL     1     102.849 128.426  83.637  0.00  0.00    +0.000 A 
ATOM     14  C   UNL     1     103.953 129.123  83.122  0.00  0.00    +0.000 A 
ATOM     15  C   UNL     1     104.447 128.844  81.848  0.00  0.00    +0.000 A 
ATOM     16  C   UNL     1     103.840 127.867  81.068  0.00  0.00    +0.000 A 
ATOM     17  C   UNL     1     102.738 127.169  81.561  0.00  0.00    +0.000 A 
ATOM     18  C   UNL     1     102.225 127.441  82.842  0.00  0.00    +0.000 A 
ENDBRANCH  11  18
ENDBRANCH   1  11
TORSDOF 4
ENDMDL
