MODEL 1
REMARK VINA RESULT:      -5.1      0.000      0.000
REMARK  Name = *****
REMARK  2 active torsions:
REMARK  status: ('A' for Active; 'I' for Inactive)
REMARK    1  A    between atoms: C_1  and  C_2
REMARK    2  A    between atoms: C_4  and  C_8
REMARK                            x       y       z     vdW  Elec       q    Type
REMARK                         _______ _______ _______ _____ _____    ______ ____
ROOT
ATOM      1  C   UNL     1     102.091 126.010  82.547  0.00  0.00    +0.000 A 
ATOM      2  N   UNL     1     102.646 125.155  83.389  0.00  0.00    +0.000 NA
ATOM      3  C   UNL     1     103.569 124.489  82.623  0.00  0.00    +0.000 A 
ATOM      4  C   UNL     1     103.539 124.977  81.327  0.00  0.00    +0.000 A 
ATOM      5  O   UNL     1     102.592 125.955  81.269  0.00  0.00    +0.000 OA
ATOM      6  C   UNL     1     104.346 124.524  80.291  0.00  0.00    +0.000 A 
ATOM      7  C   UNL     1     105.238 123.496  80.625  0.00  0.00    +0.000 A 
ATOM      8  C   UNL     1     105.293 122.980  81.927  0.00  0.00    +0.000 A 
ATOM      9  C   UNL     1     104.464 123.463  82.947  0.00  0.00    +0.000 A 
ATOM     10 CL   UNL     1     106.407 121.715  82.283  0.00  0.00    +0.000 Cl
ENDROOT
BRANCH   1  14
ATOM     11  C   UNL     1     100.513 130.436  84.355  0.00  0.00    +0.000 C 
ATOM     12  C   UNL     1     100.243 129.130  83.668  0.00  0.00    +0.000 A 
ATOM     13  C   UNL     1     101.276 128.206  83.445  0.00  0.00    +0.000 A 
ATOM     14  C   UNL     1     101.029 126.984  82.795  0.00  0.00    +0.000 A 
ATOM     15  C   UNL     1      99.722 126.704  82.373  0.00  0.00    +0.000 A 
ATOM     16  C   UNL     1      98.688 127.616  82.590  0.00  0.00    +0.000 A 
ATOM     17  C   UNL     1      98.949 128.824  83.234  0.00  0.00    +0.000 A 
ENDBRANCH   1  14
TORSDOF 1
ENDMDL
