REMARK  Name = *****
REMARK  6 active torsions:
REMARK  status: ('A' for Active; 'I' for Inactive)
REMARK    1  A    between atoms: C_1  and  C_2
REMARK    2  A    between atoms: C_6  and  C_17
REMARK    3  A    between atoms: C_6  and  C_18
REMARK    4  A    between atoms: C_7  and  C_8
REMARK    5  A    between atoms: C_8  and  S_10
REMARK    6  A    between atoms: S_10  and  C_11
REMARK                            x       y       z     vdW  Elec       q    Type
REMARK                         _______ _______ _______ _____ _____    ______ ____
ROOT
ATOM      1  C   UNL     1      -2.988   0.566   0.097  0.00  0.00    +0.000 C 
ATOM      2  C   UNL     1      -1.565   0.082   0.173  0.00  0.00    +0.000 C 
ATOM      3  C   UNL     1      -1.274  -1.226   0.048  0.00  0.00    +0.000 C 
ATOM      4  C   UNL     1       0.114  -1.793   0.080  0.00  0.00    +0.000 C 
ATOM      5  C   UNL     1       1.192  -0.786   0.483  0.00  0.00    +0.000 C 
ATOM      6  C   UNL     1       0.940   0.637  -0.069  0.00  0.00    +0.000 C 
ATOM      7  C   UNL     1      -0.482   1.144   0.359  0.00  0.00    +0.000 C 
ATOM      8  C   UNL     1       1.031   0.618  -1.617  0.00  0.00    +0.000 C 
ATOM      9  C   UNL     1       2.063   1.572   0.424  0.00  0.00    +0.000 C 
ENDROOT
BRANCH   7  10
ATOM     10  C   UNL     1      -0.539   1.628   1.821  0.00  0.00    +0.000 C 
ATOM     11  O   UNL     1      -0.141   0.991   2.789  0.00  0.00    +0.000 OA
BRANCH  10  12
ATOM     12  S   UNL     1      -1.319   3.203   2.052  0.00  0.00    +0.000 S 
BRANCH  12  13
ATOM     13  C   UNL     1       0.106   4.268   2.007  0.00  0.00    +0.000 A 
ATOM     14  C   UNL     1       0.199   5.248   1.014  0.00  0.00    +0.000 A 
ATOM     15  C   UNL     1       1.311   6.092   0.959  0.00  0.00    +0.000 A 
ATOM     16  C   UNL     1       2.330   5.964   1.901  0.00  0.00    +0.000 A 
ATOM     17  C   UNL     1       2.237   4.999   2.902  0.00  0.00    +0.000 A 
ATOM     18  C   UNL     1       1.125   4.156   2.958  0.00  0.00    +0.000 A 
ENDBRANCH  12  13
ENDBRANCH  10  12
ENDBRANCH   7  10
TORSDOF 3
