MODEL 1
REMARK VINA RESULT:      -4.3      0.000      0.000
REMARK  Name = *****
REMARK  5 active torsions:
REMARK  status: ('A' for Active; 'I' for Inactive)
REMARK    1  A    between atoms: C_4  and  C_7
REMARK    2  A    between atoms: C_7  and  S_8
REMARK    3  A    between atoms: S_8  and  C_9
REMARK    4  A    between atoms: C_9  and  C_10
REMARK    5  A    between atoms: C_10  and  C_11
REMARK                            x       y       z     vdW  Elec       q    Type
REMARK                         _______ _______ _______ _____ _____    ______ ____
ROOT
ATOM      1  C   UNL     1     104.611 126.283  81.624  0.00  0.00    +0.000 C 
ATOM      2  F   UNL     1     105.750 126.430  80.896  0.00  0.00    +0.000 F 
ATOM      3  F   UNL     1     105.007 126.198  82.922  0.00  0.00    +0.000 F 
ENDROOT
BRANCH   1   4
ATOM      4  C   UNL     1     103.864 125.026  81.206  0.00  0.00    +0.000 C 
ATOM      5  F   UNL     1     103.189 124.484  82.262  0.00  0.00    +0.000 F 
ATOM      6  F   UNL     1     102.918 125.312  80.263  0.00  0.00    +0.000 F 
BRANCH   4   7
ATOM      7  C   UNL     1     104.865 124.033  80.660  0.00  0.00    +0.000 C 
ATOM      8  F   UNL     1     104.372 122.774  80.606  0.00  0.00    +0.000 F 
ATOM      9  F   UNL     1     105.283 124.349  79.411  0.00  0.00    +0.000 F 
ATOM     10  F   UNL     1     105.978 123.979  81.436  0.00  0.00    +0.000 F 
ENDBRANCH   4   7
ENDBRANCH   1   4
BRANCH   1  11
ATOM     11  S   UNL     1     103.624 127.808  81.437  0.00  0.00    +0.000 S 
BRANCH  11  12
ATOM     12  C   UNL     1     102.898 127.822  83.099  0.00  0.00    +0.000 C 
BRANCH  12  16
ATOM     13  C   UNL     1      98.588 127.839  82.910  0.00  0.00    +0.000 A 
ATOM     14  C   UNL     1      99.305 126.775  82.368  0.00  0.00    +0.000 A 
ATOM     15  C   UNL     1     100.700 126.767  82.430  0.00  0.00    +0.000 A 
ATOM     16  C   UNL     1     101.391 127.824  83.041  0.00  0.00    +0.000 A 
ATOM     17  C   UNL     1     100.658 128.895  83.574  0.00  0.00    +0.000 A 
ATOM     18  C   UNL     1      99.264 128.901  83.511  0.00  0.00    +0.000 A 
ENDBRANCH  12  16
ENDBRANCH  11  12
ENDBRANCH   1  11
TORSDOF 5
ENDMDL
