MODEL 1
REMARK VINA RESULT:      -3.8      0.000      0.000
REMARK  Name = *****
REMARK  4 active torsions:
REMARK  status: ('A' for Active; 'I' for Inactive)
REMARK    1  A    between atoms: C_4  and  C_7
REMARK    2  A    between atoms: C_8  and  C_9
REMARK    3  A    between atoms: C_10  and  C_11
REMARK    4  A    between atoms: C_11  and  C_12
REMARK                            x       y       z     vdW  Elec       q    Type
REMARK                         _______ _______ _______ _____ _____    ______ ____
ROOT
ATOM      1  C   UNL     1     102.527 126.578  82.870  0.00  0.00    +0.000 C 
ATOM      2  C   UNL     1     102.662 125.398  82.240  0.00  0.00    +0.000 C 
ENDROOT
BRANCH   1   6
ATOM      3  C   UNL     1      98.855 128.751  83.133  0.00  0.00    +0.000 A 
ATOM      4  C   UNL     1      98.863 127.485  82.552  0.00  0.00    +0.000 A 
ATOM      5  C   UNL     1     100.058 126.768  82.455  0.00  0.00    +0.000 A 
ATOM      6  C   UNL     1     101.256 127.315  82.930  0.00  0.00    +0.000 A 
ATOM      7  C   UNL     1     101.233 128.581  83.528  0.00  0.00    +0.000 A 
ATOM      8  C   UNL     1     100.038 129.299  83.624  0.00  0.00    +0.000 A 
ENDBRANCH   1   6
BRANCH   2   9
ATOM      9  C   UNL     1     103.874 124.605  82.139  0.00  0.00    +0.000 C 
ATOM     10  C   UNL     1     104.775 124.703  81.145  0.00  0.00    +0.000 C 
ATOM     11 CL   UNL     1     104.176 123.386  83.350  0.00  0.00    +0.000 Cl
BRANCH  10  12
ATOM     12  C   UNL     1     104.790 125.667  79.985  0.00  0.00    +0.000 C 
BRANCH  12  13
ATOM     13  C   UNL     1     105.414 127.017  80.330  0.00  0.00    +0.000 C 
ATOM     14 CL   UNL     1     104.219 128.335  80.253  0.00  0.00    +0.000 Cl
ENDBRANCH  12  13
ENDBRANCH  10  12
ENDBRANCH   2   9
TORSDOF 4
ENDMDL
