MODEL 1
REMARK VINA RESULT:      -4.6      0.000      0.000
REMARK  Name = *****
REMARK  3 active torsions:
REMARK  status: ('A' for Active; 'I' for Inactive)
REMARK    1  A    between atoms: C_4  and  C_7
REMARK    2  A    between atoms: C_8  and  C_9
REMARK    3  A    between atoms: C_14  and  C_15
REMARK                            x       y       z     vdW  Elec       q    Type
REMARK                         _______ _______ _______ _____ _____    ______ ____
ROOT
ATOM      1  C   UNL     1     102.988 125.638  81.451  0.00  0.00    +0.000 C 
ATOM      2  C   UNL     1     102.122 126.302  81.952  0.00  0.00    +0.000 C 
ENDROOT
BRANCH   1   6
ATOM      3  C   UNL     1     106.059 123.343  79.681  0.00  0.00    +0.000 A 
ATOM      4  C   UNL     1     105.315 122.817  80.736  0.00  0.00    +0.000 A 
ATOM      5  C   UNL     1     104.300 123.576  81.322  0.00  0.00    +0.000 A 
ATOM      6  C   UNL     1     104.029 124.862  80.851  0.00  0.00    +0.000 A 
ATOM      7  C   UNL     1     104.775 125.389  79.795  0.00  0.00    +0.000 A 
ATOM      8  C   UNL     1     105.791 124.629  79.210  0.00  0.00    +0.000 A 
ENDBRANCH   1   6
BRANCH   2   9
ATOM      9  C   UNL     1     101.096 127.111  82.543  0.00  0.00    +0.000 A 
ATOM     10  C   UNL     1      99.761 126.736  82.345  0.00  0.00    +0.000 A 
ATOM     11  C   UNL     1      98.725 127.496  82.888  0.00  0.00    +0.000 A 
ATOM     12  C   UNL     1      99.018 128.636  83.631  0.00  0.00    +0.000 A 
ATOM     13  C   UNL     1     100.346 129.016  83.833  0.00  0.00    +0.000 A 
ATOM     14  C   UNL     1     101.404 128.257  83.299  0.00  0.00    +0.000 A 
BRANCH  14  15
ATOM     15  C   UNL     1     102.817 128.707  83.538  0.00  0.00    +0.000 C 
ATOM     16 BR   UNL     1     103.498 127.895  85.168  0.00  0.00    +0.000 Br
ENDBRANCH  14  15
ENDBRANCH   2   9
TORSDOF 3
ENDMDL
