MODEL 1
REMARK VINA RESULT:      -4.9      0.000      0.000
REMARK  Name = *****
REMARK  5 active torsions:
REMARK  status: ('A' for Active; 'I' for Inactive)
REMARK    1  A    between atoms: C_1  and  C_2
REMARK    2  A    between atoms: C_5  and  C_8
REMARK    3  A    between atoms: C_8  and  O_9
REMARK    4  A    between atoms: O_9  and  C_10
REMARK    5  A    between atoms: C_14  and  C_16
REMARK                            x       y       z     vdW  Elec       q    Type
REMARK                         _______ _______ _______ _____ _____    ______ ____
ROOT
ATOM      1  O   UNL     1      89.203  70.960  87.695  0.00  0.00    +0.000 OA
ENDROOT
BRANCH   1   2
ATOM      2  C   UNL     1      89.481  70.207  86.589  0.00  0.00    +0.000 A 
ATOM      3  C   UNL     1      89.602  70.679  85.284  0.00  0.00    +0.000 A 
ATOM      4  C   UNL     1      89.889  69.794  84.241  0.00  0.00    +0.000 A 
ATOM      5  C   UNL     1      90.059  68.431  84.498  0.00  0.00    +0.000 A 
ATOM      6  C   UNL     1      89.940  67.943  85.804  0.00  0.00    +0.000 A 
ATOM      7  C   UNL     1      89.650  68.842  86.843  0.00  0.00    +0.000 A 
BRANCH   6   8
ATOM      8  C   UNL     1      90.114  66.490  86.132  0.00  0.00    +0.000 C 
ATOM      9  O   UNL     1      89.318  65.987  86.923  0.00  0.00    +0.000 OA
ATOM     10 CL   UNL     1      91.418  65.580  85.392  0.00  0.00    +0.000 Cl
ENDBRANCH   6   8
ENDBRANCH   1   2
BRANCH   1  11
ATOM     11  C   UNL     1      88.234  70.449  88.611  0.00  0.00    +0.000 C 
BRANCH  11  16
ATOM     12  C   UNL     1      83.129  73.066  87.560  0.00  0.00    +0.000 C 
ATOM     13  C   UNL     1      84.424  72.362  87.834  0.00  0.00    +0.000 A 
ATOM     14  C   UNL     1      84.873  72.184  89.146  0.00  0.00    +0.000 A 
ATOM     15  C   UNL     1      86.094  71.555  89.400  0.00  0.00    +0.000 A 
ATOM     16  C   UNL     1      86.892  71.092  88.345  0.00  0.00    +0.000 A 
ATOM     17  C   UNL     1      86.454  71.296  87.030  0.00  0.00    +0.000 A 
ATOM     18  C   UNL     1      85.232  71.926  86.777  0.00  0.00    +0.000 A 
ENDBRANCH  11  16
ENDBRANCH   1  11
TORSDOF 4
ENDMDL
