MODEL 1
REMARK VINA RESULT:      -4.5      0.000      0.000
REMARK  Name = *****
REMARK  5 active torsions:
REMARK  status: ('A' for Active; 'I' for Inactive)
REMARK    1  A    between atoms: C_1  and  C_2
REMARK    2  A    between atoms: C_2  and  O_3
REMARK    3  A    between atoms: O_3  and  C_4
REMARK    4  A    between atoms: C_9  and  C_10
REMARK    5  A    between atoms: C_11  and  C_12
REMARK                            x       y       z     vdW  Elec       q    Type
REMARK                         _______ _______ _______ _____ _____    ______ ____
ROOT
ATOM      1  C   UNL     1     101.427 128.039  83.591  0.00  0.00    +0.000 A 
ATOM      2  C   UNL     1     100.398 128.956  83.836  0.00  0.00    +0.000 A 
ATOM      3  C   UNL     1      99.111 128.730  83.337  0.00  0.00    +0.000 A 
ATOM      4  C   UNL     1      98.843 127.591  82.586  0.00  0.00    +0.000 A 
ATOM      5  C   UNL     1      99.861 126.672  82.334  0.00  0.00    +0.000 A 
ATOM      6  C   UNL     1     101.155 126.878  82.838  0.00  0.00    +0.000 A 
ENDROOT
BRANCH   6   7
ATOM      7  C   UNL     1     102.170 125.862  82.511  0.00  0.00    +0.000 C 
ATOM      8  C   UNL     1     102.830 125.842  81.342  0.00  0.00    +0.000 C 
BRANCH   8   9
ATOM      9  C   UNL     1     103.864 124.856  80.996  0.00  0.00    +0.000 A 
ATOM     10  C   UNL     1     104.668 124.984  79.856  0.00  0.00    +0.000 A 
ATOM     11  C   UNL     1     105.662 124.042  79.577  0.00  0.00    +0.000 A 
ATOM     12  C   UNL     1     105.869 122.968  80.440  0.00  0.00    +0.000 A 
ATOM     13  C   UNL     1     105.087 122.840  81.587  0.00  0.00    +0.000 A 
ATOM     14  C   UNL     1     104.095 123.783  81.866  0.00  0.00    +0.000 A 
ENDBRANCH   8   9
ENDBRANCH   6   7
BRANCH   1  15
ATOM     15  O   UNL     1     102.720 128.202  84.021  0.00  0.00    +0.000 OA
BRANCH  15  17
ATOM     16  C   UNL     1     104.422 129.043  82.588  0.00  0.00    +0.000 C 
ATOM     17  C   UNL     1     103.403 129.398  83.656  0.00  0.00    +0.000 C 
ENDBRANCH  15  17
ENDBRANCH   1  15
TORSDOF 4
ENDMDL
