REMARK  Name = *****
REMARK  3 active torsions:
REMARK  status: ('A' for Active; 'I' for Inactive)
REMARK    1  A    between atoms: C_4  and  C_7
REMARK    2  A    between atoms: C_8  and  C_9
REMARK    3  A    between atoms: C_12  and  C_15
REMARK                            x       y       z     vdW  Elec       q    Type
REMARK                         _______ _______ _______ _____ _____    ______ ____
ROOT
ATOM      1  C   UNL     1      -2.846   0.492   0.010  0.00  0.00    +0.000 C 
ATOM      2  C   UNL     1      -3.235   1.741  -0.297  0.00  0.00    +0.000 C 
ATOM      3 CL   UNL     1      -4.035  -0.764   0.135  0.00  0.00    +0.000 Cl
ENDROOT
BRANCH   1   7
ATOM      4  C   UNL     1       1.200  -0.687   0.705  0.00  0.00    +0.000 A 
ATOM      5  C   UNL     1       0.314  -0.573   1.775  0.00  0.00    +0.000 A 
ATOM      6  C   UNL     1      -1.011  -0.193   1.548  0.00  0.00    +0.000 A 
ATOM      7  C   UNL     1      -1.457   0.077   0.248  0.00  0.00    +0.000 A 
ATOM      8  C   UNL     1      -0.559  -0.043  -0.821  0.00  0.00    +0.000 A 
ATOM      9  C   UNL     1       0.765  -0.424  -0.593  0.00  0.00    +0.000 A 
ENDBRANCH   1   7
BRANCH   2  10
ATOM     10  C   UNL     1      -2.339   2.895  -0.415  0.00  0.00    +0.000 A 
ATOM     11  C   UNL     1      -2.036   3.413  -1.679  0.00  0.00    +0.000 A 
ATOM     12  C   UNL     1      -1.172   4.503  -1.802  0.00  0.00    +0.000 A 
ATOM     13  C   UNL     1      -0.615   5.081  -0.658  0.00  0.00    +0.000 A 
ATOM     14  C   UNL     1      -0.918   4.577   0.609  0.00  0.00    +0.000 A 
ATOM     15  C   UNL     1      -1.781   3.484   0.728  0.00  0.00    +0.000 A 
BRANCH  13  16
ATOM     16  C   UNL     1       0.303   6.231  -0.779  0.00  0.00    +0.000 C 
ATOM     17  O   UNL     1       0.604   6.715  -1.862  0.00  0.00    +0.000 OA
ENDBRANCH  13  16
ENDBRANCH   2  10
TORSDOF 3
