MODEL 1
REMARK VINA RESULT:      -4.1      0.000      0.000
REMARK  Name = *****
REMARK  3 active torsions:
REMARK  status: ('A' for Active; 'I' for Inactive)
REMARK    1  A    between atoms: C_4  and  C_7
REMARK    2  A    between atoms: C_7  and  N_8
REMARK    3  A    between atoms: N_8  and  C_9
REMARK                            x       y       z     vdW  Elec       q    Type
REMARK                         _______ _______ _______ _____ _____    ______ ____
ROOT
ATOM      1  C   UNL     1     101.832 125.984  82.410  0.00  0.00    +0.000 C 
ENDROOT
BRANCH   1   5
ATOM      2  C   UNL     1      99.211 129.320  83.225  0.00  0.00    +0.000 C 
ATOM      3  C   UNL     1      98.586 127.935  83.084  0.00  0.00    +0.000 C 
ATOM      4  C   UNL     1      99.546 126.949  82.424  0.00  0.00    +0.000 C 
ATOM      5  C   UNL     1     100.884 126.887  83.165  0.00  0.00    +0.000 C 
ATOM      6  C   UNL     1     101.509 128.277  83.303  0.00  0.00    +0.000 C 
ATOM      7  C   UNL     1     100.547 129.262  83.961  0.00  0.00    +0.000 C 
ENDBRANCH   1   5
BRANCH   1   8
ATOM      8  N   UNL     1     102.704 125.281  83.044  0.00  0.00    +0.000 NA
BRANCH   8   9
ATOM      9  C   UNL     1     103.920 124.974  82.278  0.00  0.00    +0.000 C 
ATOM     10  C   UNL     1     103.590 125.136  80.790  0.00  0.00    +0.000 C 
ATOM     11  C   UNL     1     104.759 124.707  79.906  0.00  0.00    +0.000 C 
ATOM     12  C   UNL     1     105.208 123.284  80.219  0.00  0.00    +0.000 C 
ATOM     13  C   UNL     1     105.529 123.109  81.702  0.00  0.00    +0.000 C 
ATOM     14  C   UNL     1     104.361 123.539  82.585  0.00  0.00    +0.000 C 
ENDBRANCH   8   9
ENDBRANCH   1   8
TORSDOF 3
ENDMDL
