REMARK  Name = *****
REMARK  2 active torsions:
REMARK  status: ('A' for Active; 'I' for Inactive)
REMARK    1  A    between atoms: N_3  and  C_11
REMARK    2  A    between atoms: C_16  and  C_17
REMARK                            x       y       z     vdW  Elec       q    Type
REMARK                         _______ _______ _______ _____ _____    ______ ____
ROOT
ATOM      1  C   UNL     1       1.234   1.475  -0.307  0.00  0.00    +0.000 C 
ATOM      2  C   UNL     1       2.400   0.805   0.423  0.00  0.00    +0.000 C 
ATOM      3  N   UNL     1       2.398  -0.683   0.195  0.00  0.00    +0.000 N 
ATOM      4  C   UNL     1       1.288  -1.327   0.011  0.00  0.00    +0.000 C 
ATOM      5  C   UNL     1      -0.019  -0.657   0.037  0.00  0.00    +0.000 A 
ATOM      6  C   UNL     1      -1.189  -1.405   0.161  0.00  0.00    +0.000 A 
ATOM      7  C   UNL     1      -2.416  -0.743   0.168  0.00  0.00    +0.000 A 
ATOM      8  C   UNL     1      -2.465   0.647   0.040  0.00  0.00    +0.000 A 
ATOM      9  C   UNL     1      -1.289   1.387  -0.097  0.00  0.00    +0.000 A 
ATOM     10  C   UNL     1      -0.054   0.736  -0.088  0.00  0.00    +0.000 A 
ENDROOT
BRANCH   3  11
ATOM     11  C   UNL     1       3.653  -1.349  -0.065  0.00  0.00    +0.000 A 
ATOM     12  C   UNL     1       3.690  -2.330  -1.085  0.00  0.00    +0.000 A 
ATOM     13  C   UNL     1       4.883  -2.953  -1.459  0.00  0.00    +0.000 A 
ATOM     14  C   UNL     1       6.068  -2.619  -0.823  0.00  0.00    +0.000 A 
ATOM     15  C   UNL     1       6.056  -1.683   0.207  0.00  0.00    +0.000 A 
ATOM     16  C   UNL     1       4.858  -1.054   0.618  0.00  0.00    +0.000 A 
BRANCH  16  17
ATOM     17  C   UNL     1       4.936  -0.199   1.860  0.00  0.00    +0.000 C 
ATOM     18  F   UNL     1       3.850  -0.373   2.661  0.00  0.00    +0.000 F 
ATOM     19  F   UNL     1       6.017  -0.450   2.640  0.00  0.00    +0.000 F 
ATOM     20  F   UNL     1       4.975   1.126   1.566  0.00  0.00    +0.000 F 
ENDBRANCH  16  17
ENDBRANCH   3  11
TORSDOF 2
