MODEL 1
REMARK VINA RESULT:      -4.4      0.000      0.000
REMARK  Name = *****
REMARK  3 active torsions:
REMARK  status: ('A' for Active; 'I' for Inactive)
REMARK    1  A    between atoms: C_5  and  C_7
REMARK    2  A    between atoms: C_7  and  O_9
REMARK    3  A    between atoms: O_9  and  C_10
REMARK                            x       y       z     vdW  Elec       q    Type
REMARK                         _______ _______ _______ _____ _____    ______ ____
ROOT
ATOM      1  C   UNL     1      88.494  70.524  85.606  0.00  0.00    +0.000 C 
ATOM      2  O   UNL     1      89.545  71.142  85.534  0.00  0.00    +0.000 OA
ENDROOT
BRANCH   1   7
ATOM      3  C   UNL     1      85.149  72.112  86.164  0.00  0.00    +0.000 A 
ATOM      4  C   UNL     1      85.011  72.037  87.549  0.00  0.00    +0.000 A 
ATOM      5  C   UNL     1      86.029  71.474  88.324  0.00  0.00    +0.000 A 
ATOM      6  C   UNL     1      87.187  70.975  87.717  0.00  0.00    +0.000 A 
ATOM      7  C   UNL     1      87.313  71.031  86.325  0.00  0.00    +0.000 A 
ATOM      8  C   UNL     1      86.299  71.616  85.551  0.00  0.00    +0.000 A 
ATOM      9 CL   UNL     1      88.428  70.361  88.750  0.00  0.00    +0.000 Cl
ENDBRANCH   1   7
BRANCH   1  10
ATOM     10  O   UNL     1      88.141  69.356  84.961  0.00  0.00    +0.000 OA
BRANCH  10  11
ATOM     11  C   UNL     1      88.594  68.202  85.605  0.00  0.00    +0.000 A 
ATOM     12  C   UNL     1      89.879  67.720  85.370  0.00  0.00    +0.000 A 
ATOM     13  C   UNL     1      90.268  66.541  85.992  0.00  0.00    +0.000 A 
ATOM     14  C   UNL     1      89.393  65.839  86.820  0.00  0.00    +0.000 A 
ATOM     15  C   UNL     1      88.101  66.322  87.031  0.00  0.00    +0.000 A 
ATOM     16  C   UNL     1      87.694  67.507  86.414  0.00  0.00    +0.000 A 
ATOM     17  F   UNL     1      91.502  66.062  85.786  0.00  0.00    +0.000 F 
ENDBRANCH  10  11
ENDBRANCH   1  10
TORSDOF 3
ENDMDL
