MODEL 1
REMARK VINA RESULT:      -4.6      0.000      0.000
REMARK  Name = *****
REMARK  3 active torsions:
REMARK  status: ('A' for Active; 'I' for Inactive)
REMARK    1  A    between atoms: C_6  and  C_7
REMARK    2  A    between atoms: C_7  and  C_8
REMARK    3  A    between atoms: C_8  and  C_10
REMARK                            x       y       z     vdW  Elec       q    Type
REMARK                         _______ _______ _______ _____ _____    ______ ____
ROOT
ATOM      1  C   UNL     1      87.808  70.754  85.861  0.00  0.00    +0.000 C 
ATOM      2  O   UNL     1      87.962  70.720  84.639  0.00  0.00    +0.000 OA
ENDROOT
BRANCH   1   3
ATOM      3  C   UNL     1      86.556  71.354  86.418  0.00  0.00    +0.000 A 
ATOM      4  C   UNL     1      85.544  71.890  85.613  0.00  0.00    +0.000 A 
ATOM      5  C   UNL     1      84.386  72.422  86.195  0.00  0.00    +0.000 A 
ATOM      6  C   UNL     1      84.240  72.425  87.582  0.00  0.00    +0.000 A 
ATOM      7  C   UNL     1      85.244  71.906  88.394  0.00  0.00    +0.000 A 
ATOM      8  C   UNL     1      86.399  71.373  87.812  0.00  0.00    +0.000 A 
ATOM      9  I   UNL     1      82.519  73.211  88.438  0.00  0.00    +0.000 I 
ENDBRANCH   1   3
BRANCH   1  10
ATOM     10  C   UNL     1      88.873  70.210  86.795  0.00  0.00    +0.000 C 
BRANCH  10  16
ATOM     11  C   UNL     1      90.020  68.009  86.291  0.00  0.00    +0.000 A 
ATOM     12  C   UNL     1      90.053  66.612  86.311  0.00  0.00    +0.000 A 
ATOM     13  C   UNL     1      88.993  65.899  86.865  0.00  0.00    +0.000 A 
ATOM     14  C   UNL     1      87.896  66.571  87.398  0.00  0.00    +0.000 A 
ATOM     15  C   UNL     1      87.863  67.966  87.380  0.00  0.00    +0.000 A 
ATOM     16  C   UNL     1      88.927  68.701  86.833  0.00  0.00    +0.000 A 
ATOM     17 CL   UNL     1      89.035  64.179  86.883  0.00  0.00    +0.000 Cl
ENDBRANCH  10  16
ENDBRANCH   1  10
TORSDOF 3
ENDMDL
