REMARK  Name = *****
REMARK  1 active torsions:
REMARK  status: ('A' for Active; 'I' for Inactive)
REMARK    1  A    between atoms: P_4  and  C_6
REMARK                            x       y       z     vdW  Elec       q    Type
REMARK                         _______ _______ _______ _____ _____    ______ ____
ROOT
ATOM      1  C   UNL     1      -0.301   1.775  -2.003  0.00  0.00    +0.000 A 
ATOM      2  C   UNL     1      -0.243   3.111  -2.436  0.00  0.00    +0.000 A 
ATOM      3  C   UNL     1      -0.374   3.458  -3.793  0.00  0.00    +0.000 A 
ATOM      4  C   UNL     1      -0.320   4.796  -4.219  0.00  0.00    +0.000 A 
ATOM      5  C   UNL     1      -0.454   5.122  -5.569  0.00  0.00    +0.000 A 
ATOM      6  C   UNL     1      -0.642   4.116  -6.512  0.00  0.00    +0.000 A 
ATOM      7  C   UNL     1      -0.698   2.782  -6.105  0.00  0.00    +0.000 A 
ATOM      8  C   UNL     1      -0.567   2.439  -4.750  0.00  0.00    +0.000 A 
ATOM      9  C   UNL     1      -0.623   1.106  -4.321  0.00  0.00    +0.000 A 
ATOM     10  C   UNL     1      -0.494   0.781  -2.966  0.00  0.00    +0.000 A 
ENDROOT
BRANCH   1  14
ATOM     11  C   UNL     1      -1.275  -0.993   0.123  0.00  0.00    +0.000 C 
ATOM     12  C   UNL     1       0.158  -1.081   0.634  0.00  0.00    +0.000 C 
ATOM     13  C   UNL     1       0.966  -0.034  -0.132  0.00  0.00    +0.000 C 
ATOM     14  P   UNL     1      -0.136   1.462  -0.218  0.00  0.00    +0.000 P 
ATOM     15  C   UNL     1      -1.673   0.481   0.159  0.00  0.00    +0.000 C 
ENDBRANCH   1  14
TORSDOF 1
