MODEL 1
REMARK VINA RESULT:      -3.4      0.000      0.000
REMARK  Name = *****
REMARK  4 active torsions:
REMARK  status: ('A' for Active; 'I' for Inactive)
REMARK    1  A    between atoms: C_1  and  C_2
REMARK    2  A    between atoms: C_2  and  C_8
REMARK    3  A    between atoms: C_8  and  C_9
REMARK    4  A    between atoms: C_9  and  C_10
REMARK                            x       y       z     vdW  Elec       q    Type
REMARK                         _______ _______ _______ _____ _____    ______ ____
ROOT
ATOM      1  C   UNL     1     100.862 126.400  83.660  0.00  0.00    +0.000 C 
ENDROOT
BRANCH   1   3
ATOM      2  C   UNL     1      98.808 127.480  82.617  0.00  0.00    +0.000 C 
ATOM      3  C   UNL     1      99.779 127.510  83.804  0.00  0.00    +0.000 C 
ATOM      4  S   UNL     1      98.894 127.126  85.377  0.00  0.00    +0.000 S 
ATOM      5  C   UNL     1      97.777 128.547  85.527  0.00  0.00    +0.000 C 
ATOM      6  C   UNL     1      98.503 129.881  85.579  0.00  0.00    +0.000 C 
ATOM      7  C   UNL     1      99.229 130.238  84.292  0.00  0.00    +0.000 C 
ATOM      8  S   UNL     1     100.627 129.137  83.942  0.00  0.00    +0.000 S 
ENDBRANCH   1   3
BRANCH   1   9
ATOM      9  C   UNL     1     101.444 126.204  82.242  0.00  0.00    +0.000 C 
BRANCH   9  10
ATOM     10  C   UNL     1     102.926 125.784  82.246  0.00  0.00    +0.000 C 
ATOM     11  S   UNL     1     104.031 126.831  83.250  0.00  0.00    +0.000 S 
ATOM     12  C   UNL     1     103.936 128.386  82.320  0.00  0.00    +0.000 C 
ATOM     13  C   UNL     1     104.434 128.246  80.888  0.00  0.00    +0.000 C 
ATOM     14  C   UNL     1     103.576 127.343  80.013  0.00  0.00    +0.000 C 
ATOM     15  S   UNL     1     103.579 125.607  80.550  0.00  0.00    +0.000 S 
ENDBRANCH   9  10
ENDBRANCH   1   9
TORSDOF 3
ENDMDL
