MODEL 1
REMARK VINA RESULT:      -5.1      0.000      0.000
REMARK  Name = *****
REMARK  2 active torsions:
REMARK  status: ('A' for Active; 'I' for Inactive)
REMARK    1  A    between atoms: C_1  and  C_2
REMARK    2  A    between atoms: C_5  and  C_8
REMARK                            x       y       z     vdW  Elec       q    Type
REMARK                         _______ _______ _______ _____ _____    ______ ____
ROOT
ATOM      1  C   UNL     1     102.311 126.177  82.396  0.00  0.00    +0.000 A 
ATOM      2  N   UNL     1     102.515 127.325  83.022  0.00  0.00    +0.000 NA
ATOM      3  C   UNL     1     101.261 127.869  83.129  0.00  0.00    +0.000 A 
ATOM      4  C   UNL     1     100.331 127.017  82.555  0.00  0.00    +0.000 A 
ATOM      5  O   UNL     1     100.998 125.927  82.081  0.00  0.00    +0.000 OA
ATOM      6  C   UNL     1      98.963 127.262  82.490  0.00  0.00    +0.000 A 
ATOM      7  C   UNL     1      98.542 128.469  83.059  0.00  0.00    +0.000 A 
ATOM      8  C   UNL     1      99.458 129.347  83.645  0.00  0.00    +0.000 A 
ATOM      9  C   UNL     1     100.827 129.073  83.694  0.00  0.00    +0.000 A 
ATOM     10  F   UNL     1      99.008 130.492  84.177  0.00  0.00    +0.000 F 
ENDROOT
BRANCH   1  15
ATOM     11  C   UNL     1     106.146 122.166  80.748  0.00  0.00    +0.000 C 
ATOM     12  C   UNL     1     105.174 123.222  81.188  0.00  0.00    +0.000 A 
ATOM     13  C   UNL     1     104.637 124.122  80.262  0.00  0.00    +0.000 A 
ATOM     14  C   UNL     1     103.707 125.084  80.668  0.00  0.00    +0.000 A 
ATOM     15  C   UNL     1     103.285 125.161  82.003  0.00  0.00    +0.000 A 
ATOM     16  C   UNL     1     103.817 124.244  82.923  0.00  0.00    +0.000 A 
ATOM     17  C   UNL     1     104.747 123.282  82.518  0.00  0.00    +0.000 A 
ENDBRANCH   1  15
TORSDOF 1
ENDMDL
