MODEL 1
REMARK VINA RESULT:      -5.0      0.000      0.000
REMARK  Name = *****
REMARK  4 active torsions:
REMARK  status: ('A' for Active; 'I' for Inactive)
REMARK    1  A    between atoms: C_1  and  O_2
REMARK    2  A    between atoms: O_2  and  C_3
REMARK    3  A    between atoms: C_7  and  C_9
REMARK    4  A    between atoms: C_10  and  C_11
REMARK                            x       y       z     vdW  Elec       q    Type
REMARK                         _______ _______ _______ _____ _____    ______ ____
ROOT
ATOM      1  C   UNL     1     102.061 126.230  82.130  0.00  0.00    +0.000 C 
ATOM      2  C   UNL     1     102.923 125.481  81.754  0.00  0.00    +0.000 C 
ENDROOT
BRANCH   2   3
ATOM      3  C   UNL     1     103.948 124.574  81.338  0.00  0.00    +0.000 A 
ATOM      4  C   UNL     1     104.334 123.529  82.185  0.00  0.00    +0.000 A 
ATOM      5  C   UNL     1     105.338 122.645  81.788  0.00  0.00    +0.000 A 
ATOM      6  C   UNL     1     105.948 122.813  80.549  0.00  0.00    +0.000 A 
ATOM      7  C   UNL     1     105.571 123.848  79.699  0.00  0.00    +0.000 A 
ATOM      8  C   UNL     1     104.567 124.733  80.095  0.00  0.00    +0.000 A 
ATOM      9  F   UNL     1     106.913 121.966  80.170  0.00  0.00    +0.000 F 
ENDBRANCH   2   3
BRANCH   1  14
ATOM     10  C   UNL     1      98.686 127.642  82.875  0.00  0.00    +0.000 A 
ATOM     11  C   UNL     1      99.038 128.840  83.501  0.00  0.00    +0.000 A 
ATOM     12  C   UNL     1     100.385 129.169  83.682  0.00  0.00    +0.000 A 
ATOM     13  C   UNL     1     101.385 128.304  83.237  0.00  0.00    +0.000 A 
ATOM     14  C   UNL     1     101.039 127.107  82.609  0.00  0.00    +0.000 A 
ATOM     15  C   UNL     1      99.693 126.778  82.434  0.00  0.00    +0.000 A 
BRANCH  10  17
ATOM     16  C   UNL     1      96.653 126.789  83.766  0.00  0.00    +0.000 C 
ATOM     17  O   UNL     1      97.412 127.204  82.637  0.00  0.00    +0.000 OA
ENDBRANCH  10  17
ENDBRANCH   1  14
TORSDOF 3
ENDMDL
