MODEL 1
REMARK VINA RESULT:      -4.7      0.000      0.000
REMARK  Name = *****
REMARK  3 active torsions:
REMARK  status: ('A' for Active; 'I' for Inactive)
REMARK    1  A    between atoms: N_2  and  C_3
REMARK    2  A    between atoms: C_8  and  C_9
REMARK    3  A    between atoms: C_10  and  C_11
REMARK                            x       y       z     vdW  Elec       q    Type
REMARK                         _______ _______ _______ _____ _____    ______ ____
ROOT
ATOM      1  C   UNL     1     102.095 126.011  82.339  0.00  0.00    +0.000 C 
ATOM      2  C   UNL     1     102.808 126.086  81.204  0.00  0.00    +0.000 C 
ENDROOT
BRANCH   2   3
ATOM      3  C   UNL     1     103.825 125.099  80.825  0.00  0.00    +0.000 A 
ATOM      4  C   UNL     1     104.616 125.342  79.696  0.00  0.00    +0.000 A 
ATOM      5  C   UNL     1     105.605 124.433  79.333  0.00  0.00    +0.000 A 
ATOM      6  C   UNL     1     105.835 123.283  80.081  0.00  0.00    +0.000 A 
ATOM      7  C   UNL     1     105.063 123.039  81.215  0.00  0.00    +0.000 A 
ATOM      8  C   UNL     1     104.066 123.946  81.588  0.00  0.00    +0.000 A 
ATOM      9  F   UNL     1     106.352 124.669  78.247  0.00  0.00    +0.000 F 
ENDBRANCH   2   3
BRANCH   1  15
ATOM     10  C   UNL     1     101.356 128.227  83.326  0.00  0.00    +0.000 A 
ATOM     11  C   UNL     1     100.343 129.139  83.634  0.00  0.00    +0.000 A 
ATOM     12  C   UNL     1      99.022 128.835  83.312  0.00  0.00    +0.000 A 
ATOM     13  C   UNL     1      98.722 127.629  82.681  0.00  0.00    +0.000 A 
ATOM     14  C   UNL     1      99.742 126.721  82.374  0.00  0.00    +0.000 A 
ATOM     15  C   UNL     1     101.075 127.003  82.701  0.00  0.00    +0.000 A 
BRANCH  10  17
ATOM     16  C   UNL     1     103.751 128.911  83.935  0.00  0.00    +0.000 C 
ATOM     17  N   UNL     1     102.663 128.587  83.641  0.00  0.00    +0.000 NA
ENDBRANCH  10  17
ENDBRANCH   1  15
TORSDOF 3
ENDMDL
