MODEL 1
REMARK VINA RESULT:      -5.0      0.000      0.000
REMARK  Name = *****
REMARK  2 active torsions:
REMARK  status: ('A' for Active; 'I' for Inactive)
REMARK    1  A    between atoms: C_4  and  C_7
REMARK    2  A    between atoms: C_8  and  C_9
REMARK                            x       y       z     vdW  Elec       q    Type
REMARK                         _______ _______ _______ _____ _____    ______ ____
ROOT
ATOM      1  C   UNL     1     103.003 125.601  81.382  0.00  0.00    +0.000 C 
ATOM      2  C   UNL     1     102.119 126.251  81.870  0.00  0.00    +0.000 C 
ENDROOT
BRANCH   2   3
ATOM      3  C   UNL     1     101.075 127.023  82.447  0.00  0.00    +0.000 A 
ATOM      4  C   UNL     1     101.336 128.105  83.190  0.00  0.00    +0.000 A 
ATOM      5  C   UNL     1     100.241 128.845  83.745  0.00  0.00    +0.000 A 
ATOM      6  C   UNL     1      98.979 128.470  83.530  0.00  0.00    +0.000 A 
ATOM      7  C   UNL     1      98.694 127.280  82.715  0.00  0.00    +0.000 A 
ATOM      8  O   UNL     1      97.532 126.938  82.520  0.00  0.00    +0.000 OA
ATOM      9  O   UNL     1      99.754 126.593  82.198  0.00  0.00    +0.000 OA
ATOM     10 CL   UNL     1     100.596 130.235  84.698  0.00  0.00    +0.000 Cl
ENDBRANCH   2   3
BRANCH   1  14
ATOM     11  C   UNL     1     106.121 123.330  79.663  0.00  0.00    +0.000 A 
ATOM     12  C   UNL     1     105.849 124.613  79.187  0.00  0.00    +0.000 A 
ATOM     13  C   UNL     1     104.818 125.364  79.755  0.00  0.00    +0.000 A 
ATOM     14  C   UNL     1     104.058 124.831  80.800  0.00  0.00    +0.000 A 
ATOM     15  C   UNL     1     104.331 123.547  81.274  0.00  0.00    +0.000 A 
ATOM     16  C   UNL     1     105.364 122.796  80.706  0.00  0.00    +0.000 A 
ENDBRANCH   1  14
TORSDOF 2
ENDMDL
