MODEL 1
REMARK VINA RESULT:      -4.9      0.000      0.000
REMARK  Name = *****
REMARK  7 active torsions:
REMARK  status: ('A' for Active; 'I' for Inactive)
REMARK    1  A    between atoms: C_1  and  C_2
REMARK    2  A    between atoms: C_4  and  C_8
REMARK    3  A    between atoms: C_8  and  C_10
REMARK    4  A    between atoms: C_10  and  C_11
REMARK    5  A    between atoms: C_11  and  C_12
REMARK    6  A    between atoms: C_13  and  C_19
REMARK    7  A    between atoms: C_17  and  C_18
REMARK                            x       y       z     vdW  Elec       q    Type
REMARK                         _______ _______ _______ _____ _____    ______ ____
ROOT
ATOM      1  C   UNL     1      89.582  68.440  86.652  0.00  0.00    +0.000 C 
ENDROOT
BRANCH   1   2
ATOM      2  C   UNL     1      89.327  69.934  86.581  0.00  0.00    +0.000 C 
ATOM      3  O   UNL     1      89.943  70.669  85.811  0.00  0.00    +0.000 OA
BRANCH   2   7
ATOM      4  C   UNL     1      84.834  72.131  87.357  0.00  0.00    +0.000 C 
ATOM      5  C   UNL     1      86.121  71.565  87.881  0.00  0.00    +0.000 A 
ATOM      6  C   UNL     1      87.072  71.026  86.999  0.00  0.00    +0.000 A 
ATOM      7  C   UNL     1      88.289  70.526  87.482  0.00  0.00    +0.000 A 
ATOM      8  C   UNL     1      88.555  70.582  88.857  0.00  0.00    +0.000 A 
ATOM      9  C   UNL     1      87.621  71.130  89.736  0.00  0.00    +0.000 A 
ATOM     10  C   UNL     1      86.412  71.623  89.249  0.00  0.00    +0.000 A 
ENDBRANCH   2   7
ENDBRANCH   1   2
BRANCH   1  11
ATOM     11  C   UNL     1      88.342  67.635  86.259  0.00  0.00    +0.000 C 
BRANCH  11  12
ATOM     12  C   UNL     1      88.140  66.437  87.173  0.00  0.00    +0.000 A 
ATOM     13  C   UNL     1      87.208  66.497  88.239  0.00  0.00    +0.000 A 
ATOM     14  C   UNL     1      87.049  65.388  89.084  0.00  0.00    +0.000 A 
ATOM     15  C   UNL     1      87.800  64.233  88.895  0.00  0.00    +0.000 A 
ATOM     16  C   UNL     1      88.718  64.167  87.852  0.00  0.00    +0.000 A 
ATOM     17  C   UNL     1      88.903  65.256  86.987  0.00  0.00    +0.000 A 
ATOM     18  C   UNL     1      89.891  65.108  85.858  0.00  0.00    +0.000 C 
ATOM     19  C   UNL     1      86.340  67.706  88.481  0.00  0.00    +0.000 C 
ENDBRANCH  11  12
ENDBRANCH   1  11
TORSDOF 4
ENDMDL
