MODEL 1
REMARK VINA RESULT:      -4.0      0.000      0.000
REMARK  Name = *****
REMARK  3 active torsions:
REMARK  status: ('A' for Active; 'I' for Inactive)
REMARK    1  A    between atoms: N_2  and  C_11
REMARK    2  A    between atoms: N_3  and  C_4
REMARK    3  A    between atoms: C_5  and  C_9
REMARK                            x       y       z     vdW  Elec       q    Type
REMARK                         _______ _______ _______ _____ _____    ______ ____
ROOT
ATOM      1  C   UNL     1     103.429 126.302  83.714  0.00  0.00    +0.000 C 
ATOM      2  N   UNL     1     102.675 126.771  82.559  0.00  0.00    +0.000 N 
ATOM      3  N   UNL     1     102.873 125.425  82.697  0.00  0.00    +0.000 N 
ENDROOT
BRANCH   2   4
ATOM      4  C   UNL     1     101.383 127.317  82.781  0.00  0.00    +0.000 A 
ATOM      5  C   UNL     1     100.277 126.568  82.353  0.00  0.00    +0.000 A 
ATOM      6  C   UNL     1      98.974 127.035  82.540  0.00  0.00    +0.000 A 
ATOM      7  C   UNL     1      98.759 128.261  83.166  0.00  0.00    +0.000 A 
ATOM      8  C   UNL     1      99.844 129.015  83.608  0.00  0.00    +0.000 A 
ATOM      9  C   UNL     1     101.147 128.544  83.420  0.00  0.00    +0.000 A 
ENDBRANCH   2   4
BRANCH   3  10
ATOM     10  C   UNL     1     103.759 124.773  81.876  0.00  0.00    +0.000 A 
ATOM     11  C   UNL     1     104.396 123.582  82.194  0.00  0.00    +0.000 A 
ATOM     12  C   UNL     1     105.252 123.102  81.157  0.00  0.00    +0.000 A 
ATOM     13  C   UNL     1     105.244 123.928  80.060  0.00  0.00    +0.000 A 
ATOM     14  S   UNL     1     104.208 125.266  80.277  0.00  0.00    +0.000 S 
BRANCH  11  15
ATOM     15  C   UNL     1     104.211 122.912  83.449  0.00  0.00    +0.000 C 
ATOM     16  N   UNL     1     104.091 122.366  84.466  0.00  0.00    +0.000 NA
ENDBRANCH  11  15
ENDBRANCH   3  10
TORSDOF 3
ENDMDL
