MODEL 1
REMARK VINA RESULT:      -5.3      0.000      0.000
REMARK  Name = *****
REMARK  1 active torsions:
REMARK  status: ('A' for Active; 'I' for Inactive)
REMARK    1  A    between atoms: C_4  and  C_7
REMARK                            x       y       z     vdW  Elec       q    Type
REMARK                         _______ _______ _______ _____ _____    ______ ____
ROOT
ATOM      1  C   UNL     1     103.249 126.768  82.948  0.00  0.00    +0.000 C 
ATOM      2  C   UNL     1     101.951 127.126  82.928  0.00  0.00    +0.000 C 
ATOM      3  C   UNL     1     101.281 128.303  83.453  0.00  0.00    +0.000 A 
ATOM      4  C   UNL     1      99.943 128.144  83.141  0.00  0.00    +0.000 A 
ATOM      5  C   UNL     1      98.964 129.069  83.478  0.00  0.00    +0.000 A 
ATOM      6  C   UNL     1      99.367 130.212  84.166  0.00  0.00    +0.000 A 
ATOM      7  C   UNL     1     100.717 130.384  84.488  0.00  0.00    +0.000 A 
ATOM      8  C   UNL     1     101.684 129.438  84.139  0.00  0.00    +0.000 A 
ATOM      9  F   UNL     1     101.093 131.486  85.151  0.00  0.00    +0.000 F 
ATOM     10  C   UNL     1      99.757 126.888  82.429  0.00  0.00    +0.000 C 
ATOM     11  O   UNL     1      98.697 126.454  82.021  0.00  0.00    +0.000 OA
ATOM     12  O   UNL     1     100.985 126.295  82.313  0.00  0.00    +0.000 OA
ATOM     13 CL   UNL     1     104.509 127.718  83.658  0.00  0.00    +0.000 Cl
ENDROOT
BRANCH   1  17
ATOM     14  C   UNL     1     104.588 123.109  81.179  0.00  0.00    +0.000 A 
ATOM     15  C   UNL     1     104.394 124.238  80.386  0.00  0.00    +0.000 A 
ATOM     16  C   UNL     1     103.957 125.432  80.962  0.00  0.00    +0.000 A 
ATOM     17  C   UNL     1     103.710 125.507  82.341  0.00  0.00    +0.000 A 
ATOM     18  C   UNL     1     103.911 124.365  83.130  0.00  0.00    +0.000 A 
ATOM     19  C   UNL     1     104.347 123.172  82.551  0.00  0.00    +0.000 A 
ENDBRANCH   1  17
TORSDOF 1
ENDMDL
