MODEL 1
REMARK VINA RESULT:      -4.9      0.000      0.000
REMARK  Name = *****
REMARK  2 active torsions:
REMARK  status: ('A' for Active; 'I' for Inactive)
REMARK    1  A    between atoms: C_5  and  C_7
REMARK    2  A    between atoms: C_8  and  C_9
REMARK                            x       y       z     vdW  Elec       q    Type
REMARK                         _______ _______ _______ _____ _____    ______ ____
ROOT
ATOM      1  C   UNL     1     101.981 126.287  82.085  0.00  0.00    +0.000 C 
ATOM      2  C   UNL     1     102.845 125.574  81.649  0.00  0.00    +0.000 C 
ENDROOT
BRANCH   1   7
ATOM      3  C   UNL     1      98.583 127.597  82.851  0.00  0.00    +0.000 A 
ATOM      4  C   UNL     1      98.875 128.762  83.559  0.00  0.00    +0.000 A 
ATOM      5  C   UNL     1     100.203 129.122  83.790  0.00  0.00    +0.000 A 
ATOM      6  C   UNL     1     101.242 128.317  83.311  0.00  0.00    +0.000 A 
ATOM      7  C   UNL     1     100.955 127.145  82.598  0.00  0.00    +0.000 A 
ATOM      8  C   UNL     1      99.619 126.792  82.373  0.00  0.00    +0.000 A 
ATOM      9 BR   UNL     1     103.024 128.877  83.665  0.00  0.00    +0.000 Br
ENDBRANCH   1   7
BRANCH   2  10
ATOM     10  C   UNL     1     103.879 124.741  81.120  0.00  0.00    +0.000 A 
ATOM     11  C   UNL     1     104.512 125.090  79.927  0.00  0.00    +0.000 A 
ATOM     12  C   UNL     1     105.514 124.270  79.422  0.00  0.00    +0.000 A 
ATOM     13  C   UNL     1     105.897 123.108  80.086  0.00  0.00    +0.000 A 
ATOM     14  C   UNL     1     105.264 122.758  81.277  0.00  0.00    +0.000 A 
ATOM     15  C   UNL     1     104.255 123.574  81.795  0.00  0.00    +0.000 A 
ATOM     16  F   UNL     1     106.125 124.603  78.277  0.00  0.00    +0.000 F 
ENDBRANCH   2  10
TORSDOF 2
ENDMDL
