REMARK  Name = *****
REMARK  6 active torsions:
REMARK  status: ('A' for Active; 'I' for Inactive)
REMARK    1  A    between atoms: C_1  and  C_2
REMARK    2  A    between atoms: C_7  and  C_8
REMARK    3  A    between atoms: C_8  and  O_9
REMARK    4  A    between atoms: O_9  and  C_10
REMARK    5  A    between atoms: C_10  and  C_12
REMARK    6  A    between atoms: C_17  and  C_18
REMARK                            x       y       z     vdW  Elec       q    Type
REMARK                         _______ _______ _______ _____ _____    ______ ____
ROOT
ATOM      1  O   UNL     1       1.765  -3.155   2.119  0.00  0.00    +0.000 OA
ENDROOT
BRANCH   1   2
ATOM      2  C   UNL     1       0.709  -4.003   2.196  0.00  0.00    +0.000 C 
ATOM      3  O   UNL     1      -0.417  -3.741   1.786  0.00  0.00    +0.000 OA
BRANCH   2   4
ATOM      4  C   UNL     1       1.066  -5.349   2.813  0.00  0.00    +0.000 C 
ATOM      5  C   UNL     1       2.138  -5.262   3.913  0.00  0.00    +0.000 C 
ATOM      6  C   UNL     1       3.572  -5.130   3.388  0.00  0.00    +0.000 C 
ATOM      7  C   UNL     1       3.827  -5.864   2.108  0.00  0.00    +0.000 C 
ATOM      8  C   UNL     1       2.867  -6.455   1.384  0.00  0.00    +0.000 C 
ATOM      9  C   UNL     1       1.410  -6.437   1.769  0.00  0.00    +0.000 C 
ATOM     10  C   UNL     1       0.521  -6.392   0.523  0.00  0.00    +0.000 C 
ENDBRANCH   2   4
ENDBRANCH   1   2
BRANCH   1  11
ATOM     11  C   UNL     1       1.478  -1.894   1.492  0.00  0.00    +0.000 C 
BRANCH  11  18
ATOM     12  C   UNL     1       1.912   0.305  -0.495  0.00  0.00    +0.000 C 
ATOM     13  C   UNL     1       2.543   0.393   0.896  0.00  0.00    +0.000 C 
ATOM     14  C   UNL     1       1.781   1.364   1.768  0.00  0.00    +0.000 C 
ATOM     15  C   UNL     1       1.610   1.189   3.087  0.00  0.00    +0.000 C 
ATOM     16  C   UNL     1       2.179   0.028   3.847  0.00  0.00    +0.000 C 
ATOM     17  C   UNL     1       3.187  -0.784   3.029  0.00  0.00    +0.000 C 
ATOM     18  C   UNL     1       2.727  -0.994   1.571  0.00  0.00    +0.000 C 
ENDBRANCH  11  18
ENDBRANCH   1  11
TORSDOF 4
