MODEL 1
REMARK VINA RESULT:      -4.8      0.000      0.000
REMARK  Name = *****
REMARK  3 active torsions:
REMARK  status: ('A' for Active; 'I' for Inactive)
REMARK    1  A    between atoms: C_6  and  C_7
REMARK    2  A    between atoms: C_7  and  O_9
REMARK    3  A    between atoms: O_9  and  C_10
REMARK                            x       y       z     vdW  Elec       q    Type
REMARK                         _______ _______ _______ _____ _____    ______ ____
ROOT
ATOM      1  C   UNL     1     103.346 127.285  82.099  0.00  0.00    +0.000 C 
ATOM      2  O   UNL     1     103.542 128.193  81.305  0.00  0.00    +0.000 OA
ENDROOT
BRANCH   1   8
ATOM      3  C   UNL     1     103.863 124.921  82.870  0.00  0.00    +0.000 A 
ATOM      4  C   UNL     1     104.273 123.616  82.574  0.00  0.00    +0.000 A 
ATOM      5  C   UNL     1     104.594 123.266  81.264  0.00  0.00    +0.000 A 
ATOM      6  C   UNL     1     104.510 124.210  80.243  0.00  0.00    +0.000 A 
ATOM      7  C   UNL     1     104.102 125.515  80.534  0.00  0.00    +0.000 A 
ATOM      8  C   UNL     1     103.775 125.880  81.850  0.00  0.00    +0.000 A 
ATOM      9 CL   UNL     1     105.097 121.661  80.906  0.00  0.00    +0.000 Cl
ENDBRANCH   1   8
BRANCH   1  10
ATOM     10  O   UNL     1     102.718 127.375  83.327  0.00  0.00    +0.000 OA
BRANCH  10  11
ATOM     11  C   UNL     1     101.356 127.667  83.229  0.00  0.00    +0.000 A 
ATOM     12  C   UNL     1     100.507 126.707  82.682  0.00  0.00    +0.000 A 
ATOM     13  C   UNL     1      99.158 127.013  82.541  0.00  0.00    +0.000 A 
ATOM     14  C   UNL     1      98.657 128.254  82.918  0.00  0.00    +0.000 A 
ATOM     15  C   UNL     1      99.529 129.200  83.443  0.00  0.00    +0.000 A 
ATOM     16  C   UNL     1     100.883 128.925  83.598  0.00  0.00    +0.000 A 
ATOM     17  F   UNL     1      99.059 130.403  83.798  0.00  0.00    +0.000 F 
ATOM     18  F   UNL     1      98.328 126.100  82.022  0.00  0.00    +0.000 F 
ENDBRANCH  10  11
ENDBRANCH   1  10
TORSDOF 3
ENDMDL
