MODEL 1
REMARK VINA RESULT:      -4.8      0.000      0.000
REMARK  Name = *****
REMARK  5 active torsions:
REMARK  status: ('A' for Active; 'I' for Inactive)
REMARK    1  A    between atoms: C_1  and  N_2
REMARK    2  A    between atoms: N_2  and  C_3
REMARK    3  A    between atoms: N_2  and  C_4
REMARK    4  A    between atoms: C_7  and  C_10
REMARK    5  A    between atoms: C_11  and  C_12
REMARK                            x       y       z     vdW  Elec       q    Type
REMARK                         _______ _______ _______ _____ _____    ______ ____
ROOT
ATOM      1  C   UNL     1     102.447 127.168  82.172  0.00  0.00    +0.000 C 
ATOM      2  C   UNL     1     101.834 127.361  83.351  0.00  0.00    +0.000 C 
ENDROOT
BRANCH   2   3
ATOM      3  C   UNL     1     101.189 128.643  83.686  0.00  0.00    +0.000 A 
ATOM      4  C   UNL     1     101.890 129.670  84.348  0.00  0.00    +0.000 A 
ATOM      5  C   UNL     1     101.260 130.879  84.666  0.00  0.00    +0.000 A 
ATOM      6  C   UNL     1      99.925 131.086  84.332  0.00  0.00    +0.000 A 
ATOM      7  C   UNL     1      99.216 130.084  83.672  0.00  0.00    +0.000 A 
ATOM      8  C   UNL     1      99.841 128.873  83.351  0.00  0.00    +0.000 A 
ATOM      9 CL   UNL     1      98.888 127.684  82.527  0.00  0.00    +0.000 Cl
ATOM     10 CL   UNL     1     103.558 129.508  84.786  0.00  0.00    +0.000 Cl
ENDBRANCH   2   3
BRANCH   1  14
ATOM     11  C   UNL     1     104.436 123.620  80.917  0.00  0.00    +0.000 A 
ATOM     12  N   UNL     1     104.089 124.568  80.019  0.00  0.00    +0.000 NA
ATOM     13  C   UNL     1     103.446 125.675  80.467  0.00  0.00    +0.000 A 
ATOM     14  C   UNL     1     103.109 125.916  81.794  0.00  0.00    +0.000 A 
ATOM     15  C   UNL     1     103.501 124.950  82.715  0.00  0.00    +0.000 A 
ATOM     16  C   UNL     1     104.161 123.799  82.275  0.00  0.00    +0.000 A 
BRANCH  11  18
ATOM     17  C   UNL     1     106.565 122.648  80.436  0.00  0.00    +0.000 C 
ATOM     18  N   UNL     1     105.115 122.459  80.491  0.00  0.00    +0.000 N 
ATOM     19  C   UNL     1     104.698 121.261  81.221  0.00  0.00    +0.000 C 
ENDBRANCH  11  18
ENDBRANCH   1  14
TORSDOF 3
ENDMDL
