REMARK  Name = *****
REMARK  3 active torsions:
REMARK  status: ('A' for Active; 'I' for Inactive)
REMARK    1  A    between atoms: C_3  and  C_11
REMARK    2  A    between atoms: C_5  and  C_7
REMARK    3  A    between atoms: C_12  and  C_13
REMARK                            x       y       z     vdW  Elec       q    Type
REMARK                         _______ _______ _______ _____ _____    ______ ____
ROOT
ATOM      1  C   UNL     1       1.416  -0.186  -0.095  0.00  0.00    +0.000 A 
ATOM      2  C   UNL     1       0.575  -1.300  -0.116  0.00  0.00    +0.000 A 
ATOM      3  C   UNL     1      -0.810  -1.151   0.031  0.00  0.00    +0.000 A 
ATOM      4  C   UNL     1      -1.340   0.139   0.171  0.00  0.00    +0.000 A 
ATOM      5  C   UNL     1      -0.505   1.269   0.192  0.00  0.00    +0.000 A 
ATOM      6  C   UNL     1       0.880   1.091   0.061  0.00  0.00    +0.000 A 
ENDROOT
BRANCH   5   7
ATOM      7  C   UNL     1      -1.073   2.656   0.353  0.00  0.00    +0.000 C 
ATOM      8  F   UNL     1      -2.434   2.688   0.420  0.00  0.00    +0.000 F 
ATOM      9  F   UNL     1      -0.631   3.271   1.486  0.00  0.00    +0.000 F 
ATOM     10  F   UNL     1      -0.733   3.482  -0.675  0.00  0.00    +0.000 F 
ENDBRANCH   5   7
BRANCH   3  11
ATOM     11  C   UNL     1      -1.733  -2.294  -0.016  0.00  0.00    +0.000 C 
ATOM     12  C   UNL     1      -1.471  -3.493   0.527  0.00  0.00    +0.000 C 
BRANCH  12  13
ATOM     13  C   UNL     1      -2.417  -4.553   0.452  0.00  0.00    +0.000 A 
ATOM     14  C   UNL     1      -2.308  -5.846   0.953  0.00  0.00    +0.000 A 
ATOM     15  C   UNL     1      -3.499  -6.541   0.636  0.00  0.00    +0.000 A 
ATOM     16  C   UNL     1      -4.284  -5.645  -0.043  0.00  0.00    +0.000 A 
ATOM     17  O   UNL     1      -3.649  -4.455  -0.160  0.00  0.00    +0.000 OA
ENDBRANCH  12  13
ENDBRANCH   3  11
TORSDOF 3
