MODEL 1
REMARK VINA RESULT:      -4.8      0.000      0.000
REMARK  Name = *****
REMARK  5 active torsions:
REMARK  status: ('A' for Active; 'I' for Inactive)
REMARK    1  A    between atoms: C_1  and  O_2
REMARK    2  A    between atoms: O_2  and  C_3
REMARK    3  A    between atoms: C_6  and  C_9
REMARK    4  A    between atoms: C_9  and  C_10
REMARK    5  A    between atoms: C_10  and  C_11
REMARK                            x       y       z     vdW  Elec       q    Type
REMARK                         _______ _______ _______ _____ _____    ______ ____
ROOT
ATOM      1  C   UNL     1      88.807  70.195  86.877  0.00  0.00    +0.000 C 
ENDROOT
BRANCH   1   5
ATOM      2  C   UNL     1      89.041  65.872  86.860  0.00  0.00    +0.000 A 
ATOM      3  C   UNL     1      90.069  66.633  86.307  0.00  0.00    +0.000 A 
ATOM      4  C   UNL     1      89.993  68.030  86.314  0.00  0.00    +0.000 A 
ATOM      5  C   UNL     1      88.889  68.684  86.876  0.00  0.00    +0.000 A 
ATOM      6  C   UNL     1      87.857  67.915  87.425  0.00  0.00    +0.000 A 
ATOM      7  C   UNL     1      87.937  66.520  87.418  0.00  0.00    +0.000 A 
BRANCH   2   9
ATOM      8  C   UNL     1      88.329  63.935  88.039  0.00  0.00    +0.000 C 
ATOM      9  O   UNL     1      88.991  64.506  86.918  0.00  0.00    +0.000 OA
ENDBRANCH   2   9
ENDBRANCH   1   5
BRANCH   1  10
ATOM     10  C   UNL     1      87.918  70.772  85.761  0.00  0.00    +0.000 C 
ATOM     11  F   UNL     1      88.618  71.734  85.089  0.00  0.00    +0.000 F 
ATOM     12  F   UNL     1      87.667  69.793  84.843  0.00  0.00    +0.000 F 
BRANCH  10  13
ATOM     13  C   UNL     1      86.635  71.330  86.348  0.00  0.00    +0.000 A 
ATOM     14  C   UNL     1      85.627  71.835  85.511  0.00  0.00    +0.000 A 
ATOM     15  C   UNL     1      84.457  72.367  86.053  0.00  0.00    +0.000 A 
ATOM     16  C   UNL     1      84.279  72.400  87.435  0.00  0.00    +0.000 A 
ATOM     17  C   UNL     1      85.271  71.899  88.277  0.00  0.00    +0.000 A 
ATOM     18  C   UNL     1      86.442  71.366  87.738  0.00  0.00    +0.000 A 
ENDBRANCH  10  13
ENDBRANCH   1  10
TORSDOF 4
ENDMDL
