MODEL 1
REMARK VINA RESULT:      -4.6      0.000      0.000
REMARK  Name = *****
REMARK  3 active torsions:
REMARK  status: ('A' for Active; 'I' for Inactive)
REMARK    1  A    between atoms: C_1  and  C_2
REMARK    2  A    between atoms: C_5  and  C_8
REMARK    3  A    between atoms: N_9  and  C_10
REMARK                            x       y       z     vdW  Elec       q    Type
REMARK                         _______ _______ _______ _____ _____    ______ ____
ROOT
ATOM      1  C   UNL     1     102.545 126.002  81.841  0.00  0.00    +0.000 C 
ATOM      2  N   UNL     1     101.751 125.936  82.864  0.00  0.00    +0.000 NA
ENDROOT
BRANCH   1   7
ATOM      3  C   UNL     1     106.518 121.929  80.841  0.00  0.00    +0.000 C 
ATOM      4  C   UNL     1     105.465 122.969  81.088  0.00  0.00    +0.000 A 
ATOM      5  C   UNL     1     105.073 123.837  80.059  0.00  0.00    +0.000 A 
ATOM      6  C   UNL     1     104.118 124.827  80.295  0.00  0.00    +0.000 A 
ATOM      7  C   UNL     1     103.557 124.963  81.566  0.00  0.00    +0.000 A 
ATOM      8  C   UNL     1     103.950 124.115  82.603  0.00  0.00    +0.000 A 
ATOM      9  C   UNL     1     104.907 123.124  82.364  0.00  0.00    +0.000 A 
ENDBRANCH   1   7
BRANCH   2  10
ATOM     10  C   UNL     1     100.838 126.990  83.002  0.00  0.00    +0.000 A 
ATOM     11  C   UNL     1     101.232 128.203  83.567  0.00  0.00    +0.000 A 
ATOM     12  C   UNL     1     100.314 129.240  83.677  0.00  0.00    +0.000 A 
ATOM     13  C   UNL     1      99.006 129.096  83.224  0.00  0.00    +0.000 A 
ATOM     14  C   UNL     1      98.612 127.893  82.642  0.00  0.00    +0.000 A 
ATOM     15  C   UNL     1      99.530 126.845  82.529  0.00  0.00    +0.000 A 
ATOM     16  F   UNL     1     100.692 130.401  84.229  0.00  0.00    +0.000 F 
ENDBRANCH   2  10
TORSDOF 2
ENDMDL
