MODEL 1
REMARK VINA RESULT:      -4.6      0.000      0.000
REMARK  Name = *****
REMARK  4 active torsions:
REMARK  status: ('A' for Active; 'I' for Inactive)
REMARK    1  A    between atoms: C_1  and  C_2
REMARK    2  A    between atoms: C_2  and  C_3
REMARK    3  A    between atoms: C_2  and  C_10
REMARK    4  A    between atoms: C_3  and  C_4
REMARK                            x       y       z     vdW  Elec       q    Type
REMARK                         _______ _______ _______ _____ _____    ______ ____
ROOT
ATOM      1  C   UNL     1      88.256  71.600  84.698  0.00  0.00    +0.000 C 
ATOM      2  C   UNL     1      87.675  70.634  85.739  0.00  0.00    +0.000 C 
ENDROOT
BRANCH   2   3
ATOM      3  C   UNL     1      86.505  71.273  86.476  0.00  0.00    +0.000 A 
ATOM      4  C   UNL     1      85.448  71.839  85.747  0.00  0.00    +0.000 A 
ATOM      5  C   UNL     1      84.362  72.423  86.403  0.00  0.00    +0.000 A 
ATOM      6  C   UNL     1      84.318  72.448  87.795  0.00  0.00    +0.000 A 
ATOM      7  C   UNL     1      85.359  71.888  88.532  0.00  0.00    +0.000 A 
ATOM      8  C   UNL     1      86.445  71.303  87.878  0.00  0.00    +0.000 A 
ENDBRANCH   2   3
BRANCH   2   9
ATOM      9  C   UNL     1      88.741  70.138  86.742  0.00  0.00    +0.000 C 
BRANCH   9  10
ATOM     10  C   UNL     1      88.855  68.633  86.812  0.00  0.00    +0.000 A 
ATOM     11  C   UNL     1      89.968  67.976  86.270  0.00  0.00    +0.000 A 
ATOM     12  C   UNL     1      90.067  66.586  86.328  0.00  0.00    +0.000 A 
ATOM     13  C   UNL     1      89.055  65.838  86.928  0.00  0.00    +0.000 A 
ATOM     14  C   UNL     1      87.944  66.481  87.470  0.00  0.00    +0.000 A 
ATOM     15  C   UNL     1      87.844  67.871  87.414  0.00  0.00    +0.000 A 
ENDBRANCH   9  10
ENDBRANCH   2   9
TORSDOF 3
ENDMDL
