MODEL 1
REMARK VINA RESULT:      -4.5      0.000      0.000
REMARK  Name = *****
REMARK  3 active torsions:
REMARK  status: ('A' for Active; 'I' for Inactive)
REMARK    1  A    between atoms: C_4  and  C_7
REMARK    2  A    between atoms: C_7  and  O_8
REMARK    3  A    between atoms: O_8  and  C_9
REMARK                            x       y       z     vdW  Elec       q    Type
REMARK                         _______ _______ _______ _____ _____    ______ ____
ROOT
ATOM      1  C   UNL     1     103.483 125.291  81.285  0.00  0.00    +0.000 C 
ATOM      2  C   UNL     1     104.051 126.152  80.412  0.00  0.00    +0.000 C 
ATOM      3  C   UNL     1     105.232 125.259  80.076  0.00  0.00    +0.000 C 
ATOM      4  C   UNL     1     104.598 124.242  81.080  0.00  0.00    +0.000 C 
ATOM      5  F   UNL     1     104.224 123.046  80.552  0.00  0.00    +0.000 F 
ATOM      6  F   UNL     1     105.356 123.933  82.165  0.00  0.00    +0.000 F 
ATOM      7  F   UNL     1     106.472 125.704  80.408  0.00  0.00    +0.000 F 
ATOM      8  F   UNL     1     105.341 124.817  78.795  0.00  0.00    +0.000 F 
ATOM      9 CL   UNL     1     103.590 127.736  79.863  0.00  0.00    +0.000 Cl
ENDROOT
BRANCH   1  10
ATOM     10  O   UNL     1     102.424 125.330  82.008  0.00  0.00    +0.000 OA
BRANCH  10  11
ATOM     11  C   UNL     1     102.468 126.311  83.046  0.00  0.00    +0.000 C 
BRANCH  11  15
ATOM     12  C   UNL     1      98.885 128.726  83.057  0.00  0.00    +0.000 A 
ATOM     13  C   UNL     1      98.861 127.453  82.491  0.00  0.00    +0.000 A 
ATOM     14  C   UNL     1     100.018 126.672  82.476  0.00  0.00    +0.000 A 
ATOM     15  C   UNL     1     101.217 127.159  83.015  0.00  0.00    +0.000 A 
ATOM     16  C   UNL     1     101.224 128.438  83.594  0.00  0.00    +0.000 A 
ATOM     17  C   UNL     1     100.065 129.218  83.610  0.00  0.00    +0.000 A 
ENDBRANCH  11  15
ENDBRANCH  10  11
ENDBRANCH   1  10
TORSDOF 3
ENDMDL
