MODEL 1
REMARK VINA RESULT:      -4.6      0.000      0.000
REMARK  Name = *****
REMARK  1 active torsions:
REMARK  status: ('A' for Active; 'I' for Inactive)
REMARK    1  A    between atoms: C_9  and  C_12
REMARK                            x       y       z     vdW  Elec       q    Type
REMARK                         _______ _______ _______ _____ _____    ______ ____
ROOT
ATOM      1  C   UNL     1      89.720  70.970  84.932  0.00  0.00    +0.000 C 
ATOM      2  C   UNL     1      89.227  70.723  86.355  0.00  0.00    +0.000 C 
ATOM      3  C   UNL     1      89.779  69.415  86.920  0.00  0.00    +0.000 C 
ATOM      4  C   UNL     1      89.476  68.209  86.018  0.00  0.00    +0.000 C 
ATOM      5  C   UNL     1      89.989  68.484  84.594  0.00  0.00    +0.000 C 
ATOM      6  C   UNL     1      89.429  69.783  84.020  0.00  0.00    +0.000 C 
ATOM      7  O   UNL     1      90.150  67.084  86.614  0.00  0.00    +0.000 OA
ATOM      8  O   UNL     1      89.813  65.883  85.836  0.00  0.00    +0.000 OA
ATOM      9  C   UNL     1      88.389  65.693  85.911  0.00  0.00    +0.000 C 
ATOM     10  O   UNL     1      87.727  66.806  85.285  0.00  0.00    +0.000 OA
ATOM     11  O   UNL     1      88.051  68.016  86.054  0.00  0.00    +0.000 OA
ENDROOT
BRANCH   9  12
ATOM     12  C   UNL     1      87.876  65.352  87.305  0.00  0.00    +0.000 A 
ATOM     13  C   UNL     1      88.703  64.709  88.241  0.00  0.00    +0.000 A 
ATOM     14  C   UNL     1      88.237  64.436  89.528  0.00  0.00    +0.000 A 
ATOM     15  C   UNL     1      86.950  64.809  89.908  0.00  0.00    +0.000 A 
ATOM     16  C   UNL     1      86.124  65.463  88.998  0.00  0.00    +0.000 A 
ATOM     17  C   UNL     1      86.586  65.737  87.708  0.00  0.00    +0.000 A 
ATOM     18 CL   UNL     1      89.262  63.637  90.656  0.00  0.00    +0.000 Cl
ENDBRANCH   9  12
TORSDOF 1
ENDMDL
