MODEL 1
REMARK VINA RESULT:      -4.6      0.000      0.000
REMARK  Name = *****
REMARK  3 active torsions:
REMARK  status: ('A' for Active; 'I' for Inactive)
REMARK    1  A    between atoms: N_5  and  S_8
REMARK    2  A    between atoms: S_8  and  N_11
REMARK    3  A    between atoms: N_11  and  C_12
REMARK                            x       y       z     vdW  Elec       q    Type
REMARK                         _______ _______ _______ _____ _____    ______ ____
ROOT
ATOM      1  S   UNL     1     103.217 127.564  82.488  0.00  0.00    +0.000 S 
ATOM      2  O   UNL     1     103.898 128.816  82.268  0.00  0.00    +0.000 OA
ATOM      3  O   UNL     1     103.720 126.557  83.392  0.00  0.00    +0.000 OA
ENDROOT
BRANCH   1   8
ATOM      4  C   UNL     1      99.003 129.203  83.111  0.00  0.00    +0.000 C 
ATOM      5  C   UNL     1      98.478 127.783  82.884  0.00  0.00    +0.000 C 
ATOM      6  C   UNL     1      99.508 126.783  82.358  0.00  0.00    +0.000 C 
ATOM      7  C   UNL     1     100.787 126.699  83.189  0.00  0.00    +0.000 C 
ATOM      8  N   UNL     1     101.608 127.903  82.908  0.00  0.00    +0.000 NA
ATOM      9  C   UNL     1     101.447 128.993  83.907  0.00  0.00    +0.000 C 
ATOM     10  C   UNL     1      99.991 129.288  84.272  0.00  0.00    +0.000 C 
ENDBRANCH   1   8
BRANCH   1  11
ATOM     11  N   UNL     1     102.935 126.784  81.012  0.00  0.00    +0.000 N 
ATOM     12  H   UNL     1     102.104 126.901  80.496  0.00  0.00    +0.000 HD
BRANCH  11  13
ATOM     13  C   UNL     1     104.006 125.941  80.578  0.00  0.00    +0.000 A 
ATOM     14  C   UNL     1     103.907 124.555  80.705  0.00  0.00    +0.000 A 
ATOM     15  C   UNL     1     104.980 123.744  80.319  0.00  0.00    +0.000 A 
ATOM     16  C   UNL     1     106.155 124.323  79.821  0.00  0.00    +0.000 A 
ATOM     17  C   UNL     1     106.253 125.712  79.718  0.00  0.00    +0.000 A 
ATOM     18  C   UNL     1     105.181 126.521  80.102  0.00  0.00    +0.000 A 
ATOM     19 CL   UNL     1     107.515 123.381  79.325  0.00  0.00    +0.000 Cl
ATOM     20 CL   UNL     1     104.791 122.033  80.486  0.00  0.00    +0.000 Cl
ENDBRANCH  11  13
ENDBRANCH   1  11
TORSDOF 3
ENDMDL
