MODEL 1
REMARK VINA RESULT:      -5.0      0.000      0.000
REMARK  Name = *****
REMARK  4 active torsions:
REMARK  status: ('A' for Active; 'I' for Inactive)
REMARK    1  A    between atoms: C_4  and  C_7
REMARK    2  A    between atoms: C_7  and  C_9
REMARK    3  A    between atoms: C_9  and  C_10
REMARK    4  A    between atoms: C_10  and  C_11
REMARK                            x       y       z     vdW  Elec       q    Type
REMARK                         _______ _______ _______ _____ _____    ______ ____
ROOT
ATOM      1  C   UNL     1     100.317 126.680  82.615  0.00  0.00    +0.000 C 
ENDROOT
BRANCH   1   2
ATOM      2  C   UNL     1      99.109 127.590  82.742  0.00  0.00    +0.000 C 
ATOM      3  O   UNL     1      98.099 127.436  82.056  0.00  0.00    +0.000 OA
BRANCH   2   7
ATOM      4  C   UNL     1      99.262 130.871  85.513  0.00  0.00    +0.000 A 
ATOM      5  C   UNL     1      99.070 129.577  85.996  0.00  0.00    +0.000 A 
ATOM      6  C   UNL     1      99.016 128.497  85.111  0.00  0.00    +0.000 A 
ATOM      7  C   UNL     1      99.156 128.709  83.734  0.00  0.00    +0.000 A 
ATOM      8  C   UNL     1      99.348 130.013  83.257  0.00  0.00    +0.000 A 
ATOM      9  C   UNL     1      99.401 131.091  84.145  0.00  0.00    +0.000 A 
ENDBRANCH   2   7
ENDBRANCH   1   2
BRANCH   1  10
ATOM     10  C   UNL     1     101.626 127.464  82.706  0.00  0.00    +0.000 C 
BRANCH  10  11
ATOM     11  C   UNL     1     102.671 126.898  81.774  0.00  0.00    +0.000 A 
ATOM     12  C   UNL     1     102.785 125.513  81.593  0.00  0.00    +0.000 A 
ATOM     13  C   UNL     1     103.766 124.990  80.748  0.00  0.00    +0.000 A 
ATOM     14  C   UNL     1     104.640 125.849  80.085  0.00  0.00    +0.000 A 
ATOM     15  C   UNL     1     104.541 127.227  80.260  0.00  0.00    +0.000 A 
ATOM     16  C   UNL     1     103.559 127.751  81.105  0.00  0.00    +0.000 A 
ATOM     17 CL   UNL     1     105.851 125.203  79.047  0.00  0.00    +0.000 Cl
ENDBRANCH  10  11
ENDBRANCH   1  10
TORSDOF 4
ENDMDL
