MODEL 1
REMARK VINA RESULT:      -4.6      0.000      0.000
REMARK  Name = *****
REMARK  2 active torsions:
REMARK  status: ('A' for Active; 'I' for Inactive)
REMARK    1  A    between atoms: C_4  and  C_7
REMARK    2  A    between atoms: C_8  and  C_10
REMARK                            x       y       z     vdW  Elec       q    Type
REMARK                         _______ _______ _______ _____ _____    ______ ____
ROOT
ATOM      1  C   UNL     1     102.827 126.689  82.527  0.00  0.00    +0.000 C 
ATOM      2  C   UNL     1     102.945 125.217  82.167  0.00  0.00    +0.000 C 
ATOM      3  S   UNL     1     103.488 125.658  83.751  0.00  0.00    +0.000 S 
ENDROOT
BRANCH   1   7
ATOM      4  C   UNL     1      98.911 128.447  83.196  0.00  0.00    +0.000 A 
ATOM      5  C   UNL     1     100.053 129.111  83.628  0.00  0.00    +0.000 A 
ATOM      6  C   UNL     1     101.313 128.544  83.419  0.00  0.00    +0.000 A 
ATOM      7  C   UNL     1     101.465 127.296  82.786  0.00  0.00    +0.000 A 
ATOM      8  C   UNL     1     100.292 126.655  82.349  0.00  0.00    +0.000 A 
ATOM      9  C   UNL     1      99.028 127.219  82.554  0.00  0.00    +0.000 A 
ENDBRANCH   1   7
BRANCH   2  10
ATOM     10  C   UNL     1     103.988 124.768  81.167  0.00  0.00    +0.000 A 
ATOM     11  C   UNL     1     104.568 125.658  80.246  0.00  0.00    +0.000 A 
ATOM     12  C   UNL     1     105.552 125.242  79.344  0.00  0.00    +0.000 A 
ATOM     13  C   UNL     1     105.991 123.922  79.352  0.00  0.00    +0.000 A 
ATOM     14  C   UNL     1     105.448 123.021  80.262  0.00  0.00    +0.000 A 
ATOM     15  C   UNL     1     104.463 123.442  81.160  0.00  0.00    +0.000 A 
ENDBRANCH   2  10
TORSDOF 2
ENDMDL
