MODEL 1
REMARK VINA RESULT:      -4.8      0.000      0.000
REMARK  Name = *****
REMARK  7 active torsions:
REMARK  status: ('A' for Active; 'I' for Inactive)
REMARK    1  A    between atoms: C_1  and  C_2
REMARK    2  A    between atoms: C_4  and  C_19
REMARK    3  A    between atoms: C_5  and  C_10
REMARK    4  A    between atoms: C_6  and  C_9
REMARK    5  A    between atoms: C_7  and  C_8
REMARK    6  A    between atoms: C_10  and  C_11
REMARK    7  A    between atoms: C_11  and  C_13
REMARK                            x       y       z     vdW  Elec       q    Type
REMARK                         _______ _______ _______ _____ _____    ______ ____
ROOT
ATOM      1  C   UNL     1      84.347  71.984  86.998  0.00  0.00    +0.000 C 
ATOM      2  C   UNL     1      85.728  71.656  86.497  0.00  0.00    +0.000 A 
ATOM      3  C   UNL     1      86.649  71.112  87.400  0.00  0.00    +0.000 A 
ATOM      4  C   UNL     1      87.958  70.789  87.017  0.00  0.00    +0.000 A 
ATOM      5  C   UNL     1      88.358  70.974  85.674  0.00  0.00    +0.000 A 
ATOM      6  C   UNL     1      87.435  71.534  84.743  0.00  0.00    +0.000 A 
ATOM      7  C   UNL     1      86.131  71.916  85.171  0.00  0.00    +0.000 A 
ATOM      8  C   UNL     1      85.166  72.556  84.199  0.00  0.00    +0.000 C 
ATOM      9  C   UNL     1      87.844  71.813  83.311  0.00  0.00    +0.000 C 
ATOM     10  C   UNL     1      88.886  70.242  88.070  0.00  0.00    +0.000 C 
ENDROOT
BRANCH   5  11
ATOM     11  C   UNL     1      89.766  70.587  85.241  0.00  0.00    +0.000 C 
BRANCH  11  12
ATOM     12  C   UNL     1      89.852  69.262  84.496  0.00  0.00    +0.000 C 
ATOM     13  O   UNL     1      90.406  69.134  83.406  0.00  0.00    +0.000 OA
BRANCH  12  14
ATOM     14  C   UNL     1      89.250  68.052  85.136  0.00  0.00    +0.000 A 
ATOM     15  C   UNL     1      90.022  67.338  86.064  0.00  0.00    +0.000 A 
ATOM     16  C   UNL     1      89.507  66.201  86.689  0.00  0.00    +0.000 A 
ATOM     17  C   UNL     1      88.215  65.770  86.393  0.00  0.00    +0.000 A 
ATOM     18  C   UNL     1      87.438  66.477  85.477  0.00  0.00    +0.000 A 
ATOM     19  C   UNL     1      87.950  67.616  84.850  0.00  0.00    +0.000 A 
ENDBRANCH  12  14
ENDBRANCH  11  12
ENDBRANCH   5  11
TORSDOF 3
ENDMDL
