MODEL 1
REMARK VINA RESULT:      -4.6      0.000      0.000
REMARK  Name = *****
REMARK  4 active torsions:
REMARK  status: ('A' for Active; 'I' for Inactive)
REMARK    1  A    between atoms: C_1  and  C_2
REMARK    2  A    between atoms: C_5  and  S_8
REMARK    3  A    between atoms: S_8  and  O_10
REMARK    4  A    between atoms: O_10  and  C_11
REMARK                            x       y       z     vdW  Elec       q    Type
REMARK                         _______ _______ _______ _____ _____    ______ ____
ROOT
ATOM      1  S   UNL     1     103.257 126.499  81.806  0.00  0.00    +0.000 S 
ATOM      2  O   UNL     1     103.268 126.987  80.386  0.00  0.00    +0.000 OA
ENDROOT
BRANCH   1   7
ATOM      3  C   UNL     1     105.480 120.793  81.689  0.00  0.00    +0.000 C 
ATOM      4  C   UNL     1     104.961 122.201  81.717  0.00  0.00    +0.000 A 
ATOM      5  C   UNL     1     104.482 122.755  82.910  0.00  0.00    +0.000 A 
ATOM      6  C   UNL     1     103.968 124.054  82.930  0.00  0.00    +0.000 A 
ATOM      7  C   UNL     1     103.914 124.812  81.753  0.00  0.00    +0.000 A 
ATOM      8  C   UNL     1     104.384 124.256  80.559  0.00  0.00    +0.000 A 
ATOM      9  C   UNL     1     104.897 122.956  80.540  0.00  0.00    +0.000 A 
ENDBRANCH   1   7
BRANCH   1  10
ATOM     10  O   UNL     1     101.761 125.986  82.129  0.00  0.00    +0.000 OA
BRANCH  10  11
ATOM     11  C   UNL     1     100.909 126.952  82.599  0.00  0.00    +0.000 A 
ATOM     12  C   UNL     1     101.375 128.096  83.250  0.00  0.00    +0.000 A 
ATOM     13  C   UNL     1     100.470 129.067  83.675  0.00  0.00    +0.000 A 
ATOM     14  C   UNL     1      99.105 128.903  83.433  0.00  0.00    +0.000 A 
ATOM     15  C   UNL     1      98.644 127.773  82.759  0.00  0.00    +0.000 A 
ATOM     16  C   UNL     1      99.547 126.799  82.332  0.00  0.00    +0.000 A 
ENDBRANCH  10  11
ENDBRANCH   1  10
TORSDOF 3
ENDMDL
