REMARK  Name = *****
REMARK  4 active torsions:
REMARK  status: ('A' for Active; 'I' for Inactive)
REMARK    1  A    between atoms: C_1  and  C_2
REMARK    2  A    between atoms: C_2  and  C_12
REMARK    3  A    between atoms: C_4  and  C_5
REMARK    4  A    between atoms: C_8  and  O_11
REMARK                            x       y       z     vdW  Elec       q    Type
REMARK                         _______ _______ _______ _____ _____    ______ ____
ROOT
ATOM      1  C   UNL     1       0.731   0.061  -0.188  0.00  0.00    +0.000 C 
ATOM      2  C   UNL     1       2.238   0.012  -0.064  0.00  0.00    +0.000 C 
ATOM      3  C   UNL     1       3.029   0.814  -1.077  0.00  0.00    +0.000 C 
ATOM      4  C   UNL     1       3.085  -0.690  -1.137  0.00  0.00    +0.000 C 
ENDROOT
BRANCH   4   5
ATOM      5  C   UNL     1       2.444  -1.457  -2.271  0.00  0.00    +0.000 A 
ATOM      6  C   UNL     1       2.572  -1.048  -3.610  0.00  0.00    +0.000 A 
ATOM      7  C   UNL     1       1.990  -1.772  -4.656  0.00  0.00    +0.000 A 
ATOM      8  C   UNL     1       1.279  -2.930  -4.370  0.00  0.00    +0.000 A 
ATOM      9  C   UNL     1       1.145  -3.372  -3.062  0.00  0.00    +0.000 A 
ATOM     10  C   UNL     1       1.728  -2.641  -2.023  0.00  0.00    +0.000 A 
BRANCH   8  11
ATOM     11  O   UNL     1       0.695  -3.669  -5.355  0.00  0.00    +0.000 OA
ATOM     12  H   UNL     1       0.767  -3.398  -6.249  0.00  0.00    +0.000 HD
ENDBRANCH   8  11
ENDBRANCH   4   5
BRANCH   2  13
ATOM     13  C   UNL     1       2.741  -0.054   1.374  0.00  0.00    +0.000 A 
ATOM     14  C   UNL     1       2.926  -1.286   2.025  0.00  0.00    +0.000 A 
ATOM     15  C   UNL     1       3.373  -1.354   3.347  0.00  0.00    +0.000 A 
ATOM     16  C   UNL     1       3.639  -0.184   4.052  0.00  0.00    +0.000 A 
ATOM     17  C   UNL     1       3.457   1.051   3.435  0.00  0.00    +0.000 A 
ATOM     18  C   UNL     1       3.010   1.112   2.113  0.00  0.00    +0.000 A 
ENDBRANCH   2  13
TORSDOF 3
