MODEL 1
REMARK VINA RESULT:      -4.6      0.000      0.000
REMARK  Name = *****
REMARK  3 active torsions:
REMARK  status: ('A' for Active; 'I' for Inactive)
REMARK    1  A    between atoms: C_5  and  N_7
REMARK    2  A    between atoms: N_7  and  C_8
REMARK    3  A    between atoms: C_8  and  C_10
REMARK                            x       y       z     vdW  Elec       q    Type
REMARK                         _______ _______ _______ _____ _____    ______ ____
ROOT
ATOM      1  N   UNL     1     102.190 126.121  82.536  0.00  0.00    +0.000 N 
ATOM      2  H   UNL     1     102.272 125.416  83.218  0.00  0.00    +0.000 HD
ENDROOT
BRANCH   1   7
ATOM      3  C   UNL     1      98.762 127.679  82.622  0.00  0.00    +0.000 A 
ATOM      4  C   UNL     1      99.044 128.872  83.281  0.00  0.00    +0.000 A 
ATOM      5  C   UNL     1     100.348 129.144  83.678  0.00  0.00    +0.000 A 
ATOM      6  C   UNL     1     101.361 128.216  83.418  0.00  0.00    +0.000 A 
ATOM      7  C   UNL     1     101.092 126.993  82.764  0.00  0.00    +0.000 A 
ATOM      8  C   UNL     1      99.779 126.749  82.362  0.00  0.00    +0.000 A 
ATOM      9 CL   UNL     1     102.970 128.617  83.928  0.00  0.00    +0.000 Cl
ENDBRANCH   1   7
BRANCH   1  10
ATOM     10  C   UNL     1     103.171 126.052  81.556  0.00  0.00    +0.000 C 
ATOM     11  S   UNL     1     103.617 127.196  80.417  0.00  0.00    +0.000 S 
BRANCH  10  12
ATOM     12  C   UNL     1     103.857 124.723  81.568  0.00  0.00    +0.000 A 
ATOM     13  C   UNL     1     104.000 124.003  82.760  0.00  0.00    +0.000 A 
ATOM     14  C   UNL     1     104.665 122.775  82.750  0.00  0.00    +0.000 A 
ATOM     15  C   UNL     1     105.180 122.283  81.554  0.00  0.00    +0.000 A 
ATOM     16  C   UNL     1     105.047 122.993  80.365  0.00  0.00    +0.000 A 
ATOM     17  C   UNL     1     104.384 124.221  80.368  0.00  0.00    +0.000 A 
ATOM     18  F   UNL     1     105.817 121.104  81.548  0.00  0.00    +0.000 F 
ENDBRANCH  10  12
ENDBRANCH   1  10
TORSDOF 3
ENDMDL
