MODEL 1
REMARK VINA RESULT:      -4.8      0.000      0.000
REMARK  Name = *****
REMARK  4 active torsions:
REMARK  status: ('A' for Active; 'I' for Inactive)
REMARK    1  A    between atoms: C_1  and  C_2
REMARK    2  A    between atoms: C_5  and  N_8
REMARK    3  A    between atoms: N_8  and  C_9
REMARK    4  A    between atoms: C_9  and  C_11
REMARK                            x       y       z     vdW  Elec       q    Type
REMARK                         _______ _______ _______ _____ _____    ______ ____
ROOT
ATOM      1  N   UNL     1      88.970  63.823  87.992  0.00  0.00    +0.000 N 
ATOM      2  H   UNL     1      89.868  63.722  88.381  0.00  0.00    +0.000 HD
ENDROOT
BRANCH   1   7
ATOM      3  C   UNL     1      84.655  61.705  91.134  0.00  0.00    +0.000 C 
ATOM      4  C   UNL     1      85.770  62.294  90.322  0.00  0.00    +0.000 A 
ATOM      5  C   UNL     1      86.567  63.315  90.844  0.00  0.00    +0.000 A 
ATOM      6  C   UNL     1      87.633  63.847  90.103  0.00  0.00    +0.000 A 
ATOM      7  C   UNL     1      87.934  63.357  88.835  0.00  0.00    +0.000 A 
ATOM      8  C   UNL     1      87.130  62.330  88.316  0.00  0.00    +0.000 A 
ATOM      9  C   UNL     1      86.067  61.796  89.054  0.00  0.00    +0.000 A 
ENDBRANCH   1   7
BRANCH   1  10
ATOM     10  C   UNL     1      88.974  64.393  86.724  0.00  0.00    +0.000 C 
ATOM     11  S   UNL     1      88.943  63.653  85.220  0.00  0.00    +0.000 S 
BRANCH  10  12
ATOM     12  C   UNL     1      88.969  65.884  86.801  0.00  0.00    +0.000 A 
ATOM     13  C   UNL     1      87.867  66.531  87.378  0.00  0.00    +0.000 A 
ATOM     14  C   UNL     1      87.836  67.926  87.434  0.00  0.00    +0.000 A 
ATOM     15  C   UNL     1      88.899  68.666  86.914  0.00  0.00    +0.000 A 
ATOM     16  C   UNL     1      89.995  68.023  86.335  0.00  0.00    +0.000 A 
ATOM     17  C   UNL     1      90.032  66.628  86.276  0.00  0.00    +0.000 A 
ATOM     18 CL   UNL     1      88.856  70.384  86.983  0.00  0.00    +0.000 Cl
ENDBRANCH  10  12
ENDBRANCH   1  10
TORSDOF 3
ENDMDL
