MODEL 1
REMARK VINA RESULT:      -4.4      0.000      0.000
REMARK  Name = *****
REMARK  4 active torsions:
REMARK  status: ('A' for Active; 'I' for Inactive)
REMARK    1  A    between atoms: C_4  and  C_7
REMARK    2  A    between atoms: C_7  and  S_8
REMARK    3  A    between atoms: S_8  and  C_9
REMARK    4  A    between atoms: C_14  and  O_15
REMARK                            x       y       z     vdW  Elec       q    Type
REMARK                         _______ _______ _______ _____ _____    ______ ____
ROOT
ATOM      1  S   UNL     1     103.072 126.747  81.350  0.00  0.00    +0.000 S 
ENDROOT
BRANCH   1   2
ATOM      2  C   UNL     1     103.781 125.346  80.423  0.00  0.00    +0.000 C 
ATOM      3  C   UNL     1     104.121 124.158  81.333  0.00  0.00    +0.000 C 
ATOM      4  C   UNL     1     104.852 123.049  80.565  0.00  0.00    +0.000 C 
ATOM      5  C   UNL     1     106.124 123.567  79.886  0.00  0.00    +0.000 C 
ATOM      6  C   UNL     1     105.824 124.735  78.955  0.00  0.00    +0.000 C 
ATOM      7  C   UNL     1     105.060 125.769  79.729  0.00  0.00    +0.000 C 
BRANCH   7   8
ATOM      8  O   UNL     1     105.508 126.976  79.822  0.00  0.00    +0.000 OA
ATOM      9  H   UNL     1     105.022 127.621  80.296  0.00  0.00    +0.000 HD
ENDBRANCH   7   8
ENDBRANCH   1   2
BRANCH   1  10
ATOM     10  C   UNL     1     101.775 125.885  82.311  0.00  0.00    +0.000 C 
BRANCH  10  14
ATOM     11  C   UNL     1      99.382 129.415  83.338  0.00  0.00    +0.000 C 
ATOM     12  C   UNL     1      98.662 128.075  83.243  0.00  0.00    +0.000 C 
ATOM     13  C   UNL     1      99.494 127.036  82.492  0.00  0.00    +0.000 C 
ATOM     14  C   UNL     1     100.893 126.863  83.111  0.00  0.00    +0.000 C 
ATOM     15  C   UNL     1     101.604 128.227  83.204  0.00  0.00    +0.000 C 
ATOM     16  C   UNL     1     100.767 129.259  83.956  0.00  0.00    +0.000 C 
ENDBRANCH  10  14
ENDBRANCH   1  10
TORSDOF 4
ENDMDL
