MODEL 1
REMARK VINA RESULT:      -4.4      0.000      0.000
REMARK  Name = *****
REMARK  4 active torsions:
REMARK  status: ('A' for Active; 'I' for Inactive)
REMARK    1  A    between atoms: C_1  and  C_2
REMARK    2  A    between atoms: C_2  and  C_3
REMARK    3  A    between atoms: C_2  and  O_9
REMARK    4  A    between atoms: O_9  and  C_10
REMARK                            x       y       z     vdW  Elec       q    Type
REMARK                         _______ _______ _______ _____ _____    ______ ____
ROOT
ATOM      1  C   UNL     1      88.292  71.126  89.288  0.00  0.00    +0.000 C 
ATOM      2  C   UNL     1      87.474  70.304  88.292  0.00  0.00    +0.000 C 
ENDROOT
BRANCH   2   3
ATOM      3  C   UNL     1      86.274  71.116  87.824  0.00  0.00    +0.000 A 
ATOM      4  C   UNL     1      86.063  71.400  86.465  0.00  0.00    +0.000 A 
ATOM      5  C   UNL     1      84.970  72.167  86.058  0.00  0.00    +0.000 A 
ATOM      6  C   UNL     1      84.077  72.666  87.004  0.00  0.00    +0.000 A 
ATOM      7  C   UNL     1      84.277  72.401  88.357  0.00  0.00    +0.000 A 
ATOM      8  C   UNL     1      85.369  71.634  88.765  0.00  0.00    +0.000 A 
ENDBRANCH   2   3
BRANCH   2   9
ATOM      9  O   UNL     1      88.279  69.978  87.151  0.00  0.00    +0.000 OA
BRANCH   9  10
ATOM     10  C   UNL     1      88.698  68.691  86.962  0.00  0.00    +0.000 A 
ATOM     11  C   UNL     1      89.881  68.283  86.343  0.00  0.00    +0.000 A 
ATOM     12  C   UNL     1      90.171  66.920  86.217  0.00  0.00    +0.000 A 
ATOM     13  C   UNL     1      89.278  65.974  86.708  0.00  0.00    +0.000 A 
ATOM     14  C   UNL     1      88.097  66.363  87.321  0.00  0.00    +0.000 A 
ATOM     15  C   UNL     1      87.808  67.724  87.446  0.00  0.00    +0.000 A 
ATOM     16  F   UNL     1      89.562  64.672  86.583  0.00  0.00    +0.000 F 
ENDBRANCH   9  10
ENDBRANCH   2   9
TORSDOF 3
ENDMDL
