MODEL 1
REMARK VINA RESULT:      -5.1      0.000      0.000
REMARK  Name = *****
REMARK  1 active torsions:
REMARK  status: ('A' for Active; 'I' for Inactive)
REMARK    1  A    between atoms: C_4  and  C_7
REMARK                            x       y       z     vdW  Elec       q    Type
REMARK                         _______ _______ _______ _____ _____    ______ ____
ROOT
ATOM      1  C   UNL     1     103.015 125.906  82.391  0.00  0.00    +0.000 A 
ATOM      2  C   UNL     1     101.682 125.908  82.269  0.00  0.00    +0.000 A 
ATOM      3  C   UNL     1     100.825 127.025  82.668  0.00  0.00    +0.000 A 
ATOM      4  C   UNL     1      99.441 126.913  82.447  0.00  0.00    +0.000 A 
ATOM      5  C   UNL     1      98.570 127.942  82.810  0.00  0.00    +0.000 A 
ATOM      6  C   UNL     1      99.069 129.097  83.402  0.00  0.00    +0.000 A 
ATOM      7  C   UNL     1     100.439 129.221  83.628  0.00  0.00    +0.000 A 
ATOM      8  C   UNL     1     101.325 128.190  83.263  0.00  0.00    +0.000 A 
ATOM      9  C   UNL     1     102.769 128.393  83.535  0.00  0.00    +0.000 A 
ATOM     10  O   UNL     1     103.147 129.409  84.111  0.00  0.00    +0.000 OA
ATOM     11  S   UNL     1     103.946 127.201  83.029  0.00  0.00    +0.000 S 
ENDROOT
BRANCH   1  15
ATOM     12  C   UNL     1     105.194 122.465  81.097  0.00  0.00    +0.000 A 
ATOM     13  C   UNL     1     104.885 123.478  80.189  0.00  0.00    +0.000 A 
ATOM     14  C   UNL     1     104.180 124.606  80.613  0.00  0.00    +0.000 A 
ATOM     15  C   UNL     1     103.779 124.729  81.951  0.00  0.00    +0.000 A 
ATOM     16  C   UNL     1     104.092 123.704  82.855  0.00  0.00    +0.000 A 
ATOM     17  C   UNL     1     104.798 122.578  82.428  0.00  0.00    +0.000 A 
ENDBRANCH   1  15
TORSDOF 1
ENDMDL
