MODEL 1
REMARK VINA RESULT:      -4.3      0.000      0.000
REMARK  Name = *****
REMARK  4 active torsions:
REMARK  status: ('A' for Active; 'I' for Inactive)
REMARK    1  A    between atoms: C_4  and  S_7
REMARK    2  A    between atoms: S_7  and  S_8
REMARK    3  A    between atoms: S_8  and  C_9
REMARK    4  A    between atoms: C_14  and  C_15
REMARK                            x       y       z     vdW  Elec       q    Type
REMARK                         _______ _______ _______ _____ _____    ______ ____
ROOT
ATOM      1  S   UNL     1     101.556 126.624  83.578  0.00  0.00    +0.000 S 
ENDROOT
BRANCH   1   2
ATOM      2  C   UNL     1     100.963 128.299  83.798  0.00  0.00    +0.000 A 
ATOM      3  C   UNL     1     101.804 129.213  84.453  0.00  0.00    +0.000 A 
ATOM      4  C   UNL     1     101.401 130.534  84.657  0.00  0.00    +0.000 A 
ATOM      5  C   UNL     1     100.150 130.956  84.217  0.00  0.00    +0.000 A 
ATOM      6  C   UNL     1      99.300 130.057  83.573  0.00  0.00    +0.000 A 
ATOM      7  C   UNL     1      99.698 128.727  83.361  0.00  0.00    +0.000 A 
BRANCH   7   8
ATOM      8  C   UNL     1      98.781 127.842  82.699  0.00  0.00    +0.000 C 
ATOM      9  N   UNL     1      98.044 127.102  82.193  0.00  0.00    +0.000 NA
ENDBRANCH   7   8
ENDBRANCH   1   2
BRANCH   1  10
ATOM     10  S   UNL     1     102.608 126.789  81.816  0.00  0.00    +0.000 S 
BRANCH  10  14
ATOM     11  C   UNL     1     104.917 122.833  81.695  0.00  0.00    +0.000 A 
ATOM     12  C   UNL     1     104.421 123.309  82.908  0.00  0.00    +0.000 A 
ATOM     13  C   UNL     1     103.716 124.514  82.949  0.00  0.00    +0.000 A 
ATOM     14  C   UNL     1     103.508 125.250  81.778  0.00  0.00    +0.000 A 
ATOM     15  C   UNL     1     104.000 124.761  80.563  0.00  0.00    +0.000 A 
ATOM     16  C   UNL     1     104.706 123.556  80.523  0.00  0.00    +0.000 A 
ENDBRANCH  10  14
ENDBRANCH   1  10
TORSDOF 4
ENDMDL
