MODEL 1
REMARK VINA RESULT:      -4.4      0.000      0.000
REMARK  Name = *****
REMARK  2 active torsions:
REMARK  status: ('A' for Active; 'I' for Inactive)
REMARK    1  A    between atoms: C_4  and  O_7
REMARK    2  A    between atoms: O_7  and  C_8
REMARK                            x       y       z     vdW  Elec       q    Type
REMARK                         _______ _______ _______ _____ _____    ______ ____
ROOT
ATOM      1  C   UNL     1     104.451 124.383  80.255  0.00  0.00    +0.000 A 
ATOM      2  N   UNL     1     104.461 123.243  80.907  0.00  0.00    +0.000 NA
ATOM      3  C   UNL     1     105.704 122.630  80.794  0.00  0.00    +0.000 A 
ATOM      4  C   UNL     1     106.635 123.337  80.026  0.00  0.00    +0.000 A 
ATOM      5  S   UNL     1     105.907 124.788  79.452  0.00  0.00    +0.000 S 
ATOM      6  C   UNL     1     107.941 122.860  79.806  0.00  0.00    +0.000 A 
ATOM      7  C   UNL     1     108.316 121.638  80.379  0.00  0.00    +0.000 A 
ATOM      8  C   UNL     1     107.417 120.911  81.149  0.00  0.00    +0.000 A 
ATOM      9  C   UNL     1     106.129 121.405  81.351  0.00  0.00    +0.000 A 
ATOM     10 CL   UNL     1     104.981 120.557  82.294  0.00  0.00    +0.000 Cl
ENDROOT
BRANCH   1  11
ATOM     11  O   UNL     1     103.390 125.190  80.164  0.00  0.00    +0.000 OA
BRANCH  11  15
ATOM     12  C   UNL     1     102.333 128.018  83.032  0.00  0.00    +0.000 A 
ATOM     13  C   UNL     1     103.392 128.297  82.168  0.00  0.00    +0.000 A 
ATOM     14  C   UNL     1     103.775 127.363  81.203  0.00  0.00    +0.000 A 
ATOM     15  C   UNL     1     103.108 126.139  81.115  0.00  0.00    +0.000 A 
ATOM     16  C   UNL     1     102.033 125.871  81.965  0.00  0.00    +0.000 A 
ATOM     17  C   UNL     1     101.651 126.806  82.928  0.00  0.00    +0.000 A 
ENDBRANCH  11  15
ENDBRANCH   1  11
TORSDOF 2
ENDMDL
