MODEL 1
REMARK VINA RESULT:      -5.0      0.000      0.000
REMARK  Name = *****
REMARK  4 active torsions:
REMARK  status: ('A' for Active; 'I' for Inactive)
REMARK    1  A    between atoms: C_1  and  C_2
REMARK    2  A    between atoms: C_5  and  C_8
REMARK    3  A    between atoms: C_9  and  C_10
REMARK    4  A    between atoms: C_15  and  C_17
REMARK                            x       y       z     vdW  Elec       q    Type
REMARK                         _______ _______ _______ _____ _____    ______ ____
ROOT
ATOM      1  C   UNL     1     102.755 125.797  81.284  0.00  0.00    +0.000 C 
ATOM      2  C   UNL     1     102.176 125.973  82.484  0.00  0.00    +0.000 C 
ENDROOT
BRANCH   2   3
ATOM      3  C   UNL     1     101.089 126.895  82.757  0.00  0.00    +0.000 A 
ATOM      4  C   UNL     1      99.824 126.620  82.412  0.00  0.00    +0.000 A 
ATOM      5  C   UNL     1      98.772 127.600  82.719  0.00  0.00    +0.000 A 
ATOM      6  O   UNL     1      97.601 127.397  82.423  0.00  0.00    +0.000 OA
ATOM      7  C   UNL     1      99.187 128.839  83.399  0.00  0.00    +0.000 A 
ATOM      8  C   UNL     1     100.481 129.010  83.697  0.00  0.00    +0.000 A 
ATOM      9  O   UNL     1     101.454 128.070  83.396  0.00  0.00    +0.000 OA
ATOM     10  C   UNL     1     101.006 130.230  84.386  0.00  0.00    +0.000 C 
ENDBRANCH   2   3
BRANCH   1  15
ATOM     11  C   UNL     1     107.172 122.139  80.493  0.00  0.00    +0.000 C 
ATOM     12  C   UNL     1     106.009 123.069  80.672  0.00  0.00    +0.000 A 
ATOM     13  C   UNL     1     105.717 124.037  79.705  0.00  0.00    +0.000 A 
ATOM     14  C   UNL     1     104.654 124.926  79.888  0.00  0.00    +0.000 A 
ATOM     15  C   UNL     1     103.862 124.862  81.041  0.00  0.00    +0.000 A 
ATOM     16  C   UNL     1     104.175 123.913  82.021  0.00  0.00    +0.000 A 
ATOM     17  C   UNL     1     105.239 123.025  81.838  0.00  0.00    +0.000 A 
ENDBRANCH   1  15
TORSDOF 2
ENDMDL
