MODEL 1
REMARK VINA RESULT:      -4.4      0.000      0.000
REMARK  Name = *****
REMARK  4 active torsions:
REMARK  status: ('A' for Active; 'I' for Inactive)
REMARK    1  A    between atoms: C_1  and  C_2
REMARK    2  A    between atoms: C_6  and  C_7
REMARK    3  A    between atoms: C_7  and  C_8
REMARK    4  A    between atoms: C_8  and  C_9
REMARK                            x       y       z     vdW  Elec       q    Type
REMARK                         _______ _______ _______ _____ _____    ______ ____
ROOT
ATOM      1  C   UNL     1      87.882  69.481  87.643  0.00  0.00    +0.000 C 
ENDROOT
BRANCH   1   7
ATOM      2  C   UNL     1      89.682  67.020  86.416  0.00  0.00    +0.000 C 
ATOM      3  C   UNL     1      89.654  68.483  86.144  0.00  0.00    +0.000 C 
ATOM      4  C   UNL     1      89.873  69.077  84.965  0.00  0.00    +0.000 C 
ATOM      5  C   UNL     1      89.767  70.561  85.063  0.00  0.00    +0.000 C 
ATOM      6  C   UNL     1      89.811  70.801  86.572  0.00  0.00    +0.000 C 
ATOM      7  C   UNL     1      89.362  69.485  87.235  0.00  0.00    +0.000 C 
ENDBRANCH   1   7
BRANCH   1   8
ATOM      8  C   UNL     1      87.454  70.798  88.300  0.00  0.00    +0.000 C 
BRANCH   8   9
ATOM      9  C   UNL     1      86.282  71.422  87.583  0.00  0.00    +0.000 A 
ATOM     10  C   UNL     1      85.193  71.927  88.307  0.00  0.00    +0.000 A 
ATOM     11  C   UNL     1      84.102  72.490  87.641  0.00  0.00    +0.000 A 
ATOM     12  C   UNL     1      84.088  72.548  86.249  0.00  0.00    +0.000 A 
ATOM     13  C   UNL     1      85.163  72.041  85.520  0.00  0.00    +0.000 A 
ATOM     14  C   UNL     1      86.254  71.480  86.184  0.00  0.00    +0.000 A 
ENDBRANCH   8   9
ENDBRANCH   1   8
TORSDOF 3
ENDMDL
