MODEL 1
REMARK VINA RESULT:      -4.9      0.000      0.000
REMARK  Name = *****
REMARK  3 active torsions:
REMARK  status: ('A' for Active; 'I' for Inactive)
REMARK    1  A    between atoms: C_1  and  C_2
REMARK    2  A    between atoms: C_5  and  N_8
REMARK    3  A    between atoms: C_9  and  C_10
REMARK                            x       y       z     vdW  Elec       q    Type
REMARK                         _______ _______ _______ _____ _____    ______ ____
ROOT
ATOM      1  N   UNL     1     102.706 126.391  81.944  0.00  0.00    +0.000 NA
ATOM      2  C   UNL     1     101.585 126.229  82.592  0.00  0.00    +0.000 C 
ENDROOT
BRANCH   1   7
ATOM      3  C   UNL     1     105.819 121.686  81.028  0.00  0.00    +0.000 C 
ATOM      4  C   UNL     1     104.978 122.905  81.257  0.00  0.00    +0.000 A 
ATOM      5  C   UNL     1     104.716 123.795  80.208  0.00  0.00    +0.000 A 
ATOM      6  C   UNL     1     103.956 124.946  80.431  0.00  0.00    +0.000 A 
ATOM      7  C   UNL     1     103.445 125.226  81.700  0.00  0.00    +0.000 A 
ATOM      8  C   UNL     1     103.728 124.354  82.751  0.00  0.00    +0.000 A 
ATOM      9  C   UNL     1     104.490 123.201  82.536  0.00  0.00    +0.000 A 
ENDBRANCH   1   7
BRANCH   2  10
ATOM     10  C   UNL     1     100.676 127.362  82.923  0.00  0.00    +0.000 C 
ATOM     11  C   UNL     1     101.235 128.473  83.587  0.00  0.00    +0.000 C 
ATOM     12  C   UNL     1     100.444 129.563  83.926  0.00  0.00    +0.000 C 
ATOM     13  C   UNL     1      99.096 129.542  83.601  0.00  0.00    +0.000 C 
ATOM     14  C   UNL     1      98.553 128.432  82.939  0.00  0.00    +0.000 C 
ATOM     15  C   UNL     1      99.301 127.294  82.566  0.00  0.00    +0.000 C 
ATOM     16  O   UNL     1      98.742 126.315  81.960  0.00  0.00    +0.000 OA
ENDBRANCH   2  10
TORSDOF 2
ENDMDL
