MODEL 1
REMARK VINA RESULT:      -4.4      0.000      0.000
REMARK  Name = *****
REMARK  3 active torsions:
REMARK  status: ('A' for Active; 'I' for Inactive)
REMARK    1  A    between atoms: C_4  and  C_7
REMARK    2  A    between atoms: C_8  and  S_9
REMARK    3  A    between atoms: S_9  and  C_10
REMARK                            x       y       z     vdW  Elec       q    Type
REMARK                         _______ _______ _______ _____ _____    ______ ____
ROOT
ATOM      1  C   UNL     1      89.795  66.781  86.437  0.00  0.00    +0.000 C 
ATOM      2  C   UNL     1      88.810  65.911  86.169  0.00  0.00    +0.000 C 
ENDROOT
BRANCH   1   6
ATOM      3  C   UNL     1      89.809  70.879  85.212  0.00  0.00    +0.000 A 
ATOM      4  C   UNL     1      89.612  70.566  86.555  0.00  0.00    +0.000 A 
ATOM      5  C   UNL     1      89.598  69.232  86.969  0.00  0.00    +0.000 A 
ATOM      6  C   UNL     1      89.770  68.196  86.041  0.00  0.00    +0.000 A 
ATOM      7  C   UNL     1      89.984  68.525  84.696  0.00  0.00    +0.000 A 
ATOM      8  C   UNL     1      89.998  69.860  84.282  0.00  0.00    +0.000 A 
ENDBRANCH   1   6
BRANCH   2   9
ATOM      9  S   UNL     1      88.925  64.253  86.665  0.00  0.00    +0.000 S 
BRANCH   9  10
ATOM     10  C   UNL     1      88.226  64.397  88.299  0.00  0.00    +0.000 A 
ATOM     11  C   UNL     1      88.823  63.738  89.381  0.00  0.00    +0.000 A 
ATOM     12  C   UNL     1      88.271  63.847  90.659  0.00  0.00    +0.000 A 
ATOM     13  C   UNL     1      87.124  64.610  90.847  0.00  0.00    +0.000 A 
ATOM     14  C   UNL     1      86.516  65.264  89.782  0.00  0.00    +0.000 A 
ATOM     15  C   UNL     1      87.067  65.155  88.502  0.00  0.00    +0.000 A 
ATOM     16  F   UNL     1      86.595  64.715  92.073  0.00  0.00    +0.000 F 
ENDBRANCH   9  10
ENDBRANCH   2   9
TORSDOF 3
ENDMDL
