MODEL 1
REMARK VINA RESULT:      -4.4      0.000      0.000
REMARK  Name = *****
REMARK  4 active torsions:
REMARK  status: ('A' for Active; 'I' for Inactive)
REMARK    1  A    between atoms: C_4  and  C_7
REMARK    2  A    between atoms: C_7  and  C_8
REMARK    3  A    between atoms: C_8  and  C_10
REMARK    4  A    between atoms: C_10  and  C_11
REMARK                            x       y       z     vdW  Elec       q    Type
REMARK                         _______ _______ _______ _____ _____    ______ ____
ROOT
ATOM      1  C   UNL     1     103.773 128.260  81.987  0.00  0.00    +0.000 C 
ATOM      2  O   UNL     1     104.421 129.282  82.226  0.00  0.00    +0.000 OA
ENDROOT
BRANCH   1   3
ATOM      3  C   UNL     1     103.031 127.457  83.059  0.00  0.00    +0.000 C 
BRANCH   3   7
ATOM      4  C   UNL     1      98.723 128.179  82.690  0.00  0.00    +0.000 C 
ATOM      5  C   UNL     1      99.453 128.815  83.867  0.00  0.00    +0.000 C 
ATOM      6  C   UNL     1     100.961 128.880  83.612  0.00  0.00    +0.000 C 
ATOM      7  C   UNL     1     101.529 127.609  83.019  0.00  0.00    +0.000 C 
ATOM      8  C   UNL     1     100.733 126.652  82.508  0.00  0.00    +0.000 C 
ATOM      9  C   UNL     1      99.237 126.764  82.426  0.00  0.00    +0.000 C 
ENDBRANCH   3   7
ENDBRANCH   1   3
BRANCH   1  10
ATOM     10  C   UNL     1     103.656 127.732  80.563  0.00  0.00    +0.000 C 
BRANCH  10  11
ATOM     11  C   UNL     1     104.468 126.475  80.381  0.00  0.00    +0.000 C 
ATOM     12  C   UNL     1     105.805 126.506  80.231  0.00  0.00    +0.000 C 
ATOM     13  C   UNL     1     106.645 125.285  79.988  0.00  0.00    +0.000 C 
ATOM     14  C   UNL     1     105.825 124.059  79.585  0.00  0.00    +0.000 C 
ATOM     15  C   UNL     1     104.576 123.931  80.448  0.00  0.00    +0.000 C 
ATOM     16  C   UNL     1     103.692 125.176  80.336  0.00  0.00    +0.000 C 
ENDBRANCH  10  11
ENDBRANCH   1  10
TORSDOF 4
ENDMDL
