MODEL 1
REMARK VINA RESULT:      -4.5      0.000      0.000
REMARK  Name = *****
REMARK  4 active torsions:
REMARK  status: ('A' for Active; 'I' for Inactive)
REMARK    1  A    between atoms: C_1  and  O_2
REMARK    2  A    between atoms: O_2  and  C_3
REMARK    3  A    between atoms: C_6  and  C_9
REMARK    4  A    between atoms: C_10  and  C_11
REMARK                            x       y       z     vdW  Elec       q    Type
REMARK                         _______ _______ _______ _____ _____    ______ ____
ROOT
ATOM      1  C   UNL     1      90.499  64.363  85.645  0.00  0.00    +0.000 A 
ATOM      2  C   UNL     1      89.356  64.318  86.443  0.00  0.00    +0.000 A 
ATOM      3  C   UNL     1      88.761  65.506  86.890  0.00  0.00    +0.000 A 
ATOM      4  C   UNL     1      89.304  66.752  86.557  0.00  0.00    +0.000 A 
ATOM      5  C   UNL     1      90.440  66.790  85.742  0.00  0.00    +0.000 A 
ATOM      6  C   UNL     1      91.034  65.604  85.296  0.00  0.00    +0.000 A 
ENDROOT
BRANCH   1   8
ATOM      7  C   UNL     1      91.754  63.434  83.854  0.00  0.00    +0.000 C 
ATOM      8  O   UNL     1      91.174  63.286  85.144  0.00  0.00    +0.000 OA
ENDBRANCH   1   8
BRANCH   4   9
ATOM      9  C   UNL     1      88.690  68.020  86.978  0.00  0.00    +0.000 C 
ATOM     10  C   UNL     1      89.343  69.192  87.051  0.00  0.00    +0.000 C 
BRANCH  10  11
ATOM     11  C   UNL     1      88.695  70.487  87.478  0.00  0.00    +0.000 C 
ATOM     12  C   UNL     1      88.228  70.378  88.943  0.00  0.00    +0.000 C 
ATOM     13  C   UNL     1      87.280  71.517  89.310  0.00  0.00    +0.000 C 
ATOM     14  C   UNL     1      86.042  71.521  88.411  0.00  0.00    +0.000 C 
ATOM     15  C   UNL     1      86.371  71.295  86.964  0.00  0.00    +0.000 C 
ATOM     16  C   UNL     1      87.566  70.847  86.544  0.00  0.00    +0.000 C 
ENDBRANCH  10  11
ENDBRANCH   4   9
TORSDOF 3
ENDMDL
