MODEL 1
REMARK VINA RESULT:      -4.2      0.000      0.000
REMARK  Name = *****
REMARK  3 active torsions:
REMARK  status: ('A' for Active; 'I' for Inactive)
REMARK    1  A    between atoms: C_5  and  S_7
REMARK    2  A    between atoms: S_7  and  C_8
REMARK    3  A    between atoms: C_9  and  C_10
REMARK                            x       y       z     vdW  Elec       q    Type
REMARK                         _______ _______ _______ _____ _____    ______ ____
ROOT
ATOM      1  S   UNL     1      88.705  64.128  87.164  0.00  0.00    +0.000 S 
ENDROOT
BRANCH   1   6
ATOM      2  C   UNL     1      87.160  63.947  90.136  0.00  0.00    +0.000 C 
ATOM      3  C   UNL     1      86.412  62.620  90.049  0.00  0.00    +0.000 C 
ATOM      4  C   UNL     1      86.579  61.959  88.683  0.00  0.00    +0.000 C 
ATOM      5  C   UNL     1      86.216  62.888  87.517  0.00  0.00    +0.000 C 
ATOM      6  C   UNL     1      86.916  64.259  87.597  0.00  0.00    +0.000 C 
ATOM      7  C   UNL     1      86.780  64.892  88.995  0.00  0.00    +0.000 C 
ATOM      8 CL   UNL     1      84.428  63.125  87.477  0.00  0.00    +0.000 Cl
ENDBRANCH   1   6
BRANCH   1   9
ATOM      9  C   UNL     1      89.007  65.746  86.774  0.00  0.00    +0.000 C 
ATOM     10  C   UNL     1      89.215  66.892  86.486  0.00  0.00    +0.000 C 
BRANCH  10  11
ATOM     11  C   UNL     1      89.455  68.257  86.133  0.00  0.00    +0.000 A 
ATOM     12  C   UNL     1      89.342  69.261  87.098  0.00  0.00    +0.000 A 
ATOM     13  C   UNL     1      89.574  70.593  86.751  0.00  0.00    +0.000 A 
ATOM     14  C   UNL     1      89.919  70.923  85.441  0.00  0.00    +0.000 A 
ATOM     15  C   UNL     1      90.033  69.923  84.476  0.00  0.00    +0.000 A 
ATOM     16  C   UNL     1      89.801  68.590  84.820  0.00  0.00    +0.000 A 
ENDBRANCH  10  11
ENDBRANCH   1   9
TORSDOF 3
ENDMDL
