MODEL 1
REMARK VINA RESULT:      -4.8      0.000      0.000
REMARK  Name = *****
REMARK  3 active torsions:
REMARK  status: ('A' for Active; 'I' for Inactive)
REMARK    1  A    between atoms: C_4  and  C_7
REMARK    2  A    between atoms: C_7  and  C_9
REMARK    3  A    between atoms: C_9  and  C_10
REMARK                            x       y       z     vdW  Elec       q    Type
REMARK                         _______ _______ _______ _____ _____    ______ ____
ROOT
ATOM      1  C   UNL     1      88.937  70.157  86.796  0.00  0.00    +0.000 C 
ENDROOT
BRANCH   1   2
ATOM      2  C   UNL     1      88.996  68.647  86.777  0.00  0.00    +0.000 A 
ATOM      3  C   UNL     1      90.114  67.991  86.240  0.00  0.00    +0.000 A 
ATOM      4  C   UNL     1      90.177  66.599  86.244  0.00  0.00    +0.000 A 
ATOM      5  C   UNL     1      89.143  65.849  86.788  0.00  0.00    +0.000 A 
ATOM      6  C   UNL     1      88.035  66.481  87.340  0.00  0.00    +0.000 A 
ATOM      7  C   UNL     1      87.964  67.877  87.341  0.00  0.00    +0.000 A 
ATOM      8  F   UNL     1      89.208  64.510  86.790  0.00  0.00    +0.000 F 
ATOM      9  F   UNL     1      91.249  65.992  85.719  0.00  0.00    +0.000 F 
ENDBRANCH   1   2
BRANCH   1  10
ATOM     10  C   UNL     1      87.882  70.745  85.877  0.00  0.00    +0.000 C 
ATOM     11  O   UNL     1      88.049  70.757  84.656  0.00  0.00    +0.000 OA
BRANCH  10  15
ATOM     12  C   UNL     1      84.320  72.390  87.639  0.00  0.00    +0.000 A 
ATOM     13  C   UNL     1      85.334  71.865  88.437  0.00  0.00    +0.000 A 
ATOM     14  C   UNL     1      86.482  71.334  87.845  0.00  0.00    +0.000 A 
ATOM     15  C   UNL     1      86.628  71.326  86.450  0.00  0.00    +0.000 A 
ATOM     16  C   UNL     1      85.603  71.854  85.656  0.00  0.00    +0.000 A 
ATOM     17  C   UNL     1      84.453  72.383  86.252  0.00  0.00    +0.000 A 
ENDBRANCH  10  15
ENDBRANCH   1  10
TORSDOF 3
ENDMDL
