MODEL 1
REMARK VINA RESULT:      -4.4      0.000      0.000
REMARK  Name = *****
REMARK  3 active torsions:
REMARK  status: ('A' for Active; 'I' for Inactive)
REMARK    1  A    between atoms: C_4  and  C_7
REMARK    2  A    between atoms: C_7  and  O_9
REMARK    3  A    between atoms: O_9  and  C_10
REMARK                            x       y       z     vdW  Elec       q    Type
REMARK                         _______ _______ _______ _____ _____    ______ ____
ROOT
ATOM      1  C   UNL     1      87.795  70.682  86.066  0.00  0.00    +0.000 C 
ATOM      2  O   UNL     1      88.032  70.731  84.868  0.00  0.00    +0.000 OA
ENDROOT
BRANCH   1   6
ATOM      3  C   UNL     1      84.251  72.445  87.726  0.00  0.00    +0.000 A 
ATOM      4  C   UNL     1      85.214  71.917  88.585  0.00  0.00    +0.000 A 
ATOM      5  C   UNL     1      86.376  71.337  88.067  0.00  0.00    +0.000 A 
ATOM      6  C   UNL     1      86.578  71.285  86.680  0.00  0.00    +0.000 A 
ATOM      7  C   UNL     1      85.605  71.819  85.824  0.00  0.00    +0.000 A 
ATOM      8  C   UNL     1      84.446  72.397  86.346  0.00  0.00    +0.000 A 
ENDBRANCH   1   6
BRANCH   1   9
ATOM      9  O   UNL     1      88.569  70.090  87.046  0.00  0.00    +0.000 OA
BRANCH   9  10
ATOM     10  C   UNL     1      88.685  68.700  86.939  0.00  0.00    +0.000 A 
ATOM     11  C   UNL     1      87.696  67.860  87.451  0.00  0.00    +0.000 A 
ATOM     12  C   UNL     1      87.871  66.477  87.377  0.00  0.00    +0.000 A 
ATOM     13  C   UNL     1      89.035  65.955  86.811  0.00  0.00    +0.000 A 
ATOM     14  C   UNL     1      90.030  66.803  86.321  0.00  0.00    +0.000 A 
ATOM     15  C   UNL     1      89.859  68.186  86.392  0.00  0.00    +0.000 A 
ATOM     16 CL   UNL     1      89.251  64.249  86.726  0.00  0.00    +0.000 Cl
ENDBRANCH   9  10
ENDBRANCH   1   9
TORSDOF 3
ENDMDL
