MODEL 1
REMARK VINA RESULT:      -4.9      0.000      0.000
REMARK  Name = *****
REMARK  4 active torsions:
REMARK  status: ('A' for Active; 'I' for Inactive)
REMARK    1  A    between atoms: C_1  and  C_2
REMARK    2  A    between atoms: C_2  and  C_4
REMARK    3  A    between atoms: C_7  and  C_10
REMARK    4  A    between atoms: C_11  and  C_12
REMARK                            x       y       z     vdW  Elec       q    Type
REMARK                         _______ _______ _______ _____ _____    ______ ____
ROOT
ATOM      1  C   UNL     1     106.036 122.571  81.072  0.00  0.00    +0.000 A 
ATOM      2  C   UNL     1     105.520 123.424  80.089  0.00  0.00    +0.000 A 
ATOM      3  C   UNL     1     104.486 124.315  80.403  0.00  0.00    +0.000 A 
ATOM      4  C   UNL     1     103.964 124.357  81.697  0.00  0.00    +0.000 A 
ATOM      5  C   UNL     1     104.469 123.504  82.679  0.00  0.00    +0.000 A 
ATOM      6  C   UNL     1     105.502 122.614  82.367  0.00  0.00    +0.000 A 
ENDROOT
BRANCH   1   8
ATOM      7  C   UNL     1     107.195 120.311  81.551  0.00  0.00    +0.000 C 
ATOM      8  C   UNL     1     107.146 121.612  80.792  0.00  0.00    +0.000 C 
ATOM      9  O   UNL     1     108.002 121.891  79.955  0.00  0.00    +0.000 OA
ENDBRANCH   1   8
BRANCH   4  10
ATOM     10  C   UNL     1     102.923 125.283  82.021  0.00  0.00    +0.000 C 
ATOM     11  C   UNL     1     102.062 126.071  82.307  0.00  0.00    +0.000 C 
BRANCH  11  12
ATOM     12  C   UNL     1     101.053 127.020  82.660  0.00  0.00    +0.000 A 
ATOM     13  C   UNL     1     101.410 128.208  83.299  0.00  0.00    +0.000 A 
ATOM     14  C   UNL     1     100.420 129.127  83.631  0.00  0.00    +0.000 A 
ATOM     15  C   UNL     1      99.083 128.883  83.337  0.00  0.00    +0.000 A 
ATOM     16  C   UNL     1      98.725 127.695  82.701  0.00  0.00    +0.000 A 
ATOM     17  C   UNL     1      99.710 126.764  82.362  0.00  0.00    +0.000 A 
ATOM     18  F   UNL     1     100.762 130.269  84.242  0.00  0.00    +0.000 F 
ENDBRANCH  11  12
ENDBRANCH   4  10
TORSDOF 3
ENDMDL
