REMARK  Name = *****
REMARK  4 active torsions:
REMARK  status: ('A' for Active; 'I' for Inactive)
REMARK    1  A    between atoms: C_4  and  C_8
REMARK    2  A    between atoms: C_8  and  O_9
REMARK    3  A    between atoms: O_9  and  C_10
REMARK    4  A    between atoms: C_10  and  C_11
REMARK                            x       y       z     vdW  Elec       q    Type
REMARK                         _______ _______ _______ _____ _____    ______ ____
ROOT
ATOM      1  C   UNL     1       1.297  -1.395  -1.909  0.00  0.00    +0.000 C 
ENDROOT
BRANCH   1   5
ATOM      2  C   UNL     1      -0.075   0.246   1.206  0.00  0.00    +0.000 C 
ATOM      3  C   UNL     1       0.386   1.360   0.260  0.00  0.00    +0.000 C 
ATOM      4  C   UNL     1       1.601   0.700  -0.430  0.00  0.00    +0.000 C 
ATOM      5  C   UNL     1       1.176  -0.798  -0.512  0.00  0.00    +0.000 C 
ATOM      6  C   UNL     1      -0.263  -0.771   0.072  0.00  0.00    +0.000 C 
ATOM      7  C   UNL     1      -1.163   0.053  -0.822  0.00  0.00    +0.000 C 
ATOM      8  C   UNL     1      -0.768   1.331  -0.715  0.00  0.00    +0.000 C 
ENDBRANCH   1   5
BRANCH   1   9
ATOM      9  O   UNL     1       0.865  -2.754  -1.859  0.00  0.00    +0.000 OA
BRANCH   9  10
ATOM     10  C   UNL     1       0.938  -3.378  -3.140  0.00  0.00    +0.000 C 
BRANCH  10  11
ATOM     11  C   UNL     1       0.424  -4.793  -3.051  0.00  0.00    +0.000 A 
ATOM     12  C   UNL     1      -0.734  -5.094  -2.318  0.00  0.00    +0.000 A 
ATOM     13  C   UNL     1      -1.229  -6.398  -2.272  0.00  0.00    +0.000 A 
ATOM     14  C   UNL     1      -0.578  -7.416  -2.966  0.00  0.00    +0.000 A 
ATOM     15  C   UNL     1       0.566  -7.130  -3.708  0.00  0.00    +0.000 A 
ATOM     16  C   UNL     1       1.062  -5.825  -3.755  0.00  0.00    +0.000 A 
ENDBRANCH  10  11
ENDBRANCH   9  10
ENDBRANCH   1   9
TORSDOF 4
