REMARK  Name = *****
REMARK  4 active torsions:
REMARK  status: ('A' for Active; 'I' for Inactive)
REMARK    1  A    between atoms: N_2  and  C_3
REMARK    2  A    between atoms: C_8  and  C_9
REMARK    3  A    between atoms: C_10  and  C_11
REMARK    4  A    between atoms: C_11  and  C_12
REMARK                            x       y       z     vdW  Elec       q    Type
REMARK                         _______ _______ _______ _____ _____    ______ ____
ROOT
ATOM      1  C   UNL     1      -0.478   2.451  -0.442  0.00  0.00    +0.000 C 
ATOM      2  C   UNL     1      -1.740   2.712  -0.068  0.00  0.00    +0.000 C 
ENDROOT
BRANCH   1   8
ATOM      3  C   UNL     1      -0.080   0.005  -0.899  0.00  0.00    +0.000 A 
ATOM      4  C   UNL     1       0.547  -1.204  -0.589  0.00  0.00    +0.000 A 
ATOM      5  C   UNL     1       1.436  -1.262   0.483  0.00  0.00    +0.000 A 
ATOM      6  C   UNL     1       1.693  -0.115   1.235  0.00  0.00    +0.000 A 
ATOM      7  C   UNL     1       1.060   1.092   0.920  0.00  0.00    +0.000 A 
ATOM      8  C   UNL     1       0.163   1.167  -0.154  0.00  0.00    +0.000 A 
BRANCH   3  10
ATOM      9  C   UNL     1      -1.649   0.016  -2.926  0.00  0.00    +0.000 C 
ATOM     10  N   UNL     1      -0.940   0.028  -1.992  0.00  0.00    +0.000 NA
ENDBRANCH   3  10
ENDBRANCH   1   8
BRANCH   2  11
ATOM     11  C   UNL     1      -2.439   4.014  -0.341  0.00  0.00    +0.000 C 
BRANCH  11  12
ATOM     12  C   UNL     1      -3.701   3.835  -1.150  0.00  0.00    +0.000 A 
ATOM     13  C   UNL     1      -4.962   3.963  -0.550  0.00  0.00    +0.000 A 
ATOM     14  C   UNL     1      -6.125   3.792  -1.303  0.00  0.00    +0.000 A 
ATOM     15  C   UNL     1      -6.041   3.487  -2.660  0.00  0.00    +0.000 A 
ATOM     16  C   UNL     1      -4.794   3.351  -3.266  0.00  0.00    +0.000 A 
ATOM     17  C   UNL     1      -3.630   3.524  -2.516  0.00  0.00    +0.000 A 
ENDBRANCH  11  12
ENDBRANCH   2  11
TORSDOF 4
