MODEL 1
REMARK VINA RESULT:      -4.3      0.000      0.000
REMARK  Name = *****
REMARK  3 active torsions:
REMARK  status: ('A' for Active; 'I' for Inactive)
REMARK    1  A    between atoms: C_4  and  N_7
REMARK    2  A    between atoms: N_7  and  C_8
REMARK    3  A    between atoms: N_9  and  C_10
REMARK                            x       y       z     vdW  Elec       q    Type
REMARK                         _______ _______ _______ _____ _____    ______ ____
ROOT
ATOM      1  C   UNL     1      89.101  68.706  86.864  0.00  0.00    +0.000 C 
ATOM      2  N   UNL     1      90.185  68.119  86.471  0.00  0.00    +0.000 NA
ENDROOT
BRANCH   2   3
ATOM      3  C   UNL     1      90.099  66.736  86.253  0.00  0.00    +0.000 A 
ATOM      4  C   UNL     1      91.051  66.057  85.486  0.00  0.00    +0.000 A 
ATOM      5  C   UNL     1      90.964  64.675  85.305  0.00  0.00    +0.000 A 
ATOM      6  C   UNL     1      89.928  63.959  85.904  0.00  0.00    +0.000 A 
ATOM      7  C   UNL     1      88.983  64.625  86.685  0.00  0.00    +0.000 A 
ATOM      8  C   UNL     1      89.073  66.008  86.860  0.00  0.00    +0.000 A 
ENDBRANCH   2   3
BRANCH   1   9
ATOM      9  N   UNL     1      89.077  70.017  87.076  0.00  0.00    +0.000 NA
BRANCH   9  13
ATOM     10  C   UNL     1      85.350  71.930  86.969  0.00  0.00    +0.000 A 
ATOM     11  C   UNL     1      85.903  71.578  88.197  0.00  0.00    +0.000 A 
ATOM     12  C   UNL     1      87.145  70.935  88.249  0.00  0.00    +0.000 A 
ATOM     13  C   UNL     1      87.858  70.611  87.081  0.00  0.00    +0.000 A 
ATOM     14  C   UNL     1      87.287  71.002  85.861  0.00  0.00    +0.000 A 
ATOM     15  C   UNL     1      86.046  71.645  85.799  0.00  0.00    +0.000 A 
ENDBRANCH   9  13
ENDBRANCH   1   9
TORSDOF 3
ENDMDL
