MODEL 1
REMARK VINA RESULT:      -4.8      0.000      0.000
REMARK  Name = *****
REMARK  4 active torsions:
REMARK  status: ('A' for Active; 'I' for Inactive)
REMARK    1  A    between atoms: C_1  and  C_2
REMARK    2  A    between atoms: C_4  and  C_17
REMARK    3  A    between atoms: C_5  and  N_8
REMARK    4  A    between atoms: C_9  and  C_10
REMARK                            x       y       z     vdW  Elec       q    Type
REMARK                         _______ _______ _______ _____ _____    ______ ____
ROOT
ATOM      1  N   UNL     1     101.563 126.349  82.520  0.00  0.00    +0.000 NA
ATOM      2  C   UNL     1     102.849 126.246  82.628  0.00  0.00    +0.000 C 
ENDROOT
BRANCH   1   7
ATOM      3  C   UNL     1      99.359 131.178  84.655  0.00  0.00    +0.000 C 
ATOM      4  C   UNL     1      99.934 129.923  84.067  0.00  0.00    +0.000 A 
ATOM      5  C   UNL     1      99.092 128.942  83.529  0.00  0.00    +0.000 A 
ATOM      6  C   UNL     1      99.615 127.750  82.998  0.00  0.00    +0.000 A 
ATOM      7  C   UNL     1     101.000 127.529  83.038  0.00  0.00    +0.000 A 
ATOM      8  C   UNL     1     101.840 128.512  83.572  0.00  0.00    +0.000 A 
ATOM      9  C   UNL     1     101.313 129.696  84.092  0.00  0.00    +0.000 A 
ATOM     10  C   UNL     1      98.689 126.722  82.410  0.00  0.00    +0.000 C 
ENDBRANCH   1   7
BRANCH   2  11
ATOM     11  C   UNL     1     103.579 125.063  82.133  0.00  0.00    +0.000 A 
ATOM     12  C   UNL     1     103.911 124.013  82.998  0.00  0.00    +0.000 A 
ATOM     13  C   UNL     1     104.603 122.904  82.508  0.00  0.00    +0.000 A 
ATOM     14  C   UNL     1     104.957 122.856  81.163  0.00  0.00    +0.000 A 
ATOM     15  C   UNL     1     104.631 123.895  80.296  0.00  0.00    +0.000 A 
ATOM     16  C   UNL     1     103.939 125.007  80.781  0.00  0.00    +0.000 A 
ATOM     17  F   UNL     1     105.621 121.792  80.693  0.00  0.00    +0.000 F 
ENDBRANCH   2  11
TORSDOF 2
ENDMDL
