MODEL 1
REMARK VINA RESULT:      -4.7      0.000      0.000
REMARK  Name = *****
REMARK  3 active torsions:
REMARK  status: ('A' for Active; 'I' for Inactive)
REMARK    1  A    between atoms: C_6  and  S_7
REMARK    2  A    between atoms: S_7  and  N_9
REMARK    3  A    between atoms: N_9  and  C_10
REMARK                            x       y       z     vdW  Elec       q    Type
REMARK                         _______ _______ _______ _____ _____    ______ ____
ROOT
ATOM      1  S   UNL     1     103.334 126.558  81.543  0.00  0.00    +0.000 S 
ATOM      2  O   UNL     1     103.420 126.958  80.100  0.00  0.00    +0.000 OA
ENDROOT
BRANCH   1   8
ATOM      3  C   UNL     1     103.991 124.141  82.804  0.00  0.00    +0.000 A 
ATOM      4  C   UNL     1     104.486 122.835  82.848  0.00  0.00    +0.000 A 
ATOM      5  C   UNL     1     104.953 122.231  81.681  0.00  0.00    +0.000 A 
ATOM      6  C   UNL     1     104.929 122.922  80.472  0.00  0.00    +0.000 A 
ATOM      7  C   UNL     1     104.433 124.228  80.428  0.00  0.00    +0.000 A 
ATOM      8  C   UNL     1     103.954 124.846  81.592  0.00  0.00    +0.000 A 
ATOM      9 CL   UNL     1     105.562 120.624  81.737  0.00  0.00    +0.000 Cl
ENDBRANCH   1   8
BRANCH   1  10
ATOM     10  N   UNL     1     101.759 126.089  81.857  0.00  0.00    +0.000 N 
ATOM     11  H   UNL     1     101.475 125.182  81.599  0.00  0.00    +0.000 HD
BRANCH  10  12
ATOM     12  C   UNL     1     100.820 126.946  82.480  0.00  0.00    +0.000 A 
ATOM     13  C   UNL     1      99.432 126.832  82.321  0.00  0.00    +0.000 A 
ATOM     14  C   UNL     1      98.561 127.760  82.901  0.00  0.00    +0.000 A 
ATOM     15  C   UNL     1      99.065 128.836  83.627  0.00  0.00    +0.000 A 
ATOM     16  C   UNL     1     100.441 128.989  83.763  0.00  0.00    +0.000 A 
ATOM     17  C   UNL     1     101.308 128.059  83.184  0.00  0.00    +0.000 A 
ENDBRANCH  10  12
ENDBRANCH   1  10
TORSDOF 3
ENDMDL
