REMARK  Name = *****
REMARK  5 active torsions:
REMARK  status: ('A' for Active; 'I' for Inactive)
REMARK    1  A    between atoms: C_1  and  C_2
REMARK    2  A    between atoms: C_5  and  C_8
REMARK    3  A    between atoms: C_8  and  C_9
REMARK    4  A    between atoms: C_9  and  C_11
REMARK    5  A    between atoms: C_14  and  C_17
REMARK                            x       y       z     vdW  Elec       q    Type
REMARK                         _______ _______ _______ _____ _____    ______ ____
ROOT
ATOM      1  C   UNL     1      -2.470   1.258  -2.613  0.00  0.00    +0.000 C 
ATOM      2  O   UNL     1      -1.920   2.321  -2.903  0.00  0.00    +0.000 OA
ENDROOT
BRANCH   1   3
ATOM      3  C   UNL     1      -3.932   1.089  -2.883  0.00  0.00    +0.000 A 
ATOM      4  C   UNL     1      -4.649  -0.049  -2.500  0.00  0.00    +0.000 A 
ATOM      5  C   UNL     1      -6.016  -0.151  -2.782  0.00  0.00    +0.000 A 
ATOM      6  C   UNL     1      -6.683   0.877  -3.459  0.00  0.00    +0.000 A 
ATOM      7  C   UNL     1      -5.970   2.022  -3.825  0.00  0.00    +0.000 A 
ATOM      8  C   UNL     1      -4.605   2.125  -3.544  0.00  0.00    +0.000 A 
ATOM      9  C   UNL     1      -8.156   0.780  -3.729  0.00  0.00    +0.000 C 
ENDBRANCH   1   3
BRANCH   1  10
ATOM     10  C   UNL     1      -1.675   0.126  -1.987  0.00  0.00    +0.000 C 
BRANCH  10  15
ATOM     11  C   UNL     1       2.508  -0.325   0.500  0.00  0.00    +0.000 C 
ATOM     12  C   UNL     1       0.997  -0.180   0.673  0.00  0.00    +0.000 C 
ATOM     13  C   UNL     1       0.514   1.160   0.104  0.00  0.00    +0.000 C 
ATOM     14  C   UNL     1      -1.006   1.300   0.194  0.00  0.00    +0.000 C 
ATOM     15  C   UNL     1      -1.764   0.126  -0.450  0.00  0.00    +0.000 C 
ATOM     16  C   UNL     1      -1.255  -1.204   0.130  0.00  0.00    +0.000 C 
ATOM     17  C   UNL     1       0.262  -1.358   0.021  0.00  0.00    +0.000 C 
ENDBRANCH  10  15
ENDBRANCH   1  10
TORSDOF 3
