REMARK  Name = *****
REMARK  4 active torsions:
REMARK  status: ('A' for Active; 'I' for Inactive)
REMARK    1  A    between atoms: C_1  and  N_2
REMARK    2  A    between atoms: N_2  and  C_3
REMARK    3  A    between atoms: N_2  and  S_9
REMARK    4  A    between atoms: S_9  and  C_10
REMARK                            x       y       z     vdW  Elec       q    Type
REMARK                         _______ _______ _______ _____ _____    ______ ____
ROOT
ATOM      1  C   UNL     1       1.220   0.225   0.252  0.00  0.00    +0.000 C 
ATOM      2  N   UNL     1       2.668   0.267   0.045  0.00  0.00    +0.000 N 
ENDROOT
BRANCH   2   3
ATOM      3  C   UNL     1       3.173   0.770  -1.180  0.00  0.00    +0.000 A 
ATOM      4  C   UNL     1       2.331   1.329  -2.162  0.00  0.00    +0.000 A 
ATOM      5  C   UNL     1       2.829   1.850  -3.365  0.00  0.00    +0.000 A 
ATOM      6  C   UNL     1       4.193   1.834  -3.622  0.00  0.00    +0.000 A 
ATOM      7  C   UNL     1       5.057   1.300  -2.675  0.00  0.00    +0.000 A 
ATOM      8  C   UNL     1       4.552   0.782  -1.475  0.00  0.00    +0.000 A 
ENDBRANCH   2   3
BRANCH   2   9
ATOM      9  S   UNL     1       3.584  -0.750   1.022  0.00  0.00    +0.000 S 
BRANCH   9  10
ATOM     10  C   UNL     1       3.742   0.261   2.492  0.00  0.00    +0.000 A 
ATOM     11  C   UNL     1       3.980   1.638   2.424  0.00  0.00    +0.000 A 
ATOM     12  C   UNL     1       4.107   2.394   3.592  0.00  0.00    +0.000 A 
ATOM     13  C   UNL     1       4.002   1.776   4.837  0.00  0.00    +0.000 A 
ATOM     14  C   UNL     1       3.773   0.403   4.915  0.00  0.00    +0.000 A 
ATOM     15  C   UNL     1       3.646  -0.352   3.746  0.00  0.00    +0.000 A 
ENDBRANCH   9  10
ENDBRANCH   2   9
TORSDOF 3
