MODEL 1
REMARK VINA RESULT:      -4.7      0.000      0.000
REMARK  Name = *****
REMARK  6 active torsions:
REMARK  status: ('A' for Active; 'I' for Inactive)
REMARK    1  A    between atoms: C_1  and  C_2
REMARK    2  A    between atoms: C_2  and  O_4
REMARK    3  A    between atoms: O_4  and  C_5
REMARK    4  A    between atoms: C_5  and  C_6
REMARK    5  A    between atoms: C_5  and  C_13
REMARK    6  A    between atoms: C_6  and  C_7
REMARK                            x       y       z     vdW  Elec       q    Type
REMARK                         _______ _______ _______ _____ _____    ______ ____
ROOT
ATOM      1  C   UNL     1      89.378  69.003  86.206  0.00  0.00    +0.000 C 
ENDROOT
BRANCH   1   2
ATOM      2  C   UNL     1      89.808  69.653  84.900  0.00  0.00    +0.000 A 
ATOM      3  C   UNL     1      89.548  69.013  83.678  0.00  0.00    +0.000 A 
ATOM      4  C   UNL     1      89.924  69.607  82.472  0.00  0.00    +0.000 A 
ATOM      5  C   UNL     1      90.564  70.844  82.470  0.00  0.00    +0.000 A 
ATOM      6  C   UNL     1      90.829  71.491  83.675  0.00  0.00    +0.000 A 
ATOM      7  C   UNL     1      90.454  70.900  84.883  0.00  0.00    +0.000 A 
ENDBRANCH   1   2
BRANCH   1   8
ATOM      8  O   UNL     1      90.351  67.993  86.540  0.00  0.00    +0.000 OA
BRANCH   8  10
ATOM      9  C   UNL     1      90.918  65.956  85.542  0.00  0.00    +0.000 C 
ATOM     10  C   UNL     1      89.950  66.702  86.409  0.00  0.00    +0.000 C 
ATOM     11  O   UNL     1      88.946  66.203  86.899  0.00  0.00    +0.000 OA
ENDBRANCH   8  10
ENDBRANCH   1   8
BRANCH   1  12
ATOM     12  C   UNL     1      89.322  70.046  87.342  0.00  0.00    +0.000 C 
BRANCH  12  13
ATOM     13  C   UNL     1      87.953  70.654  87.571  0.00  0.00    +0.000 A 
ATOM     14  C   UNL     1      87.534  70.968  88.872  0.00  0.00    +0.000 A 
ATOM     15  C   UNL     1      86.282  71.542  89.099  0.00  0.00    +0.000 A 
ATOM     16  C   UNL     1      85.434  71.811  88.027  0.00  0.00    +0.000 A 
ATOM     17  C   UNL     1      85.840  71.513  86.729  0.00  0.00    +0.000 A 
ATOM     18  C   UNL     1      87.095  70.944  86.500  0.00  0.00    +0.000 A 
ENDBRANCH  12  13
ENDBRANCH   1  12
TORSDOF 5
ENDMDL
