MODEL 1
REMARK VINA RESULT:      -4.2      0.000      0.000
REMARK  Name = *****
REMARK  5 active torsions:
REMARK  status: ('A' for Active; 'I' for Inactive)
REMARK    1  A    between atoms: C_1  and  C_2
REMARK    2  A    between atoms: C_2  and  P_3
REMARK    3  A    between atoms: P_3  and  C_4
REMARK    4  A    between atoms: P_3  and  O_11
REMARK    5  A    between atoms: O_11  and  C_12
REMARK                            x       y       z     vdW  Elec       q    Type
REMARK                         _______ _______ _______ _____ _____    ______ ____
ROOT
ATOM      1  P   UNL     1     103.688 127.961  82.096  0.00  0.00    +0.000 P 
ENDROOT
BRANCH   1   2
ATOM      2  C   UNL     1     104.027 126.204  81.708  0.00  0.00    +0.000 A 
ATOM      3  C   UNL     1     103.941 125.198  82.683  0.00  0.00    +0.000 A 
ATOM      4  C   UNL     1     104.188 123.860  82.359  0.00  0.00    +0.000 A 
ATOM      5  C   UNL     1     104.515 123.513  81.053  0.00  0.00    +0.000 A 
ATOM      6  C   UNL     1     104.591 124.492  80.066  0.00  0.00    +0.000 A 
ATOM      7  C   UNL     1     104.342 125.829  80.392  0.00  0.00    +0.000 A 
ATOM      8 CL   UNL     1     104.819 121.868  80.653  0.00  0.00    +0.000 Cl
ENDBRANCH   1   2
BRANCH   1  10
ATOM      9  C   UNL     1     106.464 128.013  82.489  0.00  0.00    +0.000 C 
ATOM     10  C   UNL     1     105.147 128.365  83.162  0.00  0.00    +0.000 C 
ENDBRANCH   1  10
BRANCH   1  11
ATOM     11  O   UNL     1     102.572 127.796  83.253  0.00  0.00    +0.000 OA
BRANCH  11  12
ATOM     12  C   UNL     1     101.212 127.761  83.084  0.00  0.00    +0.000 A 
ATOM     13  C   UNL     1     100.527 128.891  83.539  0.00  0.00    +0.000 A 
ATOM     14  C   UNL     1      99.139 128.974  83.424  0.00  0.00    +0.000 A 
ATOM     15  C   UNL     1      98.426 127.923  82.851  0.00  0.00    +0.000 A 
ATOM     16  C   UNL     1      99.103 126.792  82.395  0.00  0.00    +0.000 A 
ATOM     17  C   UNL     1     100.494 126.710  82.512  0.00  0.00    +0.000 A 
ENDBRANCH  11  12
ENDBRANCH   1  11
TORSDOF 4
ENDMDL
