MODEL 1
REMARK VINA RESULT:      -4.0      0.000      0.000
REMARK  Name = *****
REMARK  4 active torsions:
REMARK  status: ('A' for Active; 'I' for Inactive)
REMARK    1  A    between atoms: C_1  and  C_2
REMARK    2  A    between atoms: C_5  and  S_8
REMARK    3  A    between atoms: S_8  and  C_9
REMARK    4  A    between atoms: C_9  and  C_11
REMARK                            x       y       z     vdW  Elec       q    Type
REMARK                         _______ _______ _______ _____ _____    ______ ____
ROOT
ATOM      1  S   UNL     1     101.631 126.258  83.821  0.00  0.00    +0.000 S 
ENDROOT
BRANCH   1   6
ATOM      2  C   UNL     1     105.419 125.021  79.211  0.00  0.00    +0.000 C 
ATOM      3  C   UNL     1     104.459 125.313  80.326  0.00  0.00    +0.000 A 
ATOM      4  C   UNL     1     103.743 126.516  80.347  0.00  0.00    +0.000 A 
ATOM      5  C   UNL     1     102.871 126.803  81.401  0.00  0.00    +0.000 A 
ATOM      6  C   UNL     1     102.703 125.893  82.448  0.00  0.00    +0.000 A 
ATOM      7  C   UNL     1     103.438 124.703  82.442  0.00  0.00    +0.000 A 
ATOM      8  C   UNL     1     104.311 124.416  81.389  0.00  0.00    +0.000 A 
ENDBRANCH   1   6
BRANCH   1   9
ATOM      9  C   UNL     1     100.306 127.146  83.049  0.00  0.00    +0.000 C 
ATOM     10  O   UNL     1      99.573 126.605  82.228  0.00  0.00    +0.000 OA
BRANCH   9  11
ATOM     11  C   UNL     1     100.198 128.538  83.478  0.00  0.00    +0.000 A 
ATOM     12  C   UNL     1      99.193 129.479  83.313  0.00  0.00    +0.000 A 
ATOM     13  C   UNL     1      99.507 130.739  83.904  0.00  0.00    +0.000 A 
ATOM     14  C   UNL     1     100.744 130.731  84.506  0.00  0.00    +0.000 A 
ATOM     15  S   UNL     1     101.516 129.217  84.357  0.00  0.00    +0.000 S 
ENDBRANCH   9  11
ENDBRANCH   1   9
TORSDOF 3
ENDMDL
