MODEL 1
REMARK VINA RESULT:      -4.3      0.000      0.000
REMARK  Name = *****
REMARK  2 active torsions:
REMARK  status: ('A' for Active; 'I' for Inactive)
REMARK    1  A    between atoms: C_6  and  C_7
REMARK    2  A    between atoms: N_8  and  C_9
REMARK                            x       y       z     vdW  Elec       q    Type
REMARK                         _______ _______ _______ _____ _____    ______ ____
ROOT
ATOM      1  C   UNL     1     102.983 125.642  82.710  0.00  0.00    +0.000 C 
ATOM      2  N   UNL     1     101.795 125.851  82.235  0.00  0.00    +0.000 NA
ENDROOT
BRANCH   1   8
ATOM      3  C   UNL     1     104.190 123.564  83.300  0.00  0.00    +0.000 A 
ATOM      4  C   UNL     1     104.950 122.446  82.943  0.00  0.00    +0.000 A 
ATOM      5  C   UNL     1     105.300 122.241  81.608  0.00  0.00    +0.000 A 
ATOM      6  C   UNL     1     104.897 123.142  80.623  0.00  0.00    +0.000 A 
ATOM      7  C   UNL     1     104.137 124.260  80.976  0.00  0.00    +0.000 A 
ATOM      8  C   UNL     1     103.786 124.469  82.314  0.00  0.00    +0.000 A 
ATOM      9 CL   UNL     1     106.235 120.864  81.174  0.00  0.00    +0.000 Cl
ENDBRANCH   1   8
BRANCH   2  10
ATOM     10  C   UNL     1     101.145 127.002  82.694  0.00  0.00    +0.000 A 
ATOM     11  C   UNL     1      99.757 127.125  82.584  0.00  0.00    +0.000 A 
ATOM     12  C   UNL     1      99.108 128.268  83.057  0.00  0.00    +0.000 A 
ATOM     13  C   UNL     1      99.851 129.284  83.656  0.00  0.00    +0.000 A 
ATOM     14  C   UNL     1     101.233 129.166  83.787  0.00  0.00    +0.000 A 
ATOM     15  C   UNL     1     101.877 128.022  83.309  0.00  0.00    +0.000 A 
ATOM     16 CL   UNL     1      99.054 130.693  84.241  0.00  0.00    +0.000 Cl
ENDBRANCH   2  10
TORSDOF 2
ENDMDL
