MODEL 1
REMARK VINA RESULT:      -5.2      0.000      0.000
REMARK  Name = *****
REMARK  7 active torsions:
REMARK  status: ('A' for Active; 'I' for Inactive)
REMARK    1  A    between atoms: C_1  and  C_2
REMARK    2  A    between atoms: C_4  and  C_19
REMARK    3  A    between atoms: C_5  and  N_9
REMARK    4  A    between atoms: C_6  and  C_8
REMARK    5  A    between atoms: C_10  and  C_11
REMARK    6  A    between atoms: C_16  and  O_17
REMARK    7  A    between atoms: O_17  and  O_18
REMARK                            x       y       z     vdW  Elec       q    Type
REMARK                         _______ _______ _______ _____ _____    ______ ____
ROOT
ATOM      1  N   UNL     1     103.024 126.971  82.880  0.00  0.00    +0.000 NA
ATOM      2  C   UNL     1     101.731 127.088  82.859  0.00  0.00    +0.000 C 
ENDROOT
BRANCH   1   7
ATOM      3  C   UNL     1     105.125 122.241  80.428  0.00  0.00    +0.000 C 
ATOM      4  C   UNL     1     104.556 123.473  81.067  0.00  0.00    +0.000 A 
ATOM      5  C   UNL     1     104.327 124.625  80.306  0.00  0.00    +0.000 A 
ATOM      6  C   UNL     1     103.829 125.794  80.899  0.00  0.00    +0.000 A 
ATOM      7  C   UNL     1     103.542 125.809  82.278  0.00  0.00    +0.000 A 
ATOM      8  C   UNL     1     103.813 124.668  83.059  0.00  0.00    +0.000 A 
ATOM      9  C   UNL     1     104.312 123.509  82.443  0.00  0.00    +0.000 A 
ATOM     10  C   UNL     1     103.556 124.671  84.540  0.00  0.00    +0.000 C 
ATOM     11  C   UNL     1     103.589 127.014  80.051  0.00  0.00    +0.000 C 
ENDBRANCH   1   7
BRANCH   2  12
ATOM     12  C   UNL     1     101.044 128.254  83.453  0.00  0.00    +0.000 A 
ATOM     13  C   UNL     1     101.801 129.295  84.006  0.00  0.00    +0.000 A 
ATOM     14  C   UNL     1     101.164 130.397  84.577  0.00  0.00    +0.000 A 
ATOM     15  C   UNL     1      99.773 130.460  84.603  0.00  0.00    +0.000 A 
ATOM     16  C   UNL     1      99.013 129.425  84.052  0.00  0.00    +0.000 A 
ATOM     17  C   UNL     1      99.644 128.325  83.460  0.00  0.00    +0.000 A 
BRANCH  17  18
ATOM     18  O   UNL     1      98.930 127.277  82.924  0.00  0.00    +0.000 OA
BRANCH  18  19
ATOM     19  O   UNL     1      97.999 127.814  81.941  0.00  0.00    +0.000 OA
ATOM     20  H   UNL     1      97.140 127.376  82.036  0.00  0.00    +0.000 HD
ENDBRANCH  18  19
ENDBRANCH  17  18
ENDBRANCH   2  12
TORSDOF 4
ENDMDL
