MODEL 1
REMARK VINA RESULT:      -4.6      0.000      0.000
REMARK  Name = *****
REMARK  5 active torsions:
REMARK  status: ('A' for Active; 'I' for Inactive)
REMARK    1  A    between atoms: C_1  and  O_2
REMARK    2  A    between atoms: O_2  and  C_3
REMARK    3  A    between atoms: C_6  and  C_9
REMARK    4  A    between atoms: C_9  and  C_10
REMARK    5  A    between atoms: C_10  and  C_11
REMARK                            x       y       z     vdW  Elec       q    Type
REMARK                         _______ _______ _______ _____ _____    ______ ____
ROOT
ATOM      1  C   UNL     1     103.383 127.602  81.822  0.00  0.00    +0.000 C 
ENDROOT
BRANCH   1   5
ATOM      2  C   UNL     1     104.758 123.718  80.513  0.00  0.00    +0.000 A 
ATOM      3  C   UNL     1     104.916 124.833  79.690  0.00  0.00    +0.000 A 
ATOM      4  C   UNL     1     104.475 126.091  80.120  0.00  0.00    +0.000 A 
ATOM      5  C   UNL     1     103.877 126.249  81.375  0.00  0.00    +0.000 A 
ATOM      6  C   UNL     1     103.717 125.126  82.194  0.00  0.00    +0.000 A 
ATOM      7  C   UNL     1     104.158 123.873  81.764  0.00  0.00    +0.000 A 
BRANCH   2   9
ATOM      8  C   UNL     1     104.862 121.443  81.192  0.00  0.00    +0.000 C 
ATOM      9  O   UNL     1     105.142 122.438  80.216  0.00  0.00    +0.000 OA
ENDBRANCH   2   9
ENDBRANCH   1   5
BRANCH   1  10
ATOM     10  C   UNL     1     102.699 127.529  83.190  0.00  0.00    +0.000 C 
BRANCH  10  11
ATOM     11  C   UNL     1     101.203 127.722  83.084  0.00  0.00    +0.000 A 
ATOM     12  C   UNL     1     100.433 126.713  82.479  0.00  0.00    +0.000 A 
ATOM     13  C   UNL     1      99.046 126.836  82.371  0.00  0.00    +0.000 A 
ATOM     14  C   UNL     1      98.407 127.967  82.870  0.00  0.00    +0.000 A 
ATOM     15  C   UNL     1      99.154 128.975  83.479  0.00  0.00    +0.000 A 
ATOM     16  C   UNL     1     100.543 128.854  83.588  0.00  0.00    +0.000 A 
ATOM     17 CL   UNL     1     101.398 130.142  84.362  0.00  0.00    +0.000 Cl
ENDBRANCH  10  11
ENDBRANCH   1  10
TORSDOF 4
ENDMDL
