MODEL 1
REMARK VINA RESULT:      -4.4      0.000      0.000
REMARK  Name = *****
REMARK  4 active torsions:
REMARK  status: ('A' for Active; 'I' for Inactive)
REMARK    1  A    between atoms: C_3  and  S_8
REMARK    2  A    between atoms: S_8  and  C_9
REMARK    3  A    between atoms: C_9  and  C_11
REMARK    4  A    between atoms: C_14  and  C_17
REMARK                            x       y       z     vdW  Elec       q    Type
REMARK                         _______ _______ _______ _____ _____    ______ ____
ROOT
ATOM      1  C   UNL     1      87.793  70.720  85.755  0.00  0.00    +0.000 C 
ATOM      2  O   UNL     1      87.832  70.515  84.548  0.00  0.00    +0.000 OA
ENDROOT
BRANCH   1   3
ATOM      3  C   UNL     1      86.569  71.313  86.380  0.00  0.00    +0.000 A 
ATOM      4  C   UNL     1      85.521  71.895  85.651  0.00  0.00    +0.000 A 
ATOM      5  C   UNL     1      84.412  72.440  86.313  0.00  0.00    +0.000 A 
ATOM      6  C   UNL     1      84.336  72.412  87.708  0.00  0.00    +0.000 A 
ATOM      7  C   UNL     1      85.373  71.832  88.443  0.00  0.00    +0.000 A 
ATOM      8  C   UNL     1      86.480  71.287  87.782  0.00  0.00    +0.000 A 
BRANCH   6   9
ATOM      9  C   UNL     1      83.201  72.975  88.381  0.00  0.00    +0.000 C 
ATOM     10  N   UNL     1      82.282  73.425  88.928  0.00  0.00    +0.000 NA
ENDBRANCH   6   9
ENDBRANCH   1   3
BRANCH   1  11
ATOM     11  S   UNL     1      89.164  70.338  86.794  0.00  0.00    +0.000 S 
BRANCH  11  14
ATOM     12  C   UNL     1      88.017  66.473  87.287  0.00  0.00    +0.000 A 
ATOM     13  C   UNL     1      88.063  67.868  87.321  0.00  0.00    +0.000 A 
ATOM     14  C   UNL     1      89.149  68.556  86.770  0.00  0.00    +0.000 A 
ATOM     15  C   UNL     1      90.185  67.835  86.167  0.00  0.00    +0.000 A 
ATOM     16  C   UNL     1      90.136  66.441  86.138  0.00  0.00    +0.000 A 
ATOM     17  C   UNL     1      89.057  65.757  86.695  0.00  0.00    +0.000 A 
ATOM     18 CL   UNL     1      91.415  65.559  85.398  0.00  0.00    +0.000 Cl
ENDBRANCH  11  14
ENDBRANCH   1  11
TORSDOF 4
ENDMDL
