MODEL 1
REMARK VINA RESULT:      -4.5      0.000      0.000
REMARK  Name = *****
REMARK  1 active torsions:
REMARK  status: ('A' for Active; 'I' for Inactive)
REMARK    1  A    between atoms: C_8  and  C_11
REMARK                            x       y       z     vdW  Elec       q    Type
REMARK                         _______ _______ _______ _____ _____    ______ ____
ROOT
ATOM      1  C   UNL     1     105.582 125.895  82.000  0.00  0.00    +0.000 C 
ATOM      2  C   UNL     1     106.621 124.802  82.209  0.00  0.00    +0.000 C 
ATOM      3  S   UNL     1     106.823 123.782  80.724  0.00  0.00    +0.000 S 
ATOM      4  C   UNL     1     105.099 123.250  80.536  0.00  0.00    +0.000 C 
ATOM      5  C   UNL     1     104.155 124.440  80.431  0.00  0.00    +0.000 C 
ATOM      6  C   UNL     1     104.185 125.362  81.657  0.00  0.00    +0.000 C 
ATOM      7  C   UNL     1     103.204 126.480  81.512  0.00  0.00    +0.000 C 
ATOM      8  C   UNL     1     102.307 126.314  82.487  0.00  0.00    +0.000 C 
ATOM      9  N   UNL     1     102.589 125.205  83.250  0.00  0.00    +0.000 NA
ATOM     10  N   UNL     1     103.633 124.631  82.834  0.00  0.00    +0.000 NA
ENDROOT
BRANCH   8  11
ATOM     11  C   UNL     1     101.128 127.159  82.746  0.00  0.00    +0.000 A 
ATOM     12  C   UNL     1      99.848 126.709  82.384  0.00  0.00    +0.000 A 
ATOM     13  C   UNL     1      98.713 127.489  82.625  0.00  0.00    +0.000 A 
ATOM     14  C   UNL     1      98.840 128.731  83.239  0.00  0.00    +0.000 A 
ATOM     15  C   UNL     1     100.099 129.192  83.614  0.00  0.00    +0.000 A 
ATOM     16  C   UNL     1     101.234 128.412  83.371  0.00  0.00    +0.000 A 
ENDBRANCH   8  11
TORSDOF 1
ENDMDL
