MODEL 1
REMARK VINA RESULT:      -4.5      0.000      0.000
REMARK  Name = *****
REMARK  3 active torsions:
REMARK  status: ('A' for Active; 'I' for Inactive)
REMARK    1  A    between atoms: C_4  and  C_7
REMARK    2  A    between atoms: C_8  and  C_9
REMARK    3  A    between atoms: C_10  and  C_14
REMARK                            x       y       z     vdW  Elec       q    Type
REMARK                         _______ _______ _______ _____ _____    ______ ____
ROOT
ATOM      1  C   UNL     1     102.260 127.016  82.042  0.00  0.00    +0.000 C 
ATOM      2  C   UNL     1     101.789 127.264  83.276  0.00  0.00    +0.000 C 
ENDROOT
BRANCH   1   6
ATOM      3  C   UNL     1     104.707 123.614  81.183  0.00  0.00    +0.000 A 
ATOM      4  C   UNL     1     104.407 124.517  80.165  0.00  0.00    +0.000 A 
ATOM      5  C   UNL     1     103.605 125.629  80.430  0.00  0.00    +0.000 A 
ATOM      6  C   UNL     1     103.084 125.843  81.714  0.00  0.00    +0.000 A 
ATOM      7  C   UNL     1     103.407 124.937  82.732  0.00  0.00    +0.000 A 
ATOM      8  C   UNL     1     104.210 123.824  82.467  0.00  0.00    +0.000 A 
ENDBRANCH   1   6
BRANCH   2   9
ATOM      9  C   UNL     1     101.012 128.420  83.594  0.00  0.00    +0.000 A 
ATOM     10  C   UNL     1      99.678 128.749  83.383  0.00  0.00    +0.000 A 
ATOM     11  C   UNL     1      99.337 130.045  83.881  0.00  0.00    +0.000 A 
ATOM     12  C   UNL     1     100.404 130.672  84.477  0.00  0.00    +0.000 A 
ATOM     13  S   UNL     1     101.806 129.704  84.447  0.00  0.00    +0.000 S 
BRANCH  10  14
ATOM     14  C   UNL     1      98.716 127.889  82.754  0.00  0.00    +0.000 C 
ATOM     15  N   UNL     1      97.956 127.180  82.239  0.00  0.00    +0.000 NA
ENDBRANCH  10  14
ENDBRANCH   2   9
TORSDOF 3
ENDMDL
