MODEL 1
REMARK VINA RESULT:      -4.7      0.000      0.000
REMARK  Name = *****
REMARK  4 active torsions:
REMARK  status: ('A' for Active; 'I' for Inactive)
REMARK    1  A    between atoms: C_1  and  C_2
REMARK    2  A    between atoms: C_4  and  C_8
REMARK    3  A    between atoms: C_8  and  N_9
REMARK    4  A    between atoms: N_9  and  C_10
REMARK                            x       y       z     vdW  Elec       q    Type
REMARK                         _______ _______ _______ _____ _____    ______ ____
ROOT
ATOM      1  C   UNL     1      88.720  70.889  83.986  0.00  0.00    +0.000 A 
ATOM      2  C   UNL     1      90.063  70.543  83.771  0.00  0.00    +0.000 A 
ATOM      3  C   UNL     1      91.007  71.512  83.452  0.00  0.00    +0.000 A 
ATOM      4  C   UNL     1      90.627  72.840  83.332  0.00  0.00    +0.000 A 
ATOM      5  C   UNL     1      89.302  73.202  83.526  0.00  0.00    +0.000 A 
ATOM      6  C   UNL     1      88.355  72.235  83.845  0.00  0.00    +0.000 A 
ATOM      7  F   UNL     1      87.077  72.611  84.008  0.00  0.00    +0.000 F 
ATOM      8  F   UNL     1      88.935  74.485  83.388  0.00  0.00    +0.000 F 
ATOM      9  F   UNL     1      91.537  73.772  83.012  0.00  0.00    +0.000 F 
ATOM     10  F   UNL     1      92.286  71.164  83.244  0.00  0.00    +0.000 F 
ATOM     11  F   UNL     1      90.454  69.262  83.860  0.00  0.00    +0.000 F 
ENDROOT
BRANCH   1  12
ATOM     12  N   UNL     1      87.757  69.911  84.290  0.00  0.00    +0.000 NA
BRANCH  12  13
ATOM     13  C   UNL     1      87.810  69.444  85.507  0.00  0.00    +0.000 C 
BRANCH  13  17
ATOM     14  C   UNL     1      88.523  71.321  90.155  0.00  0.00    +0.000 C 
ATOM     15  C   UNL     1      87.705  71.108  88.898  0.00  0.00    +0.000 A 
ATOM     16  C   UNL     1      88.241  70.344  87.818  0.00  0.00    +0.000 A 
ATOM     17  C   UNL     1      87.366  70.219  86.697  0.00  0.00    +0.000 A 
ATOM     18  C   UNL     1      86.084  70.798  86.653  0.00  0.00    +0.000 A 
ATOM     19  C   UNL     1      85.610  71.532  87.729  0.00  0.00    +0.000 A 
ATOM     20  C   UNL     1      86.418  71.686  88.847  0.00  0.00    +0.000 A 
ATOM     21  O   UNL     1      89.411  69.821  87.866  0.00  0.00    +0.000 OA
ENDBRANCH  13  17
ENDBRANCH  12  13
ENDBRANCH   1  12
TORSDOF 3
ENDMDL
