MODEL 1
REMARK VINA RESULT:      -4.5      0.000      0.000
REMARK  Name = *****
REMARK  3 active torsions:
REMARK  status: ('A' for Active; 'I' for Inactive)
REMARK    1  A    between atoms: C_4  and  C_7
REMARK    2  A    between atoms: C_7  and  N_9
REMARK    3  A    between atoms: N_9  and  C_10
REMARK                            x       y       z     vdW  Elec       q    Type
REMARK                         _______ _______ _______ _____ _____    ______ ____
ROOT
ATOM      1  C   UNL     1     103.076 126.062  81.515  0.00  0.00    +0.000 C 
ATOM      2  S   UNL     1     103.579 127.263  80.460  0.00  0.00    +0.000 S 
ENDROOT
BRANCH   1   6
ATOM      3  C   UNL     1     104.842 122.076  81.651  0.00  0.00    +0.000 C 
ATOM      4  C   UNL     1     104.927 122.916  82.922  0.00  0.00    +0.000 C 
ATOM      5  C   UNL     1     103.887 124.040  82.919  0.00  0.00    +0.000 C 
ATOM      6  C   UNL     1     103.791 124.740  81.590  0.00  0.00    +0.000 C 
ATOM      7  C   UNL     1     104.329 124.248  80.458  0.00  0.00    +0.000 C 
ATOM      8  C   UNL     1     105.054 122.935  80.402  0.00  0.00    +0.000 C 
ENDBRANCH   1   6
BRANCH   1   9
ATOM      9  N   UNL     1     102.051 126.088  82.455  0.00  0.00    +0.000 N 
ATOM     10  H   UNL     1     102.072 125.327  83.078  0.00  0.00    +0.000 HD
BRANCH   9  11
ATOM     11  C   UNL     1     100.984 126.985  82.698  0.00  0.00    +0.000 A 
ATOM     12  C   UNL     1      99.648 126.774  82.362  0.00  0.00    +0.000 A 
ATOM     13  C   UNL     1      98.672 127.731  82.668  0.00  0.00    +0.000 A 
ATOM     14  C   UNL     1      99.020 128.911  83.318  0.00  0.00    +0.000 A 
ATOM     15  C   UNL     1     100.346 129.131  83.672  0.00  0.00    +0.000 A 
ATOM     16  C   UNL     1     101.317 128.174  83.367  0.00  0.00    +0.000 A 
ENDBRANCH   9  11
ENDBRANCH   1   9
TORSDOF 3
ENDMDL
