MODEL 1
REMARK VINA RESULT:      -4.0      0.000      0.000
REMARK  Name = *****
REMARK  3 active torsions:
REMARK  status: ('A' for Active; 'I' for Inactive)
REMARK    1  A    between atoms: C_4  and  O_6
REMARK    2  A    between atoms: O_6  and  C_7
REMARK    3  A    between atoms: C_7  and  C_9
REMARK                            x       y       z     vdW  Elec       q    Type
REMARK                         _______ _______ _______ _____ _____    ______ ____
ROOT
ATOM      1  C   UNL     1     101.442 126.307  83.489  0.00  0.00    +0.000 C 
ATOM      2  O   UNL     1     101.628 125.547  84.421  0.00  0.00    +0.000 OA
ENDROOT
BRANCH   1   3
ATOM      3  C   UNL     1     100.789 127.605  83.606  0.00  0.00    +0.000 A 
ATOM      4  C   UNL     1     101.483 128.643  84.220  0.00  0.00    +0.000 A 
ATOM      5  C   UNL     1     100.908 129.907  84.340  0.00  0.00    +0.000 A 
ATOM      6  C   UNL     1      99.628 130.134  83.837  0.00  0.00    +0.000 A 
ATOM      7  C   UNL     1      98.928 129.093  83.219  0.00  0.00    +0.000 A 
ATOM      8  C   UNL     1      99.508 127.825  83.101  0.00  0.00    +0.000 A 
ATOM      9 CL   UNL     1      98.585 126.575  82.350  0.00  0.00    +0.000 Cl
ATOM     10  F   UNL     1     102.718 128.450  84.706  0.00  0.00    +0.000 F 
ENDBRANCH   1   3
BRANCH   1  11
ATOM     11  O   UNL     1     101.814 126.148  82.196  0.00  0.00    +0.000 OA
BRANCH  11  15
ATOM     12  C   UNL     1     103.672 127.021  80.042  0.00  0.00    +0.000 C 
ATOM     13  C   UNL     1     104.103 127.798  81.286  0.00  0.00    +0.000 C 
ATOM     14  C   UNL     1     104.160 126.777  82.419  0.00  0.00    +0.000 C 
ATOM     15  C   UNL     1     103.165 125.699  82.001  0.00  0.00    +0.000 C 
ATOM     16  C   UNL     1     103.416 125.586  80.502  0.00  0.00    +0.000 C 
ENDBRANCH  11  15
ENDBRANCH   1  11
TORSDOF 3
ENDMDL
