REMARK  Name = *****
REMARK  3 active torsions:
REMARK  status: ('A' for Active; 'I' for Inactive)
REMARK    1  A    between atoms: C_3  and  C_4
REMARK    2  A    between atoms: C_4  and  C_12
REMARK    3  A    between atoms: N_5  and  C_6
REMARK                            x       y       z     vdW  Elec       q    Type
REMARK                         _______ _______ _______ _____ _____    ______ ____
ROOT
ATOM      1  C   UNL     1      -1.426  -0.905  -1.253  0.00  0.00    +0.000 C 
ATOM      2  N   UNL     1      -0.784  -1.515  -2.207  0.00  0.00    +0.000 NA
ENDROOT
BRANCH   2   3
ATOM      3  C   UNL     1       0.614  -1.560  -2.241  0.00  0.00    +0.000 A 
ATOM      4  C   UNL     1       1.330  -2.413  -1.395  0.00  0.00    +0.000 A 
ATOM      5  C   UNL     1       2.724  -2.474  -1.464  0.00  0.00    +0.000 A 
ATOM      6  C   UNL     1       3.409  -1.694  -2.394  0.00  0.00    +0.000 A 
ATOM      7  C   UNL     1       2.702  -0.863  -3.262  0.00  0.00    +0.000 A 
ATOM      8  C   UNL     1       1.308  -0.805  -3.189  0.00  0.00    +0.000 A 
ENDBRANCH   2   3
BRANCH   1   9
ATOM      9  C   UNL     1      -2.918  -0.965  -1.235  0.00  0.00    +0.000 A 
ATOM     10  C   UNL     1      -3.607  -1.172  -2.437  0.00  0.00    +0.000 A 
ATOM     11  C   UNL     1      -5.001  -1.238  -2.449  0.00  0.00    +0.000 A 
ATOM     12  C   UNL     1      -5.714  -1.107  -1.258  0.00  0.00    +0.000 A 
ATOM     13  C   UNL     1      -5.036  -0.915  -0.055  0.00  0.00    +0.000 A 
ATOM     14  C   UNL     1      -3.640  -0.848  -0.041  0.00  0.00    +0.000 A 
ENDBRANCH   1   9
BRANCH   1  17
ATOM     15  C   UNL     1      -1.145   1.220   0.264  0.00  0.00    +0.000 C 
ATOM     16  C   UNL     1       0.149   1.024  -0.455  0.00  0.00    +0.000 C 
ATOM     17  C   UNL     1      -0.725  -0.176  -0.150  0.00  0.00    +0.000 C 
ENDBRANCH   1  17
TORSDOF 3
