REMARK  Name = *****
REMARK  5 active torsions:
REMARK  status: ('A' for Active; 'I' for Inactive)
REMARK    1  A    between atoms: C_1  and  C_2
REMARK    2  A    between atoms: C_4  and  C_18
REMARK    3  A    between atoms: C_5  and  O_8
REMARK    4  A    between atoms: O_8  and  C_9
REMARK    5  A    between atoms: C_9  and  C_11
REMARK                            x       y       z     vdW  Elec       q    Type
REMARK                         _______ _______ _______ _____ _____    ______ ____
ROOT
ATOM      1  O   UNL     1      -1.634  -1.937   1.353  0.00  0.00    +0.000 OA
ENDROOT
BRANCH   1   6
ATOM      2  C   UNL     1       2.421   1.293  -0.984  0.00  0.00    +0.000 C 
ATOM      3  C   UNL     1       1.343   0.428  -0.400  0.00  0.00    +0.000 A 
ATOM      4  C   UNL     1       0.034   0.919  -0.269  0.00  0.00    +0.000 A 
ATOM      5  C   UNL     1      -0.978   0.134   0.302  0.00  0.00    +0.000 A 
ATOM      6  C   UNL     1      -0.651  -1.157   0.731  0.00  0.00    +0.000 A 
ATOM      7  C   UNL     1       0.652  -1.649   0.642  0.00  0.00    +0.000 A 
ATOM      8  C   UNL     1       1.646  -0.855   0.074  0.00  0.00    +0.000 A 
ATOM      9  C   UNL     1      -2.374   0.666   0.432  0.00  0.00    +0.000 C 
ENDBRANCH   1   6
BRANCH   1  10
ATOM     10  C   UNL     1      -2.109  -2.973   0.573  0.00  0.00    +0.000 C 
ATOM     11  O   UNL     1      -1.765  -3.270  -0.561  0.00  0.00    +0.000 OA
BRANCH  10  12
ATOM     12  C   UNL     1      -3.152  -3.727   1.325  0.00  0.00    +0.000 A 
ATOM     13  C   UNL     1      -3.578  -3.357   2.610  0.00  0.00    +0.000 A 
ATOM     14  C   UNL     1      -4.563  -4.102   3.267  0.00  0.00    +0.000 A 
ATOM     15  C   UNL     1      -5.124  -5.216   2.643  0.00  0.00    +0.000 A 
ATOM     16  C   UNL     1      -4.711  -5.593   1.367  0.00  0.00    +0.000 A 
ATOM     17  C   UNL     1      -3.727  -4.849   0.709  0.00  0.00    +0.000 A 
ATOM     18 CL   UNL     1      -6.335  -6.129   3.454  0.00  0.00    +0.000 Cl
ENDBRANCH  10  12
ENDBRANCH   1  10
TORSDOF 3
