MODEL 1
REMARK VINA RESULT:      -4.4      0.000      0.000
REMARK  Name = *****
REMARK  4 active torsions:
REMARK  status: ('A' for Active; 'I' for Inactive)
REMARK    1  A    between atoms: C_1  and  C_2
REMARK    2  A    between atoms: C_1  and  O_8
REMARK    3  A    between atoms: O_8  and  C_9
REMARK    4  A    between atoms: C_12  and  C_15
REMARK                            x       y       z     vdW  Elec       q    Type
REMARK                         _______ _______ _______ _____ _____    ______ ____
ROOT
ATOM      1  O   UNL     1     103.195 127.345  81.849  0.00  0.00    +0.000 OA
ENDROOT
BRANCH   1   2
ATOM      2  C   UNL     1     103.708 126.152  81.423  0.00  0.00    +0.000 A 
ATOM      3  C   UNL     1     104.221 125.882  80.154  0.00  0.00    +0.000 A 
ATOM      4  C   UNL     1     104.718 124.608  79.852  0.00  0.00    +0.000 A 
ATOM      5  C   UNL     1     104.708 123.590  80.813  0.00  0.00    +0.000 A 
ATOM      6  C   UNL     1     104.190 123.866  82.082  0.00  0.00    +0.000 A 
ATOM      7  C   UNL     1     103.694 125.136  82.382  0.00  0.00    +0.000 A 
ATOM      8  C   UNL     1     105.240 122.224  80.501  0.00  0.00    +0.000 C 
ENDBRANCH   1   2
BRANCH   1   9
ATOM      9  C   UNL     1     102.655 127.386  83.169  0.00  0.00    +0.000 C 
BRANCH   9  10
ATOM     10  C   UNL     1     101.170 127.643  83.078  0.00  0.00    +0.000 A 
ATOM     11  C   UNL     1     100.616 128.837  83.559  0.00  0.00    +0.000 A 
ATOM     12  C   UNL     1      99.244 129.072  83.457  0.00  0.00    +0.000 A 
ATOM     13  C   UNL     1      98.412 128.119  82.872  0.00  0.00    +0.000 A 
ATOM     14  C   UNL     1      98.951 126.928  82.391  0.00  0.00    +0.000 A 
ATOM     15  C   UNL     1     100.323 126.691  82.492  0.00  0.00    +0.000 A 
ENDBRANCH   9  10
ENDBRANCH   1   9
TORSDOF 3
ENDMDL
