MODEL 1
REMARK VINA RESULT:      -4.5      0.000      0.000
REMARK  Name = *****
REMARK  3 active torsions:
REMARK  status: ('A' for Active; 'I' for Inactive)
REMARK    1  A    between atoms: C_6  and  C_7
REMARK    2  A    between atoms: C_7  and  C_8
REMARK    3  A    between atoms: C_8  and  C_9
REMARK                            x       y       z     vdW  Elec       q    Type
REMARK                         _______ _______ _______ _____ _____    ______ ____
ROOT
ATOM      1  C   UNL     1      88.872  70.013  86.886  0.00  0.00    +0.000 C 
ENDROOT
BRANCH   1   7
ATOM      2  C   UNL     1      87.943  67.718  87.401  0.00  0.00    +0.000 A 
ATOM      3  C   UNL     1      88.024  66.326  87.350  0.00  0.00    +0.000 A 
ATOM      4  C   UNL     1      89.123  65.724  86.749  0.00  0.00    +0.000 A 
ATOM      5  C   UNL     1      90.142  66.488  86.193  0.00  0.00    +0.000 A 
ATOM      6  C   UNL     1      90.063  67.879  86.242  0.00  0.00    +0.000 A 
ATOM      7  C   UNL     1      88.965  68.507  86.851  0.00  0.00    +0.000 A 
ATOM      8  F   UNL     1      89.199  64.387  86.700  0.00  0.00    +0.000 F 
ENDBRANCH   1   7
BRANCH   1   9
ATOM      9  C   UNL     1      88.093  70.503  88.110  0.00  0.00    +0.000 C 
BRANCH   9  10
ATOM     10  C   UNL     1      86.791  71.156  87.716  0.00  0.00    +0.000 A 
ATOM     11  C   UNL     1      86.487  71.369  86.364  0.00  0.00    +0.000 A 
ATOM     12  C   UNL     1      85.292  71.990  85.997  0.00  0.00    +0.000 A 
ATOM     13  C   UNL     1      84.397  72.405  86.981  0.00  0.00    +0.000 A 
ATOM     14  C   UNL     1      84.688  72.204  88.328  0.00  0.00    +0.000 A 
ATOM     15  C   UNL     1      85.883  71.583  88.696  0.00  0.00    +0.000 A 
ATOM     16 CL   UNL     1      82.924  73.172  86.528  0.00  0.00    +0.000 Cl
ENDBRANCH   9  10
ENDBRANCH   1   9
TORSDOF 3
ENDMDL
