MODEL 1
REMARK VINA RESULT:      -4.4      0.000      0.000
REMARK  Name = *****
REMARK  3 active torsions:
REMARK  status: ('A' for Active; 'I' for Inactive)
REMARK    1  A    between atoms: C_4  and  S_7
REMARK    2  A    between atoms: S_7  and  S_8
REMARK    3  A    between atoms: S_8  and  C_11
REMARK                            x       y       z     vdW  Elec       q    Type
REMARK                         _______ _______ _______ _____ _____    ______ ____
ROOT
ATOM      1  S   UNL     1     100.004 126.876  83.621  0.00  0.00    +0.000 S 
ATOM      2  O   UNL     1      99.580 126.697  82.246  0.00  0.00    +0.000 OA
ATOM      3  O   UNL     1      99.215 126.359  84.722  0.00  0.00    +0.000 OA
ENDROOT
BRANCH   1   4
ATOM      4  C   UNL     1     100.248 128.614  83.900  0.00  0.00    +0.000 A 
ATOM      5  C   UNL     1      99.251 129.521  83.528  0.00  0.00    +0.000 A 
ATOM      6  C   UNL     1      99.441 130.882  83.768  0.00  0.00    +0.000 A 
ATOM      7  C   UNL     1     100.614 131.327  84.382  0.00  0.00    +0.000 A 
ATOM      8  C   UNL     1     101.599 130.414  84.764  0.00  0.00    +0.000 A 
ATOM      9  C   UNL     1     101.418 129.052  84.527  0.00  0.00    +0.000 A 
ENDBRANCH   1   4
BRANCH   1  10
ATOM     10  S   UNL     1     101.932 126.096  83.795  0.00  0.00    +0.000 S 
BRANCH  10  14
ATOM     11  C   UNL     1     104.588 126.229  80.004  0.00  0.00    +0.000 C 
ATOM     12  C   UNL     1     104.027 124.873  80.419  0.00  0.00    +0.000 C 
ATOM     13  C   UNL     1     103.501 124.892  81.854  0.00  0.00    +0.000 C 
ATOM     14  C   UNL     1     102.467 126.006  82.054  0.00  0.00    +0.000 C 
ATOM     15  C   UNL     1     103.044 127.368  81.646  0.00  0.00    +0.000 C 
ATOM     16  C   UNL     1     103.567 127.343  80.209  0.00  0.00    +0.000 C 
ENDBRANCH  10  14
ENDBRANCH   1  10
TORSDOF 3
ENDMDL
