MODEL 1
REMARK VINA RESULT:      -4.8      0.000      0.000
REMARK  Name = *****
REMARK  4 active torsions:
REMARK  status: ('A' for Active; 'I' for Inactive)
REMARK    1  A    between atoms: C_1  and  C_2
REMARK    2  A    between atoms: C_7  and  O_8
REMARK    3  A    between atoms: O_8  and  C_9
REMARK    4  A    between atoms: C_9  and  C_11
REMARK                            x       y       z     vdW  Elec       q    Type
REMARK                         _______ _______ _______ _____ _____    ______ ____
ROOT
ATOM      1  C   UNL     1     101.340 127.014  83.001  0.00  0.00    +0.000 A 
ATOM      2  C   UNL     1     101.856 128.109  83.687  0.00  0.00    +0.000 A 
ATOM      3  C   UNL     1     101.046 129.210  83.949  0.00  0.00    +0.000 A 
ATOM      4  C   UNL     1      99.720 129.214  83.534  0.00  0.00    +0.000 A 
ATOM      5  C   UNL     1      99.202 128.117  82.857  0.00  0.00    +0.000 A 
ATOM      6  C   UNL     1     100.009 127.016  82.592  0.00  0.00    +0.000 A 
ATOM      7  F   UNL     1      99.483 125.955  81.961  0.00  0.00    +0.000 F 
ATOM      8  F   UNL     1      97.921 128.116  82.462  0.00  0.00    +0.000 F 
ATOM      9  F   UNL     1      98.941 130.274  83.787  0.00  0.00    +0.000 F 
ATOM     10  F   UNL     1     101.545 130.269  84.598  0.00  0.00    +0.000 F 
ATOM     11  F   UNL     1     103.138 128.135  84.077  0.00  0.00    +0.000 F 
ENDROOT
BRANCH   1  12
ATOM     12  C   UNL     1     102.198 125.858  82.749  0.00  0.00    +0.000 C 
ATOM     13  O   UNL     1     102.515 125.053  83.605  0.00  0.00    +0.000 OA
BRANCH  12  14
ATOM     14  O   UNL     1     102.584 125.885  81.454  0.00  0.00    +0.000 OA
BRANCH  14  21
ATOM     15  C   UNL     1     104.375 128.149  80.924  0.00  0.00    +0.000 C 
ATOM     16  C   UNL     1     104.495 126.771  80.267  0.00  0.00    +0.000 C 
ATOM     17  C   UNL     1     105.945 126.509  79.840  0.00  0.00    +0.000 C 
ATOM     18  C   UNL     1     106.111 125.128  79.213  0.00  0.00    +0.000 C 
ATOM     19  C   UNL     1     105.603 124.027  80.139  0.00  0.00    +0.000 C 
ATOM     20  C   UNL     1     104.162 124.277  80.564  0.00  0.00    +0.000 C 
ATOM     21  C   UNL     1     103.987 125.658  81.206  0.00  0.00    +0.000 C 
ENDBRANCH  14  21
ENDBRANCH  12  14
ENDBRANCH   1  12
TORSDOF 3
ENDMDL
