MODEL 1
REMARK VINA RESULT:      -4.4      0.000      0.000
REMARK  Name = *****
REMARK  4 active torsions:
REMARK  status: ('A' for Active; 'I' for Inactive)
REMARK    1  A    between atoms: C_1  and  C_2
REMARK    2  A    between atoms: C_2  and  O_8
REMARK    3  A    between atoms: O_8  and  C_9
REMARK    4  A    between atoms: C_9  and  C_11
REMARK                            x       y       z     vdW  Elec       q    Type
REMARK                         _______ _______ _______ _____ _____    ______ ____
ROOT
ATOM      1  O   UNL     1     102.382 125.612  81.970  0.00  0.00    +0.000 OA
ENDROOT
BRANCH   1   3
ATOM      2  C   UNL     1     104.240 124.021  81.774  0.00  0.00    +0.000 C 
ATOM      3  C   UNL     1     103.806 125.491  81.683  0.00  0.00    +0.000 C 
ATOM      4  C   UNL     1     103.968 125.962  80.220  0.00  0.00    +0.000 C 
ATOM      5  C   UNL     1     103.559 127.428  80.034  0.00  0.00    +0.000 C 
ATOM      6  C   UNL     1     104.072 128.324  81.121  0.00  0.00    +0.000 C 
ATOM      7  C   UNL     1     104.583 127.860  82.270  0.00  0.00    +0.000 C 
ATOM      8  C   UNL     1     104.666 126.394  82.604  0.00  0.00    +0.000 C 
ENDBRANCH   1   3
BRANCH   1   9
ATOM      9  C   UNL     1     101.942 125.845  83.228  0.00  0.00    +0.000 C 
ATOM     10  O   UNL     1     102.242 125.221  84.233  0.00  0.00    +0.000 OA
BRANCH   9  11
ATOM     11  C   UNL     1     100.997 126.995  83.237  0.00  0.00    +0.000 A 
ATOM     12  C   UNL     1      99.750 126.832  82.618  0.00  0.00    +0.000 A 
ATOM     13  C   UNL     1      98.828 127.881  82.600  0.00  0.00    +0.000 A 
ATOM     14  C   UNL     1      99.147 129.098  83.199  0.00  0.00    +0.000 A 
ATOM     15  C   UNL     1     100.384 129.270  83.819  0.00  0.00    +0.000 A 
ATOM     16  C   UNL     1     101.308 128.223  83.840  0.00  0.00    +0.000 A 
ENDBRANCH   9  11
ENDBRANCH   1   9
TORSDOF 3
ENDMDL
