REMARK  Name = *****
REMARK  2 active torsions:
REMARK  status: ('A' for Active; 'I' for Inactive)
REMARK    1  A    between atoms: C_4  and  C_7
REMARK    2  A    between atoms: C_8  and  C_9
REMARK                            x       y       z     vdW  Elec       q    Type
REMARK                         _______ _______ _______ _____ _____    ______ ____
ROOT
ATOM      1  C   UNL     1       0.561  -2.809   0.116  0.00  0.00    +0.000 C 
ATOM      2  C   UNL     1      -0.331  -3.787   0.347  0.00  0.00    +0.000 C 
ENDROOT
BRANCH   1   6
ATOM      3  C   UNL     1      -0.275   1.446   0.268  0.00  0.00    +0.000 C 
ATOM      4  C   UNL     1      -1.359   0.553  -0.320  0.00  0.00    +0.000 C 
ATOM      5  C   UNL     1      -1.166  -0.906   0.104  0.00  0.00    +0.000 C 
ATOM      6  C   UNL     1       0.270  -1.382   0.031  0.00  0.00    +0.000 C 
ATOM      7  C   UNL     1       1.284  -0.507  -0.118  0.00  0.00    +0.000 C 
ATOM      8  C   UNL     1       1.110   0.983  -0.177  0.00  0.00    +0.000 C 
ENDBRANCH   1   6
BRANCH   2   9
ATOM      9  C   UNL     1       0.021  -5.213   0.421  0.00  0.00    +0.000 A 
ATOM     10  C   UNL     1       1.175  -5.665   1.074  0.00  0.00    +0.000 A 
ATOM     11  C   UNL     1       1.460  -7.031   1.151  0.00  0.00    +0.000 A 
ATOM     12  C   UNL     1       0.587  -7.959   0.586  0.00  0.00    +0.000 A 
ATOM     13  C   UNL     1      -0.572  -7.523  -0.051  0.00  0.00    +0.000 A 
ATOM     14  C   UNL     1      -0.857  -6.157  -0.128  0.00  0.00    +0.000 A 
ENDBRANCH   2   9
TORSDOF 2
