MODEL 1
REMARK VINA RESULT:      -4.7      0.000      0.000
REMARK  Name = *****
REMARK  2 active torsions:
REMARK  status: ('A' for Active; 'I' for Inactive)
REMARK    1  A    between atoms: C_1  and  C_2
REMARK    2  A    between atoms: C_9  and  C_11
REMARK                            x       y       z     vdW  Elec       q    Type
REMARK                         _______ _______ _______ _____ _____    ______ ____
ROOT
ATOM      1  C   UNL     1     106.496 122.723  80.327  0.00  0.00    +0.000 C 
ATOM      2  C   UNL     1     105.439 123.523  80.977  0.00  0.00    +0.000 A 
ATOM      3  N   UNL     1     104.572 124.348  80.425  0.00  0.00    +0.000 NA
ATOM      4  C   UNL     1     103.838 124.804  81.492  0.00  0.00    +0.000 A 
ATOM      5  C   UNL     1     104.300 124.226  82.661  0.00  0.00    +0.000 A 
ATOM      6  O   UNL     1     105.335 123.398  82.337  0.00  0.00    +0.000 OA
ATOM      7  C   UNL     1     103.779 124.470  83.922  0.00  0.00    +0.000 A 
ATOM      8  C   UNL     1     102.704 125.371  83.968  0.00  0.00    +0.000 A 
ATOM      9  C   UNL     1     102.185 125.995  82.812  0.00  0.00    +0.000 A 
ATOM     10  C   UNL     1     102.766 125.704  81.557  0.00  0.00    +0.000 A 
ENDROOT
BRANCH   9  11
ATOM     11  C   UNL     1     101.051 126.933  82.911  0.00  0.00    +0.000 A 
ATOM     12  C   UNL     1     101.187 128.171  83.560  0.00  0.00    +0.000 A 
ATOM     13  C   UNL     1     100.112 129.059  83.655  0.00  0.00    +0.000 A 
ATOM     14  C   UNL     1      98.879 128.724  83.100  0.00  0.00    +0.000 A 
ATOM     15  C   UNL     1      98.723 127.502  82.450  0.00  0.00    +0.000 A 
ATOM     16  C   UNL     1      99.799 126.616  82.357  0.00  0.00    +0.000 A 
ENDBRANCH   9  11
TORSDOF 1
ENDMDL
