MODEL 1
REMARK VINA RESULT:      -4.3      0.000      0.000
REMARK  Name = *****
REMARK  3 active torsions:
REMARK  status: ('A' for Active; 'I' for Inactive)
REMARK    1  A    between atoms: C_1  and  C_2
REMARK    2  A    between atoms: C_4  and  S_8
REMARK    3  A    between atoms: S_8  and  C_9
REMARK                            x       y       z     vdW  Elec       q    Type
REMARK                         _______ _______ _______ _____ _____    ______ ____
ROOT
ATOM      1  S   UNL     1     102.588 126.600  84.098  0.00  0.00    +0.000 S 
ENDROOT
BRANCH   1   5
ATOM      2  C   UNL     1      99.448 130.818  83.951  0.00  0.00    +0.000 C 
ATOM      3  C   UNL     1      99.682 129.392  83.549  0.00  0.00    +0.000 A 
ATOM      4  C   UNL     1     100.859 128.731  83.931  0.00  0.00    +0.000 A 
ATOM      5  C   UNL     1     101.074 127.393  83.586  0.00  0.00    +0.000 A 
ATOM      6  C   UNL     1     100.087 126.700  82.881  0.00  0.00    +0.000 A 
ATOM      7  C   UNL     1      98.906 127.345  82.508  0.00  0.00    +0.000 A 
ATOM      8  C   UNL     1      98.703 128.684  82.843  0.00  0.00    +0.000 A 
ENDBRANCH   1   5
BRANCH   1   9
ATOM      9  C   UNL     1     102.869 125.486  82.668  0.00  0.00    +0.000 C 
ATOM     10  C   UNL     1     103.873 124.337  82.994  0.00  0.00    +0.000 C 
ATOM     11  C   UNL     1     104.981 124.536  81.935  0.00  0.00    +0.000 C 
ATOM     12  C   UNL     1     105.069 126.061  81.882  0.00  0.00    +0.000 C 
ATOM     13  C   UNL     1     103.590 126.231  81.511  0.00  0.00    +0.000 C 
ATOM     14  C   UNL     1     103.556 125.308  80.307  0.00  0.00    +0.000 C 
ATOM     15  C   UNL     1     104.383 124.285  80.571  0.00  0.00    +0.000 C 
ENDBRANCH   1   9
TORSDOF 2
ENDMDL
