MODEL 1
REMARK VINA RESULT:      -5.0      0.000      0.000
REMARK  Name = *****
REMARK  4 active torsions:
REMARK  status: ('A' for Active; 'I' for Inactive)
REMARK    1  A    between atoms: C_1  and  C_2
REMARK    2  A    between atoms: C_5  and  C_8
REMARK    3  A    between atoms: C_9  and  C_10
REMARK    4  A    between atoms: C_15  and  C_16
REMARK                            x       y       z     vdW  Elec       q    Type
REMARK                         _______ _______ _______ _____ _____    ______ ____
ROOT
ATOM      1  C   UNL     1     102.704 125.875  81.499  0.00  0.00    +0.000 C 
ATOM      2  C   UNL     1     101.972 125.977  82.621  0.00  0.00    +0.000 C 
ENDROOT
BRANCH   1   7
ATOM      3  C   UNL     1     106.859 121.897  80.818  0.00  0.00    +0.000 C 
ATOM      4  C   UNL     1     105.761 122.908  80.973  0.00  0.00    +0.000 A 
ATOM      5  C   UNL     1     105.441 123.774  79.922  0.00  0.00    +0.000 A 
ATOM      6  C   UNL     1     104.440 124.738  80.076  0.00  0.00    +0.000 A 
ATOM      7  C   UNL     1     103.740 124.855  81.283  0.00  0.00    +0.000 A 
ATOM      8  C   UNL     1     104.085 124.008  82.343  0.00  0.00    +0.000 A 
ATOM      9  C   UNL     1     105.086 123.042  82.189  0.00  0.00    +0.000 A 
ENDBRANCH   1   7
BRANCH   2  10
ATOM     10  C   UNL     1     100.954 127.023  82.814  0.00  0.00    +0.000 A 
ATOM     11  C   UNL     1      99.629 126.779  82.416  0.00  0.00    +0.000 A 
ATOM     12  C   UNL     1      98.635 127.738  82.614  0.00  0.00    +0.000 A 
ATOM     13  C   UNL     1      98.951 128.948  83.220  0.00  0.00    +0.000 A 
ATOM     14  C   UNL     1     100.260 129.201  83.631  0.00  0.00    +0.000 A 
ATOM     15  C   UNL     1     101.274 128.248  83.434  0.00  0.00    +0.000 A 
ATOM     16  C   UNL     1     102.671 128.563  83.896  0.00  0.00    +0.000 C 
ENDBRANCH   2  10
TORSDOF 2
ENDMDL
