MODEL 1
REMARK VINA RESULT:      -4.8      0.000      0.000
REMARK  Name = *****
REMARK  4 active torsions:
REMARK  status: ('A' for Active; 'I' for Inactive)
REMARK    1  A    between atoms: C_1  and  C_2
REMARK    2  A    between atoms: C_2  and  O_3
REMARK    3  A    between atoms: O_3  and  C_4
REMARK    4  A    between atoms: C_6  and  C_14
REMARK                            x       y       z     vdW  Elec       q    Type
REMARK                         _______ _______ _______ _____ _____    ______ ____
ROOT
ATOM      1  C   UNL     1     103.567 124.249  83.239  0.00  0.00    +0.000 A 
ATOM      2  N   UNL     1     102.575 125.147  83.443  0.00  0.00    +0.000 NA
ATOM      3  C   UNL     1     102.268 125.996  82.434  0.00  0.00    +0.000 A 
ATOM      4  C   UNL     1     102.951 125.968  81.219  0.00  0.00    +0.000 A 
ATOM      5  C   UNL     1     103.980 125.038  81.017  0.00  0.00    +0.000 A 
ATOM      6  C   UNL     1     104.688 124.984  79.803  0.00  0.00    +0.000 A 
ATOM      7  C   UNL     1     105.713 124.056  79.613  0.00  0.00    +0.000 A 
ATOM      8  C   UNL     1     106.046 123.170  80.632  0.00  0.00    +0.000 A 
ATOM      9  C   UNL     1     105.352 123.213  81.842  0.00  0.00    +0.000 A 
ATOM     10  C   UNL     1     104.311 124.145  82.052  0.00  0.00    +0.000 A 
ENDROOT
BRANCH   3  11
ATOM     11  C   UNL     1     101.181 126.958  82.718  0.00  0.00    +0.000 A 
ATOM     12  C   UNL     1      99.853 126.662  82.363  0.00  0.00    +0.000 A 
ATOM     13  C   UNL     1      98.808 127.553  82.631  0.00  0.00    +0.000 A 
ATOM     14  C   UNL     1      99.074 128.766  83.259  0.00  0.00    +0.000 A 
ATOM     15  C   UNL     1     100.381 129.090  83.612  0.00  0.00    +0.000 A 
ATOM     16  C   UNL     1     101.423 128.196  83.342  0.00  0.00    +0.000 A 
ENDBRANCH   3  11
BRANCH   1  17
ATOM     17  O   UNL     1     103.891 123.378  84.267  0.00  0.00    +0.000 OA
BRANCH  17  19
ATOM     18  C   UNL     1     105.546 124.506  85.555  0.00  0.00    +0.000 C 
ATOM     19  C   UNL     1     104.105 124.029  85.519  0.00  0.00    +0.000 C 
ENDBRANCH  17  19
ENDBRANCH   1  17
TORSDOF 3
ENDMDL
