MODEL 1
REMARK VINA RESULT:      -4.8      0.000      0.000
REMARK  Name = *****
REMARK  4 active torsions:
REMARK  status: ('A' for Active; 'I' for Inactive)
REMARK    1  A    between atoms: C_3  and  C_17
REMARK    2  A    between atoms: C_5  and  O_7
REMARK    3  A    between atoms: O_7  and  C_8
REMARK    4  A    between atoms: C_8  and  C_10
REMARK                            x       y       z     vdW  Elec       q    Type
REMARK                         _______ _______ _______ _____ _____    ______ ____
ROOT
ATOM      1  C   UNL     1     104.368 128.002  81.223  0.00  0.00    +0.000 A 
ATOM      2  C   UNL     1     103.157 127.926  81.917  0.00  0.00    +0.000 A 
ATOM      3  C   UNL     1     102.390 126.748  81.893  0.00  0.00    +0.000 A 
ATOM      4  C   UNL     1     102.848 125.653  81.146  0.00  0.00    +0.000 A 
ATOM      5  C   UNL     1     104.047 125.752  80.439  0.00  0.00    +0.000 A 
ATOM      6  C   UNL     1     104.821 126.909  80.488  0.00  0.00    +0.000 A 
ENDROOT
BRANCH   3   7
ATOM      7  C   UNL     1     101.076 126.679  82.630  0.00  0.00    +0.000 C 
ATOM      8  F   UNL     1     101.146 125.928  83.765  0.00  0.00    +0.000 F 
ATOM      9  F   UNL     1     100.631 127.904  83.021  0.00  0.00    +0.000 F 
ATOM     10  F   UNL     1     100.071 126.133  81.889  0.00  0.00    +0.000 F 
ENDBRANCH   3   7
BRANCH   5  11
ATOM     11  O   UNL     1     104.561 124.659  79.730  0.00  0.00    +0.000 OA
BRANCH  11  12
ATOM     12  C   UNL     1     105.660 124.046  80.301  0.00  0.00    +0.000 C 
ATOM     13  O   UNL     1     106.838 124.288  80.081  0.00  0.00    +0.000 OA
BRANCH  12  14
ATOM     14  C   UNL     1     105.212 123.005  81.267  0.00  0.00    +0.000 A 
ATOM     15  C   UNL     1     105.174 123.220  82.654  0.00  0.00    +0.000 A 
ATOM     16  C   UNL     1     104.742 122.202  83.512  0.00  0.00    +0.000 A 
ATOM     17  C   UNL     1     104.350 120.971  82.989  0.00  0.00    +0.000 A 
ATOM     18  C   UNL     1     104.383 120.745  81.615  0.00  0.00    +0.000 A 
ATOM     19  C   UNL     1     104.813 121.760  80.755  0.00  0.00    +0.000 A 
ATOM     20 CL   UNL     1     103.821 119.724  84.049  0.00  0.00    +0.000 Cl
ENDBRANCH  12  14
ENDBRANCH  11  12
ENDBRANCH   5  11
TORSDOF 4
ENDMDL
