MODEL 1
REMARK VINA RESULT:      -4.8      0.000      0.000
REMARK  Name = *****
REMARK  3 active torsions:
REMARK  status: ('A' for Active; 'I' for Inactive)
REMARK    1  A    between atoms: C_1  and  C_2
REMARK    2  A    between atoms: C_5  and  S_8
REMARK    3  A    between atoms: S_8  and  C_10
REMARK                            x       y       z     vdW  Elec       q    Type
REMARK                         _______ _______ _______ _____ _____    ______ ____
ROOT
ATOM      1  S   UNL     1      88.972  70.514  86.670  0.00  0.00    +0.000 S 
ATOM      2  O   UNL     1      90.056  70.819  85.675  0.00  0.00    +0.000 OA
ENDROOT
BRANCH   1   3
ATOM      3  C   UNL     1      87.420  70.966  85.884  0.00  0.00    +0.000 C 
ATOM      4  C   UNL     1      86.332  71.349  86.596  0.00  0.00    +0.000 C 
ATOM      5  C   UNL     1      84.997  71.664  85.922  0.00  0.00    +0.000 C 
ATOM      6  C   UNL     1      84.166  72.711  86.665  0.00  0.00    +0.000 C 
ATOM      7  C   UNL     1      83.952  72.318  88.122  0.00  0.00    +0.000 C 
ATOM      8  C   UNL     1      85.228  71.862  88.753  0.00  0.00    +0.000 C 
ATOM      9  C   UNL     1      86.301  71.455  88.058  0.00  0.00    +0.000 C 
ATOM     10 CL   UNL     1      87.346  70.746  84.164  0.00  0.00    +0.000 Cl
ENDBRANCH   1   3
BRANCH   1  15
ATOM     11  C   UNL     1      88.837  64.413  87.061  0.00  0.00    +0.000 C 
ATOM     12  C   UNL     1      88.868  65.909  86.959  0.00  0.00    +0.000 A 
ATOM     13  C   UNL     1      89.952  66.563  86.362  0.00  0.00    +0.000 A 
ATOM     14  C   UNL     1      89.982  67.958  86.284  0.00  0.00    +0.000 A 
ATOM     15  C   UNL     1      88.938  68.718  86.824  0.00  0.00    +0.000 A 
ATOM     16  C   UNL     1      87.858  68.067  87.429  0.00  0.00    +0.000 A 
ATOM     17  C   UNL     1      87.827  66.673  87.502  0.00  0.00    +0.000 A 
ENDBRANCH   1  15
TORSDOF 2
ENDMDL
