MODEL 1
REMARK VINA RESULT:      -4.7      0.000      0.000
REMARK  Name = *****
REMARK  2 active torsions:
REMARK  status: ('A' for Active; 'I' for Inactive)
REMARK    1  A    between atoms: C_4  and  C_7
REMARK    2  A    between atoms: C_8  and  C_9
REMARK                            x       y       z     vdW  Elec       q    Type
REMARK                         _______ _______ _______ _____ _____    ______ ____
ROOT
ATOM      1  C   UNL     1     103.274 126.090  81.090  0.00  0.00    +0.000 C 
ATOM      2  C   UNL     1     102.513 125.981  82.192  0.00  0.00    +0.000 C 
ATOM      3  F   UNL     1     103.189 127.210  80.332  0.00  0.00    +0.000 F 
ENDROOT
BRANCH   2   4
ATOM      4  C   UNL     1     101.575 127.007  82.675  0.00  0.00    +0.000 A 
ATOM      5  C   UNL     1     100.187 126.888  82.525  0.00  0.00    +0.000 A 
ATOM      6  C   UNL     1      99.328 127.867  83.033  0.00  0.00    +0.000 A 
ATOM      7  C   UNL     1      99.854 128.967  83.705  0.00  0.00    +0.000 A 
ATOM      8  C   UNL     1     101.229 129.094  83.878  0.00  0.00    +0.000 A 
ATOM      9  C   UNL     1     102.086 128.113  83.369  0.00  0.00    +0.000 A 
ATOM     10 CL   UNL     1      98.798 130.173  84.332  0.00  0.00    +0.000 Cl
ENDBRANCH   2   4
BRANCH   1  14
ATOM     11  C   UNL     1     106.045 123.156  79.635  0.00  0.00    +0.000 A 
ATOM     12  C   UNL     1     106.022 124.442  79.102  0.00  0.00    +0.000 A 
ATOM     13  C   UNL     1     105.111 125.384  79.589  0.00  0.00    +0.000 A 
ATOM     14  C   UNL     1     104.204 125.052  80.607  0.00  0.00    +0.000 A 
ATOM     15  C   UNL     1     104.251 123.755  81.143  0.00  0.00    +0.000 A 
ATOM     16  C   UNL     1     105.163 122.814  80.657  0.00  0.00    +0.000 A 
ENDBRANCH   1  14
TORSDOF 2
ENDMDL
