REMARK  Name = *****
REMARK  4 active torsions:
REMARK  status: ('A' for Active; 'I' for Inactive)
REMARK    1  A    between atoms: C_4  and  C_7
REMARK    2  A    between atoms: C_7  and  C_8
REMARK    3  A    between atoms: C_8  and  S_11
REMARK    4  A    between atoms: S_11  and  C_12
REMARK                            x       y       z     vdW  Elec       q    Type
REMARK                         _______ _______ _______ _____ _____    ______ ____
ROOT
ATOM      1  C   UNL     1      -3.527  -1.411  -0.145  0.00  0.00    +0.000 C 
ATOM      2  C   UNL     1      -2.697  -2.442   0.064  0.00  0.00    +0.000 C 
ATOM      3  F   UNL     1      -3.121  -3.718   0.162  0.00  0.00    +0.000 F 
ENDROOT
BRANCH   1   4
ATOM      4  C   UNL     1      -3.087   0.037  -0.267  0.00  0.00    +0.000 C 
BRANCH   4   8
ATOM      5  C   UNL     1       1.133   0.754   0.293  0.00  0.00    +0.000 A 
ATOM      6  C   UNL     1       0.630   0.523  -0.986  0.00  0.00    +0.000 A 
ATOM      7  C   UNL     1      -0.734   0.298  -1.171  0.00  0.00    +0.000 A 
ATOM      8  C   UNL     1      -1.609   0.307  -0.075  0.00  0.00    +0.000 A 
ATOM      9  C   UNL     1      -1.092   0.537   1.209  0.00  0.00    +0.000 A 
ATOM     10  C   UNL     1       0.273   0.761   1.390  0.00  0.00    +0.000 A 
ENDBRANCH   4   8
ENDBRANCH   1   4
BRANCH   1  11
ATOM     11  S   UNL     1      -5.243  -1.726  -0.338  0.00  0.00    +0.000 S 
BRANCH  11  12
ATOM     12  C   UNL     1      -5.807  -1.182   1.265  0.00  0.00    +0.000 A 
ATOM     13  C   UNL     1      -5.499  -1.909   2.420  0.00  0.00    +0.000 A 
ATOM     14  C   UNL     1      -5.949  -1.472   3.668  0.00  0.00    +0.000 A 
ATOM     15  C   UNL     1      -6.715  -0.312   3.766  0.00  0.00    +0.000 A 
ATOM     16  C   UNL     1      -7.036   0.411   2.618  0.00  0.00    +0.000 A 
ATOM     17  C   UNL     1      -6.587  -0.025   1.369  0.00  0.00    +0.000 A 
ENDBRANCH  11  12
ENDBRANCH   1  11
TORSDOF 4
