MODEL 1
REMARK VINA RESULT:      -4.6      0.000      0.000
REMARK  Name = *****
REMARK  3 active torsions:
REMARK  status: ('A' for Active; 'I' for Inactive)
REMARK    1  A    between atoms: C_5  and  C_7
REMARK    2  A    between atoms: C_7  and  O_9
REMARK    3  A    between atoms: O_9  and  C_10
REMARK                            x       y       z     vdW  Elec       q    Type
REMARK                         _______ _______ _______ _____ _____    ______ ____
ROOT
ATOM      1  C   UNL     1     101.894 125.972  82.845  0.00  0.00    +0.000 C 
ATOM      2  O   UNL     1     102.350 125.325  83.778  0.00  0.00    +0.000 OA
ENDROOT
BRANCH   1   7
ATOM      3  C   UNL     1     100.526 129.304  83.945  0.00  0.00    +0.000 A 
ATOM      4  C   UNL     1      99.220 129.265  83.458  0.00  0.00    +0.000 A 
ATOM      5  C   UNL     1      98.774 128.144  82.759  0.00  0.00    +0.000 A 
ATOM      6  C   UNL     1      99.631 127.064  82.550  0.00  0.00    +0.000 A 
ATOM      7  C   UNL     1     100.938 127.086  83.040  0.00  0.00    +0.000 A 
ATOM      8  C   UNL     1     101.384 128.222  83.735  0.00  0.00    +0.000 A 
ATOM      9  F   UNL     1      99.159 126.022  81.853  0.00  0.00    +0.000 F 
ENDBRANCH   1   7
BRANCH   1  10
ATOM     10  O   UNL     1     102.118 125.751  81.501  0.00  0.00    +0.000 OA
BRANCH  10  11
ATOM     11  C   UNL     1     103.364 126.231  81.081  0.00  0.00    +0.000 A 
ATOM     12  C   UNL     1     104.467 125.372  80.982  0.00  0.00    +0.000 A 
ATOM     13  C   UNL     1     105.698 125.908  80.590  0.00  0.00    +0.000 A 
ATOM     14  C   UNL     1     105.816 127.279  80.318  0.00  0.00    +0.000 A 
ATOM     15  C   UNL     1     104.711 128.123  80.442  0.00  0.00    +0.000 A 
ATOM     16  C   UNL     1     103.480 127.601  80.831  0.00  0.00    +0.000 A 
ATOM     17 CL   UNL     1     107.124 124.941  80.429  0.00  0.00    +0.000 Cl
ATOM     18 CL   UNL     1     104.284 123.692  81.358  0.00  0.00    +0.000 Cl
ENDBRANCH  10  11
ENDBRANCH   1  10
TORSDOF 3
ENDMDL
