REMARK  Name = *****
REMARK  3 active torsions:
REMARK  status: ('A' for Active; 'I' for Inactive)
REMARK    1  A    between atoms: C_4  and  C_7
REMARK    2  A    between atoms: C_8  and  O_9
REMARK    3  A    between atoms: O_9  and  C_10
REMARK                            x       y       z     vdW  Elec       q    Type
REMARK                         _______ _______ _______ _____ _____    ______ ____
ROOT
ATOM      1  C   UNL     1      -2.843   0.459  -0.037  0.00  0.00    +0.000 C 
ATOM      2  C   UNL     1      -3.781  -0.494  -0.068  0.00  0.00    +0.000 C 
ENDROOT
BRANCH   1   6
ATOM      3  C   UNL     1       1.385  -0.189  -0.083  0.00  0.00    +0.000 A 
ATOM      4  C   UNL     1       0.553  -1.043  -0.804  0.00  0.00    +0.000 A 
ATOM      5  C   UNL     1      -0.831  -0.847  -0.794  0.00  0.00    +0.000 A 
ATOM      6  C   UNL     1      -1.398   0.199  -0.054  0.00  0.00    +0.000 A 
ATOM      7  C   UNL     1      -0.549   1.061   0.652  0.00  0.00    +0.000 A 
ATOM      8  C   UNL     1       0.835   0.865   0.643  0.00  0.00    +0.000 A 
ENDBRANCH   1   6
BRANCH   2   9
ATOM      9  O   UNL     1      -5.123  -0.185  -0.046  0.00  0.00    +0.000 OA
BRANCH   9  10
ATOM     10  C   UNL     1      -6.001  -1.226   0.127  0.00  0.00    +0.000 A 
ATOM     11  C   UNL     1      -5.938  -2.066   1.242  0.00  0.00    +0.000 A 
ATOM     12  C   UNL     1      -6.879  -3.086   1.394  0.00  0.00    +0.000 A 
ATOM     13  C   UNL     1      -7.884  -3.249   0.439  0.00  0.00    +0.000 A 
ATOM     14  C   UNL     1      -7.960  -2.396  -0.662  0.00  0.00    +0.000 A 
ATOM     15  C   UNL     1      -7.019  -1.376  -0.815  0.00  0.00    +0.000 A 
ATOM     16 CL   UNL     1      -9.045  -4.505   0.628  0.00  0.00    +0.000 Cl
ENDBRANCH   9  10
ENDBRANCH   2   9
TORSDOF 3
