MODEL 1
REMARK VINA RESULT:      -4.6      0.000      0.000
REMARK  Name = *****
REMARK  2 active torsions:
REMARK  status: ('A' for Active; 'I' for Inactive)
REMARK    1  A    between atoms: C_4  and  N_7
REMARK    2  A    between atoms: C_8  and  C_9
REMARK                            x       y       z     vdW  Elec       q    Type
REMARK                         _______ _______ _______ _____ _____    ______ ____
ROOT
ATOM      1  N   UNL     1     102.823 126.095  82.694  0.00  0.00    +0.000 NA
ATOM      2  C   UNL     1     101.558 126.161  82.387  0.00  0.00    +0.000 C 
ENDROOT
BRANCH   2   3
ATOM      3  C   UNL     1     100.684 127.290  82.811  0.00  0.00    +0.000 C 
ATOM      4  C   UNL     1     101.296 128.372  83.478  0.00  0.00    +0.000 C 
ATOM      5  C   UNL     1     100.539 129.457  83.901  0.00  0.00    +0.000 C 
ATOM      6  C   UNL     1      99.175 129.462  83.658  0.00  0.00    +0.000 C 
ATOM      7  C   UNL     1      98.578 128.380  82.993  0.00  0.00    +0.000 C 
ATOM      8  C   UNL     1      99.289 127.248  82.536  0.00  0.00    +0.000 C 
ATOM      9  O   UNL     1      98.683 126.297  81.934  0.00  0.00    +0.000 OA
ENDBRANCH   2   3
BRANCH   1  13
ATOM     10  C   UNL     1     104.952 122.752  81.292  0.00  0.00    +0.000 A 
ATOM     11  C   UNL     1     104.553 123.744  80.397  0.00  0.00    +0.000 A 
ATOM     12  C   UNL     1     103.841 124.854  80.858  0.00  0.00    +0.000 A 
ATOM     13  C   UNL     1     103.512 124.974  82.212  0.00  0.00    +0.000 A 
ATOM     14  C   UNL     1     103.928 123.983  83.103  0.00  0.00    +0.000 A 
ATOM     15  C   UNL     1     104.642 122.872  82.647  0.00  0.00    +0.000 A 
ENDBRANCH   1  13
TORSDOF 2
ENDMDL
