MODEL 1
REMARK VINA RESULT:      -4.6      0.000      0.000
REMARK  Name = *****
REMARK  5 active torsions:
REMARK  status: ('A' for Active; 'I' for Inactive)
REMARK    1  A    between atoms: C_1  and  C_2
REMARK    2  A    between atoms: C_5  and  S_8
REMARK    3  A    between atoms: S_8  and  C_9
REMARK    4  A    between atoms: C_9  and  C_10
REMARK    5  A    between atoms: C_15  and  C_16
REMARK                            x       y       z     vdW  Elec       q    Type
REMARK                         _______ _______ _______ _____ _____    ______ ____
ROOT
ATOM      1  S   UNL     1     103.710 127.997  81.891  0.00  0.00    +0.000 S 
ENDROOT
BRANCH   1   6
ATOM      2  C   UNL     1     104.945 122.198  80.492  0.00  0.00    +0.000 C 
ATOM      3  C   UNL     1     104.666 123.629  80.842  0.00  0.00    +0.000 A 
ATOM      4  C   UNL     1     104.236 123.972  82.129  0.00  0.00    +0.000 A 
ATOM      5  C   UNL     1     103.946 125.302  82.448  0.00  0.00    +0.000 A 
ATOM      6  C   UNL     1     104.080 126.303  81.484  0.00  0.00    +0.000 A 
ATOM      7  C   UNL     1     104.481 125.960  80.191  0.00  0.00    +0.000 A 
ATOM      8  C   UNL     1     104.773 124.632  79.871  0.00  0.00    +0.000 A 
ENDBRANCH   1   6
BRANCH   1   9
ATOM      9  C   UNL     1     102.744 127.745  83.421  0.00  0.00    +0.000 C 
BRANCH   9  10
ATOM     10  C   UNL     1     101.246 127.850  83.221  0.00  0.00    +0.000 A 
ATOM     11  C   UNL     1     100.577 126.790  82.578  0.00  0.00    +0.000 A 
ATOM     12  C   UNL     1      99.200 126.830  82.359  0.00  0.00    +0.000 A 
ATOM     13  C   UNL     1      98.466 127.930  82.786  0.00  0.00    +0.000 A 
ATOM     14  C   UNL     1      99.107 128.985  83.434  0.00  0.00    +0.000 A 
ATOM     15  C   UNL     1     100.494 128.961  83.662  0.00  0.00    +0.000 A 
ATOM     16  C   UNL     1     101.123 130.124  84.380  0.00  0.00    +0.000 C 
ENDBRANCH   9  10
ENDBRANCH   1   9
TORSDOF 3
ENDMDL
