MODEL 1
REMARK VINA RESULT:      -4.2      0.000      0.000
REMARK  Name = *****
REMARK  5 active torsions:
REMARK  status: ('A' for Active; 'I' for Inactive)
REMARK    1  A    between atoms: C_1  and  C_2
REMARK    2  A    between atoms: C_7  and  C_8
REMARK    3  A    between atoms: C_8  and  S_10
REMARK    4  A    between atoms: S_10  and  C_11
REMARK    5  A    between atoms: C_16  and  C_17
REMARK                            x       y       z     vdW  Elec       q    Type
REMARK                         _______ _______ _______ _____ _____    ______ ____
ROOT
ATOM      1  C   UNL     1      88.376  70.809  85.032  0.00  0.00    +0.000 C 
ATOM      2  O   UNL     1      89.375  71.506  84.913  0.00  0.00    +0.000 OA
ENDROOT
BRANCH   1   9
ATOM      3  C   UNL     1      88.950  70.237  87.886  0.00  0.00    +0.000 C 
ATOM      4  C   UNL     1      87.643  70.830  87.438  0.00  0.00    +0.000 A 
ATOM      5  C   UNL     1      86.675  71.154  88.402  0.00  0.00    +0.000 A 
ATOM      6  C   UNL     1      85.453  71.717  88.031  0.00  0.00    +0.000 A 
ATOM      7  C   UNL     1      85.183  71.977  86.690  0.00  0.00    +0.000 A 
ATOM      8  C   UNL     1      86.135  71.674  85.717  0.00  0.00    +0.000 A 
ATOM      9  C   UNL     1      87.363  71.097  86.081  0.00  0.00    +0.000 A 
ENDBRANCH   1   9
BRANCH   1  10
ATOM     10  S   UNL     1      88.053  69.401  84.020  0.00  0.00    +0.000 S 
BRANCH  10  11
ATOM     11  C   UNL     1      88.473  68.062  85.130  0.00  0.00    +0.000 A 
ATOM     12  C   UNL     1      89.828  67.711  85.243  0.00  0.00    +0.000 A 
ATOM     13  C   UNL     1      90.229  66.693  86.106  0.00  0.00    +0.000 A 
ATOM     14  C   UNL     1      89.282  66.018  86.870  0.00  0.00    +0.000 A 
ATOM     15  C   UNL     1      87.934  66.362  86.772  0.00  0.00    +0.000 A 
ATOM     16  C   UNL     1      87.512  67.388  85.907  0.00  0.00    +0.000 A 
ATOM     17  C   UNL     1      86.046  67.719  85.835  0.00  0.00    +0.000 C 
ENDBRANCH  10  11
ENDBRANCH   1  10
TORSDOF 3
ENDMDL
