REMARK  Name = *****
REMARK  2 active torsions:
REMARK  status: ('A' for Active; 'I' for Inactive)
REMARK    1  A    between atoms: C_1  and  C_2
REMARK    2  A    between atoms: C_9  and  C_11
REMARK                            x       y       z     vdW  Elec       q    Type
REMARK                         _______ _______ _______ _____ _____    ______ ____
ROOT
ATOM      1  C   UNL     1       1.059  -0.152   0.048  0.00  0.00    +0.000 C 
ATOM      2  C   UNL     1       2.559  -0.067   0.075  0.00  0.00    +0.000 A 
ATOM      3  C   UNL     1       3.335  -1.239   0.038  0.00  0.00    +0.000 A 
ATOM      4  C   UNL     1       4.714  -1.060   0.063  0.00  0.00    +0.000 A 
ATOM      5  C   UNL     1       5.351   0.168   0.119  0.00  0.00    +0.000 A 
ATOM      6  C   UNL     1       4.575   1.332   0.154  0.00  0.00    +0.000 A 
ATOM      7  C   UNL     1       3.177   1.197   0.131  0.00  0.00    +0.000 A 
ATOM      8  N   UNL     1       6.711  -0.013   0.129  0.00  0.00    +0.000 NA
ATOM      9  C   UNL     1       6.850  -1.325   0.079  0.00  0.00    +0.000 A 
ATOM     10  O   UNL     1       5.674  -2.029   0.037  0.00  0.00    +0.000 OA
ENDROOT
BRANCH   9  11
ATOM     11  C   UNL     1       8.105  -2.133   0.061  0.00  0.00    +0.000 C 
ATOM     12  C   UNL     1       8.940  -1.867   1.322  0.00  0.00    +0.000 C 
ATOM     13  C   UNL     1      10.255  -2.644   1.299  0.00  0.00    +0.000 C 
ATOM     14  C   UNL     1      11.056  -2.355   0.033  0.00  0.00    +0.000 C 
ATOM     15  C   UNL     1      10.233  -2.615  -1.225  0.00  0.00    +0.000 C 
ATOM     16  C   UNL     1       8.918  -1.839  -1.208  0.00  0.00    +0.000 C 
ENDBRANCH   9  11
TORSDOF 1
