REMARK  Name = *****
REMARK  5 active torsions:
REMARK  status: ('A' for Active; 'I' for Inactive)
REMARK    1  A    between atoms: C_1  and  C_2
REMARK    2  A    between atoms: C_3  and  O_9
REMARK    3  A    between atoms: C_4  and  C_8
REMARK    4  A    between atoms: O_9  and  C_10
REMARK    5  A    between atoms: C_10  and  C_12
REMARK                            x       y       z     vdW  Elec       q    Type
REMARK                         _______ _______ _______ _____ _____    ______ ____
ROOT
ATOM      1  O   UNL     1       0.992   1.850   1.093  0.00  0.00    +0.000 OA
ENDROOT
BRANCH   1   4
ATOM      2  C   UNL     1       2.849  -0.329   0.840  0.00  0.00    +0.000 C 
ATOM      3  C   UNL     1       1.432  -0.411   0.355  0.00  0.00    +0.000 A 
ATOM      4  C   UNL     1       0.554   0.680   0.458  0.00  0.00    +0.000 A 
ATOM      5  C   UNL     1      -0.779   0.606   0.022  0.00  0.00    +0.000 A 
ATOM      6  C   UNL     1      -1.212  -0.575  -0.591  0.00  0.00    +0.000 A 
ATOM      7  C   UNL     1      -0.344  -1.659  -0.734  0.00  0.00    +0.000 A 
ATOM      8  C   UNL     1       0.968  -1.578  -0.264  0.00  0.00    +0.000 A 
ATOM      9  C   UNL     1      -1.714   1.772   0.157  0.00  0.00    +0.000 C 
ENDBRANCH   1   4
BRANCH   1  10
ATOM     10  C   UNL     1       1.574   2.761   0.233  0.00  0.00    +0.000 C 
ATOM     11  O   UNL     1       1.745   2.644  -0.971  0.00  0.00    +0.000 OA
BRANCH  10  12
ATOM     12  C   UNL     1       2.001   3.966   0.997  0.00  0.00    +0.000 A 
ATOM     13  C   UNL     1       1.730   4.131   2.362  0.00  0.00    +0.000 A 
ATOM     14  C   UNL     1       2.157   5.287   3.015  0.00  0.00    +0.000 A 
ATOM     15  C   UNL     1       2.851   6.281   2.327  0.00  0.00    +0.000 A 
ATOM     16  C   UNL     1       3.122   6.122   0.968  0.00  0.00    +0.000 A 
ATOM     17  C   UNL     1       2.698   4.969   0.305  0.00  0.00    +0.000 A 
ATOM     18 CL   UNL     1       1.822   5.490   4.691  0.00  0.00    +0.000 Cl
ENDBRANCH  10  12
ENDBRANCH   1  10
TORSDOF 3
