REMARK  Name = *****
REMARK  5 active torsions:
REMARK  status: ('A' for Active; 'I' for Inactive)
REMARK    1  A    between atoms: C_1  and  C_2
REMARK    2  A    between atoms: C_4  and  C_17
REMARK    3  A    between atoms: C_5  and  C_8
REMARK    4  A    between atoms: C_8  and  N_10
REMARK    5  A    between atoms: N_10  and  C_11
REMARK                            x       y       z     vdW  Elec       q    Type
REMARK                         _______ _______ _______ _____ _____    ______ ____
ROOT
ATOM      1  C   UNL     1      -2.255  -2.023  -0.859  0.00  0.00    +0.000 C 
ATOM      2  S   UNL     1      -2.920  -1.895  -2.391  0.00  0.00    +0.000 S 
ENDROOT
BRANCH   1   7
ATOM      3  C   UNL     1       2.418   1.089   0.550  0.00  0.00    +0.000 C 
ATOM      4  C   UNL     1       1.198   0.306   0.163  0.00  0.00    +0.000 A 
ATOM      5  C   UNL     1      -0.083   0.817   0.425  0.00  0.00    +0.000 A 
ATOM      6  C   UNL     1      -1.239   0.087   0.101  0.00  0.00    +0.000 A 
ATOM      7  C   UNL     1      -1.083  -1.169  -0.511  0.00  0.00    +0.000 A 
ATOM      8  C   UNL     1       0.192  -1.698  -0.753  0.00  0.00    +0.000 A 
ATOM      9  C   UNL     1       1.326  -0.963  -0.413  0.00  0.00    +0.000 A 
ATOM     10  C   UNL     1      -2.591   0.683   0.372  0.00  0.00    +0.000 C 
ENDBRANCH   1   7
BRANCH   1  11
ATOM     11  N   UNL     1      -2.617  -2.826   0.214  0.00  0.00    +0.000 N 
ATOM     12  H   UNL     1      -2.097  -2.647   1.030  0.00  0.00    +0.000 HD
BRANCH  11  13
ATOM     13  C   UNL     1      -3.580  -3.850   0.375  0.00  0.00    +0.000 A 
ATOM     14  C   UNL     1      -4.373  -4.392  -0.634  0.00  0.00    +0.000 A 
ATOM     15  C   UNL     1      -5.284  -5.420  -0.357  0.00  0.00    +0.000 A 
ATOM     16  C   UNL     1      -5.410  -5.921   0.936  0.00  0.00    +0.000 A 
ATOM     17  C   UNL     1      -4.623  -5.396   1.953  0.00  0.00    +0.000 A 
ATOM     18  C   UNL     1      -3.714  -4.371   1.673  0.00  0.00    +0.000 A 
ENDBRANCH  11  13
ENDBRANCH   1  11
TORSDOF 3
