MODEL 1
REMARK VINA RESULT:      -4.1      0.000      0.000
REMARK  Name = *****
REMARK  4 active torsions:
REMARK  status: ('A' for Active; 'I' for Inactive)
REMARK    1  A    between atoms: C_3  and  C_8
REMARK    2  A    between atoms: C_8  and  O_9
REMARK    3  A    between atoms: O_9  and  C_10
REMARK    4  A    between atoms: C_10  and  C_11
REMARK                            x       y       z     vdW  Elec       q    Type
REMARK                         _______ _______ _______ _____ _____    ______ ____
ROOT
ATOM      1  O   UNL     1      89.944  68.179  86.632  0.00  0.00    +0.000 OA
ENDROOT
BRANCH   1   2
ATOM      2  C   UNL     1      89.005  67.277  86.056  0.00  0.00    +0.000 C 
BRANCH   2   5
ATOM      3  C   UNL     1      86.574  66.334  88.842  0.00  0.00    +0.000 A 
ATOM      4  C   UNL     1      87.199  67.035  87.807  0.00  0.00    +0.000 A 
ATOM      5  C   UNL     1      88.329  66.507  87.160  0.00  0.00    +0.000 A 
ATOM      6  C   UNL     1      88.824  65.264  87.574  0.00  0.00    +0.000 A 
ATOM      7  C   UNL     1      88.193  64.574  88.606  0.00  0.00    +0.000 A 
ATOM      8  C   UNL     1      87.075  65.097  89.243  0.00  0.00    +0.000 A 
ATOM      9  F   UNL     1      88.674  63.384  88.991  0.00  0.00    +0.000 F 
ENDBRANCH   2   5
ENDBRANCH   1   2
BRANCH   1  10
ATOM     10  C   UNL     1      89.748  69.511  86.166  0.00  0.00    +0.000 C 
BRANCH  10  11
ATOM     11  C   UNL     1      88.687  70.201  86.987  0.00  0.00    +0.000 A 
ATOM     12  C   UNL     1      87.547  70.725  86.361  0.00  0.00    +0.000 A 
ATOM     13  C   UNL     1      86.547  71.325  87.122  0.00  0.00    +0.000 A 
ATOM     14  C   UNL     1      86.649  71.409  88.505  0.00  0.00    +0.000 A 
ATOM     15  C   UNL     1      87.769  70.880  89.141  0.00  0.00    +0.000 A 
ATOM     16  C   UNL     1      88.779  70.274  88.387  0.00  0.00    +0.000 A 
ATOM     17  F   UNL     1      85.466  71.826  86.509  0.00  0.00    +0.000 F 
ENDBRANCH  10  11
ENDBRANCH   1  10
TORSDOF 4
ENDMDL
