MODEL 1
REMARK VINA RESULT:      -4.2      0.000      0.000
REMARK  Name = *****
REMARK  6 active torsions:
REMARK  status: ('A' for Active; 'I' for Inactive)
REMARK    1  A    between atoms: C_1  and  C_2
REMARK    2  A    between atoms: C_2  and  O_3
REMARK    3  A    between atoms: O_3  and  C_4
REMARK    4  A    between atoms: C_4  and  C_13
REMARK    5  A    between atoms: N_5  and  C_6
REMARK    6  A    between atoms: C_9  and  C_12
REMARK                            x       y       z     vdW  Elec       q    Type
REMARK                         _______ _______ _______ _____ _____    ______ ____
ROOT
ATOM      1  C   UNL     1      89.787  68.673  86.086  0.00  0.00    +0.000 C 
ATOM      2  N   UNL     1      89.927  69.070  84.862  0.00  0.00    +0.000 NA
ENDROOT
BRANCH   2   3
ATOM      3  C   UNL     1      89.234  70.193  84.395  0.00  0.00    +0.000 A 
ATOM      4  C   UNL     1      89.804  71.469  84.421  0.00  0.00    +0.000 A 
ATOM      5  C   UNL     1      89.103  72.572  83.928  0.00  0.00    +0.000 A 
ATOM      6  C   UNL     1      87.820  72.412  83.390  0.00  0.00    +0.000 A 
ATOM      7  C   UNL     1      87.266  71.129  83.324  0.00  0.00    +0.000 A 
ATOM      8  C   UNL     1      87.971  70.029  83.821  0.00  0.00    +0.000 A 
ATOM      9  C   UNL     1      87.083  73.590  82.825  0.00  0.00    +0.000 C 
ENDBRANCH   2   3
BRANCH   1  10
ATOM     10  C   UNL     1      88.914  69.187  87.160  0.00  0.00    +0.000 A 
ATOM     11  C   UNL     1      87.691  68.554  87.417  0.00  0.00    +0.000 A 
ATOM     12  C   UNL     1      86.861  69.033  88.431  0.00  0.00    +0.000 A 
ATOM     13  C   UNL     1      87.249  70.142  89.184  0.00  0.00    +0.000 A 
ATOM     14  C   UNL     1      88.465  70.778  88.923  0.00  0.00    +0.000 A 
ATOM     15  C   UNL     1      89.298  70.304  87.909  0.00  0.00    +0.000 A 
ENDBRANCH   1  10
BRANCH   1  16
ATOM     16  O   UNL     1      90.473  67.613  86.594  0.00  0.00    +0.000 OA
BRANCH  16  18
ATOM     17  C   UNL     1      89.463  65.462  86.344  0.00  0.00    +0.000 C 
ATOM     18  C   UNL     1      90.493  66.426  85.788  0.00  0.00    +0.000 C 
ENDBRANCH  16  18
ENDBRANCH   1  16
TORSDOF 4
ENDMDL
