REMARK  Name = *****
REMARK  7 active torsions:
REMARK  status: ('A' for Active; 'I' for Inactive)
REMARK    1  A    between atoms: C_1  and  C_2
REMARK    2  A    between atoms: C_5  and  S_8
REMARK    3  A    between atoms: S_8  and  C_9
REMARK    4  A    between atoms: C_9  and  C_10
REMARK    5  A    between atoms: C_10  and  C_18
REMARK    6  A    between atoms: C_14  and  O_16
REMARK    7  A    between atoms: O_16  and  C_17
REMARK                            x       y       z     vdW  Elec       q    Type
REMARK                         _______ _______ _______ _____ _____    ______ ____
ROOT
ATOM      1  C   UNL     1      -6.372   1.961   1.247  0.00  0.00    +0.000 C 
ENDROOT
BRANCH   1   2
ATOM      2  C   UNL     1      -5.412   2.020   0.019  0.00  0.00    +0.000 C 
ATOM      3  C   UNL     1      -5.534   3.341  -0.787  0.00  0.00    +0.000 C 
ATOM      4  C   UNL     1      -6.506   3.310  -1.931  0.00  0.00    +0.000 C 
ATOM      5  C   UNL     1      -7.082   2.189  -2.389  0.00  0.00    +0.000 C 
ATOM      6  C   UNL     1      -6.827   0.826  -1.815  0.00  0.00    +0.000 C 
ATOM      7  C   UNL     1      -5.576   0.803  -0.926  0.00  0.00    +0.000 C 
ATOM      8  C   UNL     1      -3.978   1.955   0.608  0.00  0.00    +0.000 C 
BRANCH   6   9
ATOM      9  O   UNL     1      -6.592  -0.094  -2.889  0.00  0.00    +0.000 OA
ATOM     10  C   UNL     1      -7.778  -0.734  -3.342  0.00  0.00    +0.000 C 
ENDBRANCH   6   9
ENDBRANCH   1   2
BRANCH   1  11
ATOM     11  S   UNL     1      -8.150   2.295   0.987  0.00  0.00    +0.000 S 
BRANCH  11  16
ATOM     12  C   UNL     1     -10.175   1.476   6.674  0.00  0.00    +0.000 C 
ATOM     13  C   UNL     1      -9.649   1.667   5.283  0.00  0.00    +0.000 A 
ATOM     14  C   UNL     1      -8.975   2.843   4.935  0.00  0.00    +0.000 A 
ATOM     15  C   UNL     1      -8.515   3.036   3.629  0.00  0.00    +0.000 A 
ATOM     16  C   UNL     1      -8.728   2.058   2.656  0.00  0.00    +0.000 A 
ATOM     17  C   UNL     1      -9.422   0.894   2.992  0.00  0.00    +0.000 A 
ATOM     18  C   UNL     1      -9.882   0.700   4.298  0.00  0.00    +0.000 A 
ENDBRANCH  11  16
ENDBRANCH   1  11
TORSDOF 4
