MODEL 1
REMARK VINA RESULT:      -4.6      0.000      0.000
REMARK  Name = *****
REMARK  3 active torsions:
REMARK  status: ('A' for Active; 'I' for Inactive)
REMARK    1  A    between atoms: C_3  and  C_4
REMARK    2  A    between atoms: C_4  and  C_5
REMARK    3  A    between atoms: C_6  and  C_7
REMARK                            x       y       z     vdW  Elec       q    Type
REMARK                         _______ _______ _______ _____ _____    ______ ____
ROOT
ATOM      1  C   UNL     1     100.105 126.692  82.645  0.00  0.00    +0.000 C 
ATOM      2  C   UNL     1     101.404 127.032  82.507  0.00  0.00    +0.000 C 
ENDROOT
BRANCH   2   3
ATOM      3  C   UNL     1     102.509 126.116  82.382  0.00  0.00    +0.000 A 
ATOM      4  N   UNL     1     102.712 125.110  83.251  0.00  0.00    +0.000 NA
ATOM      5  S   UNL     1     104.059 124.261  82.815  0.00  0.00    +0.000 S 
ATOM      6  C   UNL     1     104.421 125.195  81.457  0.00  0.00    +0.000 A 
ATOM      7  C   UNL     1     103.492 126.198  81.316  0.00  0.00    +0.000 A 
ATOM      8 CL   UNL     1     103.503 127.365  80.058  0.00  0.00    +0.000 Cl
ATOM      9 CL   UNL     1     105.786 124.826  80.490  0.00  0.00    +0.000 Cl
ENDBRANCH   2   3
BRANCH   1  10
ATOM     10  C   UNL     1      98.938 127.596  82.778  0.00  0.00    +0.000 C 
ATOM     11  O   UNL     1      97.974 127.216  82.050  0.00  0.00    +0.000 OA
BRANCH  10  14
ATOM     12  C   UNL     1      98.933 129.858  85.536  0.00  0.00    +0.000 C 
ATOM     13  C   UNL     1      98.761 128.619  85.042  0.00  0.00    +0.000 C 
ATOM     14  C   UNL     1      99.018 128.672  83.602  0.00  0.00    +0.000 C 
ATOM     15  C   UNL     1      99.359 130.058  83.303  0.00  0.00    +0.000 C 
ATOM     16  C   UNL     1      99.305 130.749  84.454  0.00  0.00    +0.000 C 
ENDBRANCH  10  14
ENDBRANCH   1  10
TORSDOF 3
ENDMDL
