MODEL 1
REMARK VINA RESULT:      -5.3      0.000      0.000
REMARK  Name = *****
REMARK  2 active torsions:
REMARK  status: ('A' for Active; 'I' for Inactive)
REMARK    1  A    between atoms: C_1  and  C_2
REMARK    2  A    between atoms: C_9  and  C_11
REMARK                            x       y       z     vdW  Elec       q    Type
REMARK                         _______ _______ _______ _____ _____    ______ ____
ROOT
ATOM      1  C   UNL     1      99.316 130.488  84.620  0.00  0.00    +0.000 C 
ATOM      2  C   UNL     1      99.790 129.263  83.890  0.00  0.00    +0.000 A 
ATOM      3  C   UNL     1     101.169 129.000  83.764  0.00  0.00    +0.000 A 
ATOM      4  C   UNL     1     101.569 127.845  83.079  0.00  0.00    +0.000 A 
ATOM      5  C   UNL     1     100.601 127.007  82.553  0.00  0.00    +0.000 A 
ATOM      6  C   UNL     1      99.232 127.220  82.649  0.00  0.00    +0.000 A 
ATOM      7  C   UNL     1      98.847 128.378  83.337  0.00  0.00    +0.000 A 
ATOM      8  O   UNL     1     101.237 125.965  81.944  0.00  0.00    +0.000 OA
ATOM      9  C   UNL     1     102.569 126.231  82.136  0.00  0.00    +0.000 A 
ATOM     10  N   UNL     1     102.817 127.343  82.808  0.00  0.00    +0.000 NA
ENDROOT
BRANCH   9  11
ATOM     11  C   UNL     1     103.517 125.267  81.583  0.00  0.00    +0.000 A 
ATOM     12  C   UNL     1     104.093 125.438  80.315  0.00  0.00    +0.000 A 
ATOM     13  C   UNL     1     104.991 124.493  79.822  0.00  0.00    +0.000 A 
ATOM     14  C   UNL     1     105.327 123.376  80.575  0.00  0.00    +0.000 A 
ATOM     15  C   UNL     1     104.769 123.186  81.833  0.00  0.00    +0.000 A 
ATOM     16  C   UNL     1     103.867 124.130  82.334  0.00  0.00    +0.000 A 
ATOM     17  F   UNL     1     106.191 122.471  80.094  0.00  0.00    +0.000 F 
ATOM     18  F   UNL     1     105.530 124.674  78.609  0.00  0.00    +0.000 F 
ENDBRANCH   9  11
TORSDOF 1
ENDMDL
