MODEL 1
REMARK VINA RESULT:      -4.3      0.000      0.000
REMARK  Name = *****
REMARK  3 active torsions:
REMARK  status: ('A' for Active; 'I' for Inactive)
REMARK    1  A    between atoms: C_4  and  S_7
REMARK    2  A    between atoms: S_7  and  C_8
REMARK    3  A    between atoms: C_9  and  C_10
REMARK                            x       y       z     vdW  Elec       q    Type
REMARK                         _______ _______ _______ _____ _____    ______ ____
ROOT
ATOM      1  C   UNL     1      89.010  65.813  85.949  0.00  0.00    +0.000 C 
ATOM      2  C   UNL     1      89.523  66.848  86.629  0.00  0.00    +0.000 C 
ENDROOT
BRANCH   2   3
ATOM      3  C   UNL     1      89.692  68.193  86.062  0.00  0.00    +0.000 A 
ATOM      4  C   UNL     1      89.900  68.406  84.693  0.00  0.00    +0.000 A 
ATOM      5  C   UNL     1      90.026  69.702  84.187  0.00  0.00    +0.000 A 
ATOM      6  C   UNL     1      89.933  70.798  85.042  0.00  0.00    +0.000 A 
ATOM      7  C   UNL     1      89.709  70.600  86.403  0.00  0.00    +0.000 A 
ATOM      8  C   UNL     1      89.583  69.304  86.909  0.00  0.00    +0.000 A 
ENDBRANCH   2   3
BRANCH   1   9
ATOM      9  S   UNL     1      88.849  64.255  86.690  0.00  0.00    +0.000 S 
BRANCH   9  13
ATOM     10  C   UNL     1      87.029  64.208  90.954  0.00  0.00    +0.000 C 
ATOM     11  C   UNL     1      88.531  63.971  90.829  0.00  0.00    +0.000 C 
ATOM     12  C   UNL     1      88.933  63.636  89.392  0.00  0.00    +0.000 C 
ATOM     13  C   UNL     1      88.457  64.721  88.416  0.00  0.00    +0.000 C 
ATOM     14  C   UNL     1      86.944  64.940  88.538  0.00  0.00    +0.000 C 
ATOM     15  C   UNL     1      86.546  65.273  89.976  0.00  0.00    +0.000 C 
ENDBRANCH   9  13
ENDBRANCH   1   9
TORSDOF 3
ENDMDL
