MODEL 1
REMARK VINA RESULT:      -4.4      0.000      0.000
REMARK  Name = *****
REMARK  4 active torsions:
REMARK  status: ('A' for Active; 'I' for Inactive)
REMARK    1  A    between atoms: C_1  and  C_2
REMARK    2  A    between atoms: C_1  and  N_9
REMARK    3  A    between atoms: N_9  and  C_10
REMARK    4  A    between atoms: N_9  and  C_11
REMARK                            x       y       z     vdW  Elec       q    Type
REMARK                         _______ _______ _______ _____ _____    ______ ____
ROOT
ATOM      1  C   UNL     1      88.745  70.208  86.948  0.00  0.00    +0.000 C 
ENDROOT
BRANCH   1   2
ATOM      2  C   UNL     1      88.855  68.696  86.930  0.00  0.00    +0.000 A 
ATOM      3  C   UNL     1      87.830  67.902  87.467  0.00  0.00    +0.000 A 
ATOM      4  C   UNL     1      87.915  66.508  87.421  0.00  0.00    +0.000 A 
ATOM      5  C   UNL     1      89.020  65.899  86.832  0.00  0.00    +0.000 A 
ATOM      6  C   UNL     1      90.042  66.671  86.285  0.00  0.00    +0.000 A 
ATOM      7  C   UNL     1      89.956  68.064  86.329  0.00  0.00    +0.000 A 
ATOM      8 CL   UNL     1      89.123  64.182  86.778  0.00  0.00    +0.000 Cl
ENDBRANCH   1   2
BRANCH   1   9
ATOM      9  N   UNL     1      87.810  70.693  85.915  0.00  0.00    +0.000 N 
ATOM     10  C   UNL     1      88.447  71.326  84.757  0.00  0.00    +0.000 C 
BRANCH   9  11
ATOM     11  C   UNL     1      86.639  71.283  86.420  0.00  0.00    +0.000 A 
ATOM     12  C   UNL     1      86.421  71.316  87.810  0.00  0.00    +0.000 A 
ATOM     13  C   UNL     1      85.266  71.879  88.363  0.00  0.00    +0.000 A 
ATOM     14  C   UNL     1      84.291  72.418  87.534  0.00  0.00    +0.000 A 
ATOM     15  C   UNL     1      84.470  72.386  86.155  0.00  0.00    +0.000 A 
ATOM     16  C   UNL     1      85.628  71.819  85.608  0.00  0.00    +0.000 A 
ENDBRANCH   9  11
ENDBRANCH   1   9
TORSDOF 3
ENDMDL
