MODEL 1
REMARK VINA RESULT:      -4.7      0.000      0.000
REMARK  Name = *****
REMARK  3 active torsions:
REMARK  status: ('A' for Active; 'I' for Inactive)
REMARK    1  A    between atoms: C_4  and  N_7
REMARK    2  A    between atoms: N_7  and  N_8
REMARK    3  A    between atoms: N_8  and  C_10
REMARK                            x       y       z     vdW  Elec       q    Type
REMARK                         _______ _______ _______ _____ _____    ______ ____
ROOT
ATOM      1  N   UNL     1      88.822  70.107  86.648  0.00  0.00    +0.000 N 
ATOM      2  O   UNL     1      89.698  70.739  87.200  0.00  0.00    +0.000 OA
ENDROOT
BRANCH   1   3
ATOM      3  C   UNL     1      88.884  68.659  86.727  0.00  0.00    +0.000 A 
ATOM      4  C   UNL     1      89.943  67.967  86.132  0.00  0.00    +0.000 A 
ATOM      5  C   UNL     1      89.990  66.570  86.217  0.00  0.00    +0.000 A 
ATOM      6  C   UNL     1      88.978  65.873  86.892  0.00  0.00    +0.000 A 
ATOM      7  C   UNL     1      87.917  66.573  87.474  0.00  0.00    +0.000 A 
ATOM      8  C   UNL     1      87.866  67.966  87.391  0.00  0.00    +0.000 A 
ATOM      9 CL   UNL     1      88.980  64.151  87.036  0.00  0.00    +0.000 Cl
ATOM     10 CL   UNL     1      91.326  65.769  85.469  0.00  0.00    +0.000 Cl
ENDBRANCH   1   3
BRANCH   1  11
ATOM     11  N   UNL     1      87.786  70.727  85.905  0.00  0.00    +0.000 N 
ATOM     12  H   UNL     1      87.937  70.760  84.934  0.00  0.00    +0.000 HD
BRANCH  11  16
ATOM     13  C   UNL     1      84.202  72.474  87.313  0.00  0.00    +0.000 A 
ATOM     14  C   UNL     1      84.450  72.427  85.944  0.00  0.00    +0.000 A 
ATOM     15  C   UNL     1      85.630  71.849  85.460  0.00  0.00    +0.000 A 
ATOM     16  C   UNL     1      86.576  71.303  86.331  0.00  0.00    +0.000 A 
ATOM     17  C   UNL     1      86.312  71.369  87.709  0.00  0.00    +0.000 A 
ATOM     18  C   UNL     1      85.135  71.945  88.197  0.00  0.00    +0.000 A 
ENDBRANCH  11  16
ENDBRANCH   1  11
TORSDOF 3
ENDMDL
