MODEL 1
REMARK VINA RESULT:      -5.1      0.000      0.000
REMARK  Name = *****
REMARK  2 active torsions:
REMARK  status: ('A' for Active; 'I' for Inactive)
REMARK    1  A    between atoms: C_4  and  C_7
REMARK    2  A    between atoms: C_8  and  C_9
REMARK                            x       y       z     vdW  Elec       q    Type
REMARK                         _______ _______ _______ _____ _____    ______ ____
ROOT
ATOM      1  C   UNL     1     103.038 126.320  81.297  0.00  0.00    +0.000 C 
ATOM      2  C   UNL     1     102.027 126.091  82.150  0.00  0.00    +0.000 C 
ENDROOT
BRANCH   2   3
ATOM      3  C   UNL     1     101.094 127.121  82.636  0.00  0.00    +0.000 A 
ATOM      4  C   UNL     1      99.717 126.949  82.442  0.00  0.00    +0.000 A 
ATOM      5  C   UNL     1      98.808 127.891  82.913  0.00  0.00    +0.000 A 
ATOM      6  C   UNL     1      99.246 129.018  83.599  0.00  0.00    +0.000 A 
ATOM      7  C   UNL     1     100.611 129.199  83.818  0.00  0.00    +0.000 A 
ATOM      8  C   UNL     1     101.528 128.253  83.346  0.00  0.00    +0.000 A 
ATOM      9  F   UNL     1      97.495 127.718  82.713  0.00  0.00    +0.000 F 
ATOM     10  F   UNL     1      99.258 125.868  81.790  0.00  0.00    +0.000 F 
ENDBRANCH   2   3
BRANCH   1  14
ATOM     11  C   UNL     1     105.730 123.255  80.005  0.00  0.00    +0.000 A 
ATOM     12  C   UNL     1     105.690 124.467  79.317  0.00  0.00    +0.000 A 
ATOM     13  C   UNL     1     104.811 125.474  79.724  0.00  0.00    +0.000 A 
ATOM     14  C   UNL     1     103.956 125.276  80.816  0.00  0.00    +0.000 A 
ATOM     15  C   UNL     1     104.018 124.060  81.510  0.00  0.00    +0.000 A 
ATOM     16  C   UNL     1     104.897 123.053  81.103  0.00  0.00    +0.000 A 
ENDBRANCH   1  14
TORSDOF 2
ENDMDL
