MODEL 1
REMARK VINA RESULT:      -3.8      0.000      0.000
REMARK  Name = *****
REMARK  3 active torsions:
REMARK  status: ('A' for Active; 'I' for Inactive)
REMARK    1  A    between atoms: C_4  and  C_7
REMARK    2  A    between atoms: C_7  and  S_9
REMARK    3  A    between atoms: S_9  and  C_10
REMARK                            x       y       z     vdW  Elec       q    Type
REMARK                         _______ _______ _______ _____ _____    ______ ____
ROOT
ATOM      1  C   UNL     1      88.011  70.610  86.195  0.00  0.00    +0.000 C 
ATOM      2  S   UNL     1      89.229  70.276  87.308  0.00  0.00    +0.000 S 
ENDROOT
BRANCH   1   6
ATOM      3  C   UNL     1      84.298  72.440  87.302  0.00  0.00    +0.000 A 
ATOM      4  C   UNL     1      84.633  72.304  85.956  0.00  0.00    +0.000 A 
ATOM      5  C   UNL     1      85.843  71.709  85.593  0.00  0.00    +0.000 A 
ATOM      6  C   UNL     1      86.722  71.246  86.582  0.00  0.00    +0.000 A 
ATOM      7  C   UNL     1      86.382  71.389  87.934  0.00  0.00    +0.000 A 
ATOM      8  C   UNL     1      85.171  71.985  88.291  0.00  0.00    +0.000 A 
ENDBRANCH   1   6
BRANCH   1   9
ATOM      9  S   UNL     1      88.184  70.140  84.497  0.00  0.00    +0.000 S 
BRANCH   9  10
ATOM     10  C   UNL     1      89.259  71.422  83.954  0.00  0.00    +0.000 A 
ATOM     11  C   UNL     1      88.902  72.746  83.805  0.00  0.00    +0.000 A 
ATOM     12  C   UNL     1      89.981  73.548  83.331  0.00  0.00    +0.000 A 
ATOM     13  C   UNL     1      91.122  72.805  83.121  0.00  0.00    +0.000 A 
ATOM     14  S   UNL     1      90.884  71.151  83.485  0.00  0.00    +0.000 S 
ENDBRANCH   9  10
ENDBRANCH   1   9
TORSDOF 3
ENDMDL
