MODEL 1
REMARK VINA RESULT:      -4.9      0.000      0.000
REMARK  Name = *****
REMARK  3 active torsions:
REMARK  status: ('A' for Active; 'I' for Inactive)
REMARK    1  A    between atoms: C_4  and  C_7
REMARK    2  A    between atoms: C_7  and  C_9
REMARK    3  A    between atoms: C_9  and  C_10
REMARK                            x       y       z     vdW  Elec       q    Type
REMARK                         _______ _______ _______ _____ _____    ______ ____
ROOT
ATOM      1  C   UNL     1     103.316 126.078  82.724  0.00  0.00    +0.000 A 
ATOM      2  C   UNL     1     103.667 124.800  82.283  0.00  0.00    +0.000 A 
ATOM      3  C   UNL     1     103.954 124.558  80.939  0.00  0.00    +0.000 A 
ATOM      4  C   UNL     1     103.902 125.586  80.007  0.00  0.00    +0.000 A 
ATOM      5  C   UNL     1     103.556 126.860  80.437  0.00  0.00    +0.000 A 
ATOM      6  C   UNL     1     103.268 127.107  81.780  0.00  0.00    +0.000 A 
ATOM      7  F   UNL     1     102.927 128.346  82.163  0.00  0.00    +0.000 F 
ATOM      8  F   UNL     1     103.493 127.857  79.544  0.00  0.00    +0.000 F 
ATOM      9  F   UNL     1     104.280 123.323  80.537  0.00  0.00    +0.000 F 
ATOM     10  F   UNL     1     103.719 123.790  83.162  0.00  0.00    +0.000 F 
ENDROOT
BRANCH   1  11
ATOM     11  C   UNL     1     103.049 126.337  84.182  0.00  0.00    +0.000 C 
BRANCH  11  12
ATOM     12  C   UNL     1     101.577 126.174  84.524  0.00  0.00    +0.000 C 
ATOM     13  O   UNL     1     101.178 125.256  85.241  0.00  0.00    +0.000 OA
BRANCH  12  17
ATOM     14  C   UNL     1      98.723 129.007  83.039  0.00  0.00    +0.000 A 
ATOM     15  C   UNL     1      99.659 129.414  83.989  0.00  0.00    +0.000 A 
ATOM     16  C   UNL     1     100.598 128.508  84.487  0.00  0.00    +0.000 A 
ATOM     17  C   UNL     1     100.596 127.183  84.037  0.00  0.00    +0.000 A 
ATOM     18  C   UNL     1      99.666 126.783  83.069  0.00  0.00    +0.000 A 
ATOM     19  C   UNL     1      98.728 127.692  82.576  0.00  0.00    +0.000 A 
ENDBRANCH  12  17
ENDBRANCH  11  12
ENDBRANCH   1  11
TORSDOF 3
ENDMDL
