MODEL 1
REMARK VINA RESULT:      -4.4      0.000      0.000
REMARK  Name = *****
REMARK  4 active torsions:
REMARK  status: ('A' for Active; 'I' for Inactive)
REMARK    1  A    between atoms: C_6  and  C_7
REMARK    2  A    between atoms: C_7  and  C_8
REMARK    3  A    between atoms: C_8  and  O_10
REMARK    4  A    between atoms: O_10  and  C_11
REMARK                            x       y       z     vdW  Elec       q    Type
REMARK                         _______ _______ _______ _____ _____    ______ ____
ROOT
ATOM      1  C   UNL     1     102.756 125.317  83.271  0.00  0.00    +0.000 C 
ATOM      2  O   UNL     1     102.629 124.934  84.425  0.00  0.00    +0.000 OA
ENDROOT
BRANCH   1   3
ATOM      3  C   UNL     1     104.043 125.253  82.486  0.00  0.00    +0.000 C 
BRANCH   3   9
ATOM      4  C   UNL     1     104.654 122.459  81.014  0.00  0.00    +0.000 C 
ATOM      5  C   UNL     1     104.711 123.729  80.590  0.00  0.00    +0.000 C 
ATOM      6  C   UNL     1     105.707 124.235  79.582  0.00  0.00    +0.000 C 
ATOM      7  C   UNL     1     105.563 125.748  79.678  0.00  0.00    +0.000 C 
ATOM      8  C   UNL     1     104.096 125.954  80.030  0.00  0.00    +0.000 C 
ATOM      9  C   UNL     1     103.777 124.837  81.036  0.00  0.00    +0.000 C 
ENDBRANCH   3   9
ENDBRANCH   1   3
BRANCH   1  10
ATOM     10  O   UNL     1     101.770 125.865  82.510  0.00  0.00    +0.000 OA
BRANCH  10  11
ATOM     11  C   UNL     1     100.850 126.737  83.194  0.00  0.00    +0.000 C 
ATOM     12  C   UNL     1      99.536 126.824  82.412  0.00  0.00    +0.000 C 
ATOM     13  C   UNL     1      98.592 127.861  83.013  0.00  0.00    +0.000 C 
ATOM     14  C   UNL     1      99.257 129.228  83.127  0.00  0.00    +0.000 C 
ATOM     15  C   UNL     1     100.575 129.152  83.896  0.00  0.00    +0.000 C 
ATOM     16  C   UNL     1     101.514 128.113  83.294  0.00  0.00    +0.000 C 
ENDBRANCH  10  11
ENDBRANCH   1  10
TORSDOF 4
ENDMDL
