MODEL 1
REMARK VINA RESULT:      -5.0      0.000      0.000
REMARK  Name = *****
REMARK  3 active torsions:
REMARK  status: ('A' for Active; 'I' for Inactive)
REMARK    1  A    between atoms: C_4  and  C_7
REMARK    2  A    between atoms: C_8  and  C_9
REMARK    3  A    between atoms: C_11  and  C_15
REMARK                            x       y       z     vdW  Elec       q    Type
REMARK                         _______ _______ _______ _____ _____    ______ ____
ROOT
ATOM      1  C   UNL     1     103.934 125.183  80.836  0.00  0.00    +0.000 A 
ATOM      2  C   UNL     1     104.068 123.953  81.499  0.00  0.00    +0.000 A 
ATOM      3  C   UNL     1     105.021 123.013  81.079  0.00  0.00    +0.000 A 
ATOM      4  C   UNL     1     105.835 123.309  79.976  0.00  0.00    +0.000 A 
ATOM      5  C   UNL     1     105.695 124.522  79.301  0.00  0.00    +0.000 A 
ATOM      6  C   UNL     1     104.745 125.450  79.726  0.00  0.00    +0.000 A 
ENDROOT
BRANCH   3   7
ATOM      7  C   UNL     1     105.196 121.694  81.773  0.00  0.00    +0.000 C 
ATOM      8  O   UNL     1     106.005 120.905  81.287  0.00  0.00    +0.000 OA
ATOM      9 CL   UNL     1     104.271 121.333  83.216  0.00  0.00    +0.000 Cl
ENDBRANCH   3   7
BRANCH   1  11
ATOM     10  C   UNL     1     101.987 125.960  82.166  0.00  0.00    +0.000 C 
ATOM     11  C   UNL     1     102.925 126.178  81.230  0.00  0.00    +0.000 C 
BRANCH  10  15
ATOM     12  C   UNL     1      99.146 128.892  83.443  0.00  0.00    +0.000 A 
ATOM     13  C   UNL     1      98.701 127.747  82.786  0.00  0.00    +0.000 A 
ATOM     14  C   UNL     1      99.619 126.785  82.356  0.00  0.00    +0.000 A 
ATOM     15  C   UNL     1     100.992 126.963  82.571  0.00  0.00    +0.000 A 
ATOM     16  C   UNL     1     101.424 128.110  83.250  0.00  0.00    +0.000 A 
ATOM     17  C   UNL     1     100.507 129.073  83.679  0.00  0.00    +0.000 A 
ENDBRANCH  10  15
ENDBRANCH   1  11
TORSDOF 3
ENDMDL
