MODEL 1
REMARK VINA RESULT:      -4.1      0.000      0.000
REMARK  Name = *****
REMARK  5 active torsions:
REMARK  status: ('A' for Active; 'I' for Inactive)
REMARK    1  A    between atoms: C_1  and  O_2
REMARK    2  A    between atoms: O_2  and  C_3
REMARK    3  A    between atoms: C_6  and  S_9
REMARK    4  A    between atoms: S_9  and  S_10
REMARK    5  A    between atoms: S_10  and  C_11
REMARK                            x       y       z     vdW  Elec       q    Type
REMARK                         _______ _______ _______ _____ _____    ______ ____
ROOT
ATOM      1  C   UNL     1      88.828  65.459  86.708  0.00  0.00    +0.000 A 
ATOM      2  C   UNL     1      87.819  66.212  87.308  0.00  0.00    +0.000 A 
ATOM      3  C   UNL     1      87.930  67.606  87.383  0.00  0.00    +0.000 A 
ATOM      4  C   UNL     1      89.052  68.257  86.862  0.00  0.00    +0.000 A 
ATOM      5  C   UNL     1      90.058  67.503  86.254  0.00  0.00    +0.000 A 
ATOM      6  C   UNL     1      89.945  66.113  86.180  0.00  0.00    +0.000 A 
ENDROOT
BRANCH   1   8
ATOM      7  C   UNL     1      87.587  63.445  86.481  0.00  0.00    +0.000 C 
ATOM      8  O   UNL     1      88.846  64.099  86.572  0.00  0.00    +0.000 OA
ENDBRANCH   1   8
BRANCH   4   9
ATOM      9  S   UNL     1      89.209  70.030  86.961  0.00  0.00    +0.000 S 
BRANCH   9  10
ATOM     10  S   UNL     1      88.076  70.457  88.625  0.00  0.00    +0.000 S 
BRANCH  10  11
ATOM     11  C   UNL     1      86.635  71.210  87.894  0.00  0.00    +0.000 A 
ATOM     12  C   UNL     1      85.610  71.719  88.698  0.00  0.00    +0.000 A 
ATOM     13  C   UNL     1      84.486  72.306  88.114  0.00  0.00    +0.000 A 
ATOM     14  C   UNL     1      84.382  72.390  86.726  0.00  0.00    +0.000 A 
ATOM     15  C   UNL     1      85.403  71.889  85.920  0.00  0.00    +0.000 A 
ATOM     16  C   UNL     1      86.528  71.303  86.502  0.00  0.00    +0.000 A 
ENDBRANCH  10  11
ENDBRANCH   9  10
ENDBRANCH   4   9
TORSDOF 4
ENDMDL
