MODEL 1
REMARK VINA RESULT:      -4.4      0.000      0.000
REMARK  Name = *****
REMARK  3 active torsions:
REMARK  status: ('A' for Active; 'I' for Inactive)
REMARK    1  A    between atoms: C_4  and  O_7
REMARK    2  A    between atoms: O_7  and  C_8
REMARK    3  A    between atoms: C_8  and  C_10
REMARK                            x       y       z     vdW  Elec       q    Type
REMARK                         _______ _______ _______ _____ _____    ______ ____
ROOT
ATOM      1  C   UNL     1     102.798 125.261  82.500  0.00  0.00    +0.000 C 
ATOM      2  O   UNL     1     102.881 124.890  83.660  0.00  0.00    +0.000 OA
ENDROOT
BRANCH   1   3
ATOM      3  C   UNL     1     103.811 124.930  81.459  0.00  0.00    +0.000 A 
ATOM      4  C   UNL     1     104.292 123.613  81.399  0.00  0.00    +0.000 A 
ATOM      5  C   UNL     1     105.242 123.252  80.441  0.00  0.00    +0.000 A 
ATOM      6  C   UNL     1     105.708 124.209  79.546  0.00  0.00    +0.000 A 
ATOM      7  C   UNL     1     105.243 125.519  79.591  0.00  0.00    +0.000 A 
ATOM      8  C   UNL     1     104.293 125.884  80.548  0.00  0.00    +0.000 A 
ATOM      9  F   UNL     1     106.618 123.864  78.627  0.00  0.00    +0.000 F 
ENDBRANCH   1   3
BRANCH   1  10
ATOM     10  O   UNL     1     101.798 126.007  81.969  0.00  0.00    +0.000 OA
BRANCH  10  14
ATOM     11  C   UNL     1      99.330 129.137  83.420  0.00  0.00    +0.000 C 
ATOM     12  C   UNL     1      98.701 127.755  83.266  0.00  0.00    +0.000 C 
ATOM     13  C   UNL     1      99.554 126.845  82.389  0.00  0.00    +0.000 C 
ATOM     14  C   UNL     1     100.993 126.745  82.906  0.00  0.00    +0.000 C 
ATOM     15  C   UNL     1     101.615 128.136  83.046  0.00  0.00    +0.000 C 
ATOM     16  C   UNL     1     100.767 129.050  83.925  0.00  0.00    +0.000 C 
ENDBRANCH  10  14
ENDBRANCH   1  10
TORSDOF 3
ENDMDL
