MODEL 1
REMARK VINA RESULT:      -4.6      0.000      0.000
REMARK  Name = *****
REMARK  2 active torsions:
REMARK  status: ('A' for Active; 'I' for Inactive)
REMARK    1  A    between atoms: C_4  and  C_7
REMARK    2  A    between atoms: C_8  and  C_9
REMARK                            x       y       z     vdW  Elec       q    Type
REMARK                         _______ _______ _______ _____ _____    ______ ____
ROOT
ATOM      1  C   UNL     1     102.095 126.310  81.962  0.00  0.00    +0.000 C 
ATOM      2  C   UNL     1     102.965 125.637  81.478  0.00  0.00    +0.000 C 
ENDROOT
BRANCH   1   6
ATOM      3  C   UNL     1      99.042 128.682  83.662  0.00  0.00    +0.000 A 
ATOM      4  C   UNL     1      98.713 127.538  82.934  0.00  0.00    +0.000 A 
ATOM      5  C   UNL     1      99.722 126.753  82.372  0.00  0.00    +0.000 A 
ATOM      6  C   UNL     1     101.061 127.113  82.537  0.00  0.00    +0.000 A 
ATOM      7  C   UNL     1     101.389 128.259  83.266  0.00  0.00    +0.000 A 
ATOM      8  C   UNL     1     100.379 129.043  83.827  0.00  0.00    +0.000 A 
ENDBRANCH   1   6
BRANCH   2   9
ATOM      9  C   UNL     1     104.003 124.838  80.902  0.00  0.00    +0.000 A 
ATOM     10  C   UNL     1     104.271 123.565  81.411  0.00  0.00    +0.000 A 
ATOM     11  C   UNL     1     105.285 122.788  80.848  0.00  0.00    +0.000 A 
ATOM     12  C   UNL     1     106.031 123.281  79.778  0.00  0.00    +0.000 A 
ATOM     13  C   UNL     1     105.764 124.552  79.268  0.00  0.00    +0.000 A 
ATOM     14  C   UNL     1     104.750 125.331  79.829  0.00  0.00    +0.000 A 
ENDBRANCH   2   9
TORSDOF 2
ENDMDL
