MODEL 1
REMARK VINA RESULT:      -5.5      0.000      0.000
REMARK  Name = *****
REMARK  2 active torsions:
REMARK  status: ('A' for Active; 'I' for Inactive)
REMARK    1  A    between atoms: C_1  and  C_2
REMARK    2  A    between atoms: C_10  and  C_11
REMARK                            x       y       z     vdW  Elec       q    Type
REMARK                         _______ _______ _______ _____ _____    ______ ____
ROOT
ATOM      1  C   UNL     1     103.515 127.301  80.464  0.00  0.00    +0.000 C 
ATOM      2  C   UNL     1     102.811 126.036  80.951  0.00  0.00    +0.000 C 
ATOM      3  C   UNL     1     103.781 124.896  81.139  0.00  0.00    +0.000 A 
ATOM      4  C   UNL     1     104.608 124.282  80.211  0.00  0.00    +0.000 A 
ATOM      5  C   UNL     1     105.418 123.229  80.643  0.00  0.00    +0.000 A 
ATOM      6  C   UNL     1     105.388 122.805  81.982  0.00  0.00    +0.000 A 
ATOM      7  C   UNL     1     104.545 123.426  82.909  0.00  0.00    +0.000 A 
ATOM      8  C   UNL     1     103.748 124.470  82.471  0.00  0.00    +0.000 A 
ATOM      9  C   UNL     1     102.789 125.270  83.209  0.00  0.00    +0.000 C 
ATOM     10  C   UNL     1     102.245 126.169  82.364  0.00  0.00    +0.000 C 
ENDROOT
BRANCH  10  11
ATOM     11  C   UNL     1     101.183 127.123  82.719  0.00  0.00    +0.000 A 
ATOM     12  C   UNL     1      99.840 126.848  82.423  0.00  0.00    +0.000 A 
ATOM     13  C   UNL     1      98.826 127.745  82.771  0.00  0.00    +0.000 A 
ATOM     14  C   UNL     1      99.141 128.934  83.424  0.00  0.00    +0.000 A 
ATOM     15  C   UNL     1     100.467 129.223  83.730  0.00  0.00    +0.000 A 
ATOM     16  C   UNL     1     101.480 128.323  83.381  0.00  0.00    +0.000 A 
ENDBRANCH  10  11
TORSDOF 1
ENDMDL
