REMARK  Name = *****
REMARK  3 active torsions:
REMARK  status: ('A' for Active; 'I' for Inactive)
REMARK    1  A    between atoms: C_4  and  O_7
REMARK    2  A    between atoms: O_7  and  C_8
REMARK    3  A    between atoms: C_8  and  C_10
REMARK                            x       y       z     vdW  Elec       q    Type
REMARK                         _______ _______ _______ _____ _____    ______ ____
ROOT
ATOM      1  C   UNL     1       3.423  -1.848   0.381  0.00  0.00    +0.000 C 
ATOM      2  O   UNL     1       3.041  -2.427   1.382  0.00  0.00    +0.000 OA
ENDROOT
BRANCH   1   3
ATOM      3  C   UNL     1       4.718  -2.099  -0.305  0.00  0.00    +0.000 A 
ATOM      4  C   UNL     1       5.540  -3.138   0.145  0.00  0.00    +0.000 A 
ATOM      5  C   UNL     1       6.764  -3.403  -0.466  0.00  0.00    +0.000 A 
ATOM      6  C   UNL     1       7.171  -2.622  -1.538  0.00  0.00    +0.000 A 
ATOM      7  C   UNL     1       6.376  -1.583  -2.008  0.00  0.00    +0.000 A 
ATOM      8  C   UNL     1       5.149  -1.318  -1.393  0.00  0.00    +0.000 A 
ATOM      9  F   UNL     1       8.346  -2.872  -2.129  0.00  0.00    +0.000 F 
ATOM     10  F   UNL     1       5.180  -3.917   1.174  0.00  0.00    +0.000 F 
ENDBRANCH   1   3
BRANCH   1  11
ATOM     11  O   UNL     1       2.734  -0.881  -0.279  0.00  0.00    +0.000 OA
BRANCH  11  15
ATOM     12  C   UNL     1      -1.328   0.346  -0.248  0.00  0.00    +0.000 C 
ATOM     13  C   UNL     1      -1.018  -1.083   0.190  0.00  0.00    +0.000 C 
ATOM     14  C   UNL     1       0.384  -1.509  -0.234  0.00  0.00    +0.000 C 
ATOM     15  C   UNL     1       1.449  -0.530   0.270  0.00  0.00    +0.000 C 
ATOM     16  C   UNL     1       1.132   0.897  -0.187  0.00  0.00    +0.000 C 
ATOM     17  C   UNL     1      -0.267   1.329   0.238  0.00  0.00    +0.000 C 
ENDBRANCH  11  15
ENDBRANCH   1  11
TORSDOF 3
