MODEL 1
REMARK VINA RESULT:      -4.9      0.000      0.000
REMARK  Name = *****
REMARK  4 active torsions:
REMARK  status: ('A' for Active; 'I' for Inactive)
REMARK    1  A    between atoms: C_1  and  C_2
REMARK    2  A    between atoms: C_3  and  O_9
REMARK    3  A    between atoms: O_9  and  C_10
REMARK    4  A    between atoms: C_10  and  C_12
REMARK                            x       y       z     vdW  Elec       q    Type
REMARK                         _______ _______ _______ _____ _____    ______ ____
ROOT
ATOM      1  C   UNL     1     102.671 127.606  83.945  0.00  0.00    +0.000 C 
ATOM      2  O   UNL     1     103.001 127.404  85.102  0.00  0.00    +0.000 OA
ENDROOT
BRANCH   1   3
ATOM      3  C   UNL     1     101.276 127.857  83.546  0.00  0.00    +0.000 A 
ATOM      4  C   UNL     1     100.659 129.087  83.776  0.00  0.00    +0.000 A 
ATOM      5  C   UNL     1      99.338 129.302  83.382  0.00  0.00    +0.000 A 
ATOM      6  C   UNL     1      98.628 128.276  82.758  0.00  0.00    +0.000 A 
ATOM      7  C   UNL     1      99.245 127.045  82.546  0.00  0.00    +0.000 A 
ATOM      8  C   UNL     1     100.559 126.820  82.940  0.00  0.00    +0.000 A 
ATOM      9  F   UNL     1      98.560 126.063  81.949  0.00  0.00    +0.000 F 
ATOM     10  F   UNL     1     101.306 130.082  84.399  0.00  0.00    +0.000 F 
ENDBRANCH   1   3
BRANCH   1  11
ATOM     11  O   UNL     1     103.452 127.531  82.806  0.00  0.00    +0.000 OA
BRANCH  11  14
ATOM     12  C   UNL     1     103.548 127.344  79.975  0.00  0.00    +0.000 C 
ATOM     13  C   UNL     1     103.817 126.164  80.865  0.00  0.00    +0.000 A 
ATOM     14  C   UNL     1     103.813 126.280  82.265  0.00  0.00    +0.000 A 
ATOM     15  C   UNL     1     104.058 125.172  83.080  0.00  0.00    +0.000 A 
ATOM     16  C   UNL     1     104.363 123.941  82.500  0.00  0.00    +0.000 A 
ATOM     17  C   UNL     1     104.404 123.821  81.112  0.00  0.00    +0.000 A 
ATOM     18  C   UNL     1     104.136 124.922  80.297  0.00  0.00    +0.000 A 
ATOM     19 CL   UNL     1     104.779 122.301  80.398  0.00  0.00    +0.000 Cl
ENDBRANCH  11  14
ENDBRANCH   1  11
TORSDOF 3
ENDMDL
