MODEL 1
REMARK VINA RESULT:      -5.0      0.000      0.000
REMARK  Name = *****
REMARK  2 active torsions:
REMARK  status: ('A' for Active; 'I' for Inactive)
REMARK    1  A    between atoms: C_1  and  C_2
REMARK    2  A    between atoms: C_4  and  C_8
REMARK                            x       y       z     vdW  Elec       q    Type
REMARK                         _______ _______ _______ _____ _____    ______ ____
ROOT
ATOM      1  C   UNL     1     102.067 126.091  82.501  0.00  0.00    +0.000 A 
ATOM      2  N   UNL     1     102.601 125.187  83.306  0.00  0.00    +0.000 NA
ATOM      3  C   UNL     1     103.528 124.554  82.519  0.00  0.00    +0.000 A 
ATOM      4  C   UNL     1     104.413 123.504  82.798  0.00  0.00    +0.000 A 
ATOM      5  C   UNL     1     105.258 123.061  81.769  0.00  0.00    +0.000 A 
ATOM      6  C   UNL     1     105.222 123.649  80.499  0.00  0.00    +0.000 A 
ATOM      7  C   UNL     1     104.345 124.700  80.205  0.00  0.00    +0.000 A 
ATOM      8  C   UNL     1     103.525 125.108  81.250  0.00  0.00    +0.000 A 
ATOM      9  O   UNL     1     102.588 126.097  81.229  0.00  0.00    +0.000 OA
ENDROOT
BRANCH   1  13
ATOM     10  C   UNL     1     100.538 130.511  84.362  0.00  0.00    +0.000 C 
ATOM     11  C   UNL     1     100.250 129.204  83.683  0.00  0.00    +0.000 A 
ATOM     12  C   UNL     1     101.276 128.284  83.424  0.00  0.00    +0.000 A 
ATOM     13  C   UNL     1     101.012 127.062  82.783  0.00  0.00    +0.000 A 
ATOM     14  C   UNL     1      99.692 126.778  82.403  0.00  0.00    +0.000 A 
ATOM     15  C   UNL     1      98.663 127.688  82.655  0.00  0.00    +0.000 A 
ATOM     16  C   UNL     1      98.942 128.896  83.291  0.00  0.00    +0.000 A 
ENDBRANCH   1  13
TORSDOF 1
ENDMDL
