MODEL 1
REMARK VINA RESULT:      -4.7      0.000      0.000
REMARK  Name = *****
REMARK  4 active torsions:
REMARK  status: ('A' for Active; 'I' for Inactive)
REMARK    1  A    between atoms: C_1  and  O_2
REMARK    2  A    between atoms: O_2  and  C_3
REMARK    3  A    between atoms: C_6  and  C_9
REMARK    4  A    between atoms: C_11  and  C_12
REMARK                            x       y       z     vdW  Elec       q    Type
REMARK                         _______ _______ _______ _____ _____    ______ ____
ROOT
ATOM      1  C   UNL     1     103.198 127.157  81.116  0.00  0.00    +0.000 C 
ATOM      2  C   UNL     1     103.588 128.264  82.061  0.00  0.00    +0.000 C 
ATOM      3  C   UNL     1     102.649 127.185  82.536  0.00  0.00    +0.000 C 
ENDROOT
BRANCH   1   7
ATOM      4  C   UNL     1     106.061 124.104  79.936  0.00  0.00    +0.000 A 
ATOM      5  C   UNL     1     104.800 123.744  80.405  0.00  0.00    +0.000 A 
ATOM      6  C   UNL     1     103.884 124.732  80.789  0.00  0.00    +0.000 A 
ATOM      7  C   UNL     1     104.201 126.098  80.723  0.00  0.00    +0.000 A 
ATOM      8  C   UNL     1     105.473 126.439  80.243  0.00  0.00    +0.000 A 
ATOM      9  C   UNL     1     106.392 125.457  79.858  0.00  0.00    +0.000 A 
BRANCH   4  11
ATOM     10  C   UNL     1     107.423 122.223  80.437  0.00  0.00    +0.000 C 
ATOM     11  O   UNL     1     107.044 123.247  79.527  0.00  0.00    +0.000 OA
ENDBRANCH   4  11
ENDBRANCH   1   7
BRANCH   3  12
ATOM     12  C   UNL     1     101.186 127.488  82.764  0.00  0.00    +0.000 A 
ATOM     13  C   UNL     1     100.184 126.596  82.346  0.00  0.00    +0.000 A 
ATOM     14  C   UNL     1      98.830 126.864  82.569  0.00  0.00    +0.000 A 
ATOM     15  C   UNL     1      98.452 128.032  83.224  0.00  0.00    +0.000 A 
ATOM     16  C   UNL     1      99.425 128.929  83.656  0.00  0.00    +0.000 A 
ATOM     17  C   UNL     1     100.776 128.655  83.429  0.00  0.00    +0.000 A 
ENDBRANCH   3  12
TORSDOF 3
ENDMDL
