REMARK  Name = *****
REMARK  1 active torsions:
REMARK  status: ('A' for Active; 'I' for Inactive)
REMARK    1  A    between atoms: C_4  and  C_7
REMARK                            x       y       z     vdW  Elec       q    Type
REMARK                         _______ _______ _______ _____ _____    ______ ____
ROOT
ATOM      1  C   UNL     1      -2.834   0.476  -0.212  0.00  0.00    +0.000 A 
ATOM      2  C   UNL     1      -3.839  -0.248   0.401  0.00  0.00    +0.000 A 
ATOM      3  C   UNL     1      -5.130   0.263   0.070  0.00  0.00    +0.000 A 
ATOM      4  C   UNL     1      -5.079   1.336  -0.774  0.00  0.00    +0.000 A 
ATOM      5  S   UNL     1      -3.441   1.750  -1.199  0.00  0.00    +0.000 S 
ATOM      6  C   UNL     1      -6.369   1.853  -1.100  0.00  0.00    +0.000 A 
ATOM      7  C   UNL     1      -7.357   1.126  -0.476  0.00  0.00    +0.000 A 
ATOM      8  S   UNL     1      -6.769  -0.160   0.492  0.00  0.00    +0.000 S 
ENDROOT
BRANCH   1  12
ATOM      9  C   UNL     1       1.384  -0.240   0.066  0.00  0.00    +0.000 A 
ATOM     10  C   UNL     1       0.499  -1.303  -0.097  0.00  0.00    +0.000 A 
ATOM     11  C   UNL     1      -0.874  -1.061  -0.191  0.00  0.00    +0.000 A 
ATOM     12  C   UNL     1      -1.381   0.246  -0.127  0.00  0.00    +0.000 A 
ATOM     13  C   UNL     1      -0.476   1.305   0.043  0.00  0.00    +0.000 A 
ATOM     14  C   UNL     1       0.898   1.063   0.136  0.00  0.00    +0.000 A 
ENDBRANCH   1  12
TORSDOF 1
