MODEL 1
REMARK VINA RESULT:      -4.7      0.000      0.000
REMARK  Name = *****
REMARK  5 active torsions:
REMARK  status: ('A' for Active; 'I' for Inactive)
REMARK    1  A    between atoms: C_1  and  O_2
REMARK    2  A    between atoms: O_2  and  C_3
REMARK    3  A    between atoms: C_7  and  C_9
REMARK    4  A    between atoms: C_10  and  C_11
REMARK    5  A    between atoms: C_14  and  N_17
REMARK                            x       y       z     vdW  Elec       q    Type
REMARK                         _______ _______ _______ _____ _____    ______ ____
ROOT
ATOM      1  C   UNL     1     102.038 125.982  82.818  0.00  0.00    +0.000 C 
ATOM      2  C   UNL     1     102.709 125.798  81.668  0.00  0.00    +0.000 C 
ENDROOT
BRANCH   1   7
ATOM      3  C   UNL     1      98.686 127.716  82.897  0.00  0.00    +0.000 A 
ATOM      4  C   UNL     1      99.036 128.994  83.327  0.00  0.00    +0.000 A 
ATOM      5  C   UNL     1     100.374 129.302  83.585  0.00  0.00    +0.000 A 
ATOM      6  C   UNL     1     101.364 128.332  83.421  0.00  0.00    +0.000 A 
ATOM      7  C   UNL     1     101.029 127.036  83.010  0.00  0.00    +0.000 A 
ATOM      8  C   UNL     1      99.685 126.749  82.732  0.00  0.00    +0.000 A 
BRANCH   3  10
ATOM      9  C   UNL     1      96.642 126.790  83.683  0.00  0.00    +0.000 C 
ATOM     10  O   UNL     1      97.421 127.287  82.602  0.00  0.00    +0.000 OA
ENDBRANCH   3  10
ENDBRANCH   1   7
BRANCH   2  11
ATOM     11  C   UNL     1     103.751 124.782  81.443  0.00  0.00    +0.000 A 
ATOM     12  C   UNL     1     104.396 124.609  80.208  0.00  0.00    +0.000 A 
ATOM     13  C   UNL     1     105.402 123.650  80.058  0.00  0.00    +0.000 A 
ATOM     14  C   UNL     1     105.769 122.872  81.152  0.00  0.00    +0.000 A 
ATOM     15  C   UNL     1     105.157 123.032  82.391  0.00  0.00    +0.000 A 
ATOM     16  C   UNL     1     104.152 123.991  82.533  0.00  0.00    +0.000 A 
BRANCH  14  17
ATOM     17  N   UNL     1     106.771 121.923  81.008  0.00  0.00    +0.000 NA
ATOM     18  C   UNL     1     107.619 121.123  80.884  0.00  0.00    +0.000 C 
ENDBRANCH  14  17
ENDBRANCH   2  11
TORSDOF 4
ENDMDL
