MODEL 1
REMARK VINA RESULT:      -4.8      0.000      0.000
REMARK  Name = *****
REMARK  3 active torsions:
REMARK  status: ('A' for Active; 'I' for Inactive)
REMARK    1  A    between atoms: C_1  and  C_2
REMARK    2  A    between atoms: C_5  and  C_8
REMARK    3  A    between atoms: C_9  and  C_10
REMARK                            x       y       z     vdW  Elec       q    Type
REMARK                         _______ _______ _______ _____ _____    ______ ____
ROOT
ATOM      1  C   UNL     1     102.413 125.750  82.719  0.00  0.00    +0.000 C 
ATOM      2  C   UNL     1     103.283 125.655  81.697  0.00  0.00    +0.000 C 
ATOM      3 BR   UNL     1     103.627 127.006  80.450  0.00  0.00    +0.000 Br
ENDROOT
BRANCH   1   8
ATOM      4  C   UNL     1      99.203 130.398  83.914  0.00  0.00    +0.000 C 
ATOM      5  C   UNL     1     100.028 129.184  83.602  0.00  0.00    +0.000 A 
ATOM      6  C   UNL     1      99.465 128.079  82.951  0.00  0.00    +0.000 A 
ATOM      7  C   UNL     1     100.244 126.956  82.663  0.00  0.00    +0.000 A 
ATOM      8  C   UNL     1     101.595 126.925  83.021  0.00  0.00    +0.000 A 
ATOM      9  C   UNL     1     102.161 128.026  83.667  0.00  0.00    +0.000 A 
ATOM     10  C   UNL     1     101.382 129.149  83.957  0.00  0.00    +0.000 A 
ENDBRANCH   1   8
BRANCH   2  11
ATOM     11  C   UNL     1     104.035 124.403  81.528  0.00  0.00    +0.000 A 
ATOM     12  C   UNL     1     104.187 123.518  82.603  0.00  0.00    +0.000 A 
ATOM     13  C   UNL     1     104.913 122.336  82.444  0.00  0.00    +0.000 A 
ATOM     14  C   UNL     1     105.493 122.033  81.213  0.00  0.00    +0.000 A 
ATOM     15  C   UNL     1     105.348 122.910  80.138  0.00  0.00    +0.000 A 
ATOM     16  C   UNL     1     104.622 124.092  80.294  0.00  0.00    +0.000 A 
ENDBRANCH   2  11
TORSDOF 2
ENDMDL
