MODEL 1
REMARK VINA RESULT:      -4.2      0.000      0.000
REMARK  Name = *****
REMARK  5 active torsions:
REMARK  status: ('A' for Active; 'I' for Inactive)
REMARK    1  A    between atoms: C_1  and  O_2
REMARK    2  A    between atoms: O_2  and  C_3
REMARK    3  A    between atoms: C_6  and  N_9
REMARK    4  A    between atoms: N_9  and  C_10
REMARK    5  A    between atoms: C_10  and  C_11
REMARK                            x       y       z     vdW  Elec       q    Type
REMARK                         _______ _______ _______ _____ _____    ______ ____
ROOT
ATOM      1  C   UNL     1     105.853 122.604  80.984  0.00  0.00    +0.000 A 
ATOM      2  C   UNL     1     105.376 123.518  80.039  0.00  0.00    +0.000 A 
ATOM      3  C   UNL     1     104.378 124.433  80.389  0.00  0.00    +0.000 A 
ATOM      4  C   UNL     1     103.869 124.421  81.683  0.00  0.00    +0.000 A 
ATOM      5  C   UNL     1     104.328 123.522  82.637  0.00  0.00    +0.000 A 
ATOM      6  C   UNL     1     105.324 122.612  82.281  0.00  0.00    +0.000 A 
ENDROOT
BRANCH   1   8
ATOM      7  C   UNL     1     106.706 120.446  81.501  0.00  0.00    +0.000 C 
ATOM      8  O   UNL     1     106.822 121.662  80.773  0.00  0.00    +0.000 OA
ENDBRANCH   1   8
BRANCH   4   9
ATOM      9  N   UNL     1     102.883 125.328  82.027  0.00  0.00    +0.000 NA
BRANCH   9  10
ATOM     10  C   UNL     1     102.087 126.057  82.303  0.00  0.00    +0.000 C 
BRANCH  10  11
ATOM     11  C   UNL     1     101.066 126.994  82.656  0.00  0.00    +0.000 A 
ATOM     12  C   UNL     1      99.731 126.724  82.351  0.00  0.00    +0.000 A 
ATOM     13  C   UNL     1      98.735 127.639  82.695  0.00  0.00    +0.000 A 
ATOM     14  C   UNL     1      99.074 128.826  83.347  0.00  0.00    +0.000 A 
ATOM     15  C   UNL     1     100.407 129.098  83.654  0.00  0.00    +0.000 A 
ATOM     16  C   UNL     1     101.404 128.182  83.309  0.00  0.00    +0.000 A 
ENDBRANCH  10  11
ENDBRANCH   9  10
ENDBRANCH   4   9
TORSDOF 4
ENDMDL
