MODEL 1
REMARK VINA RESULT:      -5.1      0.000      0.000
REMARK  Name = *****
REMARK  1 active torsions:
REMARK  status: ('A' for Active; 'I' for Inactive)
REMARK    1  A    between atoms: C_4  and  C_7
REMARK                            x       y       z     vdW  Elec       q    Type
REMARK                         _______ _______ _______ _____ _____    ______ ____
ROOT
ATOM      1  C   UNL     1     103.011 125.405  81.549  0.00  0.00    +0.000 C 
ATOM      2  C   UNL     1     102.078 126.167  82.093  0.00  0.00    +0.000 C 
ATOM      3  S   UNL     1     103.141 127.069  81.044  0.00  0.00    +0.000 S 
ATOM      4  C   UNL     1     101.106 127.097  82.628  0.00  0.00    +0.000 C 
ATOM      5  C   UNL     1      99.752 126.843  82.360  0.00  0.00    +0.000 C 
ATOM      6  C   UNL     1      98.757 127.733  82.776  0.00  0.00    +0.000 C 
ATOM      7  C   UNL     1      99.101 128.878  83.490  0.00  0.00    +0.000 C 
ATOM      8  C   UNL     1     100.433 129.115  83.818  0.00  0.00    +0.000 C 
ATOM      9  C   UNL     1     101.428 128.223  83.403  0.00  0.00    +0.000 C 
ENDROOT
BRANCH   1  13
ATOM     10  C   UNL     1     106.207 123.315  79.643  0.00  0.00    +0.000 A 
ATOM     11  C   UNL     1     105.844 124.596  79.230  0.00  0.00    +0.000 A 
ATOM     12  C   UNL     1     104.787 125.267  79.859  0.00  0.00    +0.000 A 
ATOM     13  C   UNL     1     104.066 124.658  80.896  0.00  0.00    +0.000 A 
ATOM     14  C   UNL     1     104.472 123.379  81.321  0.00  0.00    +0.000 A 
ATOM     15  C   UNL     1     105.524 122.708  80.692  0.00  0.00    +0.000 A 
ENDBRANCH   1  13
TORSDOF 1
ENDMDL
