MODEL 1
REMARK VINA RESULT:      -4.7      0.000      0.000
REMARK  Name = *****
REMARK  2 active torsions:
REMARK  status: ('A' for Active; 'I' for Inactive)
REMARK    1  A    between atoms: C_3  and  N_8
REMARK    2  A    between atoms: C_9  and  C_10
REMARK                            x       y       z     vdW  Elec       q    Type
REMARK                         _______ _______ _______ _____ _____    ______ ____
ROOT
ATOM      1  N   UNL     1     101.669 125.905  82.357  0.00  0.00    +0.000 NA
ATOM      2  C   UNL     1     102.707 126.239  81.656  0.00  0.00    +0.000 C 
ENDROOT
BRANCH   1   5
ATOM      3  C   UNL     1      98.579 127.910  82.742  0.00  0.00    +0.000 A 
ATOM      4  C   UNL     1      99.446 126.869  82.405  0.00  0.00    +0.000 A 
ATOM      5  C   UNL     1     100.808 126.950  82.716  0.00  0.00    +0.000 A 
ATOM      6  C   UNL     1     101.303 128.095  83.343  0.00  0.00    +0.000 A 
ATOM      7  C   UNL     1     100.435 129.133  83.680  0.00  0.00    +0.000 A 
ATOM      8  C   UNL     1      99.075 129.045  83.385  0.00  0.00    +0.000 A 
ATOM      9 CL   UNL     1     101.047 130.537  84.466  0.00  0.00    +0.000 Cl
ENDBRANCH   1   5
BRANCH   2  10
ATOM     10  C   UNL     1     103.697 125.241  81.207  0.00  0.00    +0.000 A 
ATOM     11  C   UNL     1     104.380 125.404  79.996  0.00  0.00    +0.000 A 
ATOM     12  C   UNL     1     105.311 124.447  79.592  0.00  0.00    +0.000 A 
ATOM     13  C   UNL     1     105.551 123.340  80.398  0.00  0.00    +0.000 A 
ATOM     14  C   UNL     1     104.877 123.169  81.603  0.00  0.00    +0.000 A 
ATOM     15  C   UNL     1     103.944 124.123  82.014  0.00  0.00    +0.000 A 
ATOM     16  F   UNL     1     106.445 122.422  80.009  0.00  0.00    +0.000 F 
ENDBRANCH   2  10
TORSDOF 2
ENDMDL
