MODEL 1
REMARK VINA RESULT:      -4.5      0.000      0.000
REMARK  Name = *****
REMARK  4 active torsions:
REMARK  status: ('A' for Active; 'I' for Inactive)
REMARK    1  A    between atoms: C_4  and  S_7
REMARK    2  A    between atoms: S_7  and  C_9
REMARK    3  A    between atoms: C_9  and  C_10
REMARK    4  A    between atoms: C_10  and  C_11
REMARK                            x       y       z     vdW  Elec       q    Type
REMARK                         _______ _______ _______ _____ _____    ______ ____
ROOT
ATOM      1  C   UNL     1     100.524 126.545  83.709  0.00  0.00    +0.000 C 
ENDROOT
BRANCH   1   2
ATOM      2  S   UNL     1      98.758 126.968  83.531  0.00  0.00    +0.000 S 
ATOM      3  O   UNL     1      98.474 127.076  82.061  0.00  0.00    +0.000 OA
BRANCH   2   7
ATOM      4  C   UNL     1      99.015 131.287  85.116  0.00  0.00    +0.000 A 
ATOM      5  C   UNL     1      99.463 130.994  83.829  0.00  0.00    +0.000 A 
ATOM      6  C   UNL     1      99.389 129.687  83.343  0.00  0.00    +0.000 A 
ATOM      7  C   UNL     1      98.871 128.665  84.146  0.00  0.00    +0.000 A 
ATOM      8  C   UNL     1      98.413 128.967  85.433  0.00  0.00    +0.000 A 
ATOM      9  C   UNL     1      98.489 130.275  85.918  0.00  0.00    +0.000 A 
ENDBRANCH   2   7
ENDBRANCH   1   2
BRANCH   1  10
ATOM     10  C   UNL     1     101.171 126.425  82.334  0.00  0.00    +0.000 C 
BRANCH  10  11
ATOM     11  C   UNL     1     102.355 127.352  82.201  0.00  0.00    +0.000 A 
ATOM     12  C   UNL     1     103.150 127.328  81.045  0.00  0.00    +0.000 A 
ATOM     13  C   UNL     1     104.258 128.172  80.933  0.00  0.00    +0.000 A 
ATOM     14  C   UNL     1     104.575 129.041  81.974  0.00  0.00    +0.000 A 
ATOM     15  C   UNL     1     103.797 129.072  83.129  0.00  0.00    +0.000 A 
ATOM     16  C   UNL     1     102.690 128.228  83.243  0.00  0.00    +0.000 A 
ATOM     17 CL   UNL     1     105.940 130.080  81.835  0.00  0.00    +0.000 Cl
ENDBRANCH  10  11
ENDBRANCH   1  10
TORSDOF 4
ENDMDL
