MODEL 1
REMARK VINA RESULT:      -4.9      0.000      0.000
REMARK  Name = *****
REMARK  7 active torsions:
REMARK  status: ('A' for Active; 'I' for Inactive)
REMARK    1  A    between atoms: C_1  and  C_2
REMARK    2  A    between atoms: C_4  and  C_19
REMARK    3  A    between atoms: C_5  and  C_18
REMARK    4  A    between atoms: C_6  and  C_9
REMARK    5  A    between atoms: C_7  and  C_8
REMARK    6  A    between atoms: C_9  and  C_10
REMARK    7  A    between atoms: C_10  and  C_12
REMARK                            x       y       z     vdW  Elec       q    Type
REMARK                         _______ _______ _______ _____ _____    ______ ____
ROOT
ATOM      1  C   UNL     1      83.878  72.497  87.266  0.00  0.00    +0.000 C 
ATOM      2  C   UNL     1      85.261  71.904  87.305  0.00  0.00    +0.000 A 
ATOM      3  C   UNL     1      85.824  71.624  88.556  0.00  0.00    +0.000 A 
ATOM      4  C   UNL     1      87.116  71.105  88.682  0.00  0.00    +0.000 A 
ATOM      5  C   UNL     1      87.881  70.850  87.524  0.00  0.00    +0.000 A 
ATOM      6  C   UNL     1      87.293  71.032  86.240  0.00  0.00    +0.000 A 
ATOM      7  C   UNL     1      86.009  71.647  86.136  0.00  0.00    +0.000 A 
ATOM      8  C   UNL     1      85.434  72.011  84.785  0.00  0.00    +0.000 C 
ATOM      9  C   UNL     1      89.306  70.368  87.677  0.00  0.00    +0.000 C 
ATOM     10  C   UNL     1      87.656  70.869  90.069  0.00  0.00    +0.000 C 
ENDROOT
BRANCH   6  11
ATOM     11  C   UNL     1      88.040  70.621  84.973  0.00  0.00    +0.000 C 
BRANCH  11  12
ATOM     12  C   UNL     1      87.857  69.185  84.508  0.00  0.00    +0.000 C 
ATOM     13  O   UNL     1      87.220  68.938  83.482  0.00  0.00    +0.000 OA
BRANCH  12  14
ATOM     14  C   UNL     1      88.396  68.039  85.307  0.00  0.00    +0.000 A 
ATOM     15  C   UNL     1      87.521  67.380  86.184  0.00  0.00    +0.000 A 
ATOM     16  C   UNL     1      87.967  66.311  86.963  0.00  0.00    +0.000 A 
ATOM     17  C   UNL     1      89.293  65.892  86.874  0.00  0.00    +0.000 A 
ATOM     18  C   UNL     1      90.171  66.544  86.011  0.00  0.00    +0.000 A 
ATOM     19  C   UNL     1      89.727  67.618  85.233  0.00  0.00    +0.000 A 
ENDBRANCH  12  14
ENDBRANCH  11  12
ENDBRANCH   6  11
TORSDOF 3
ENDMDL
