MODEL 1
REMARK VINA RESULT:      -5.0      0.000      0.000
REMARK  Name = *****
REMARK  2 active torsions:
REMARK  status: ('A' for Active; 'I' for Inactive)
REMARK    1  A    between atoms: C_4  and  C_7
REMARK    2  A    between atoms: C_7  and  N_8
REMARK                            x       y       z     vdW  Elec       q    Type
REMARK                         _______ _______ _______ _____ _____    ______ ____
ROOT
ATOM      1  N   UNL     1     103.324 127.008  82.068  0.00  0.00    +0.000 N 
ATOM      2  C   UNL     1     103.753 125.730  81.807  0.00  0.00    +0.000 A 
ATOM      3  C   UNL     1     103.800 124.547  82.554  0.00  0.00    +0.000 A 
ATOM      4  C   UNL     1     104.335 123.432  81.908  0.00  0.00    +0.000 A 
ATOM      5  C   UNL     1     104.796 123.498  80.594  0.00  0.00    +0.000 A 
ATOM      6  C   UNL     1     104.744 124.685  79.864  0.00  0.00    +0.000 A 
ATOM      7  C   UNL     1     104.210 125.816  80.494  0.00  0.00    +0.000 A 
ATOM      8  N   UNL     1     104.032 127.090  80.029  0.00  0.00    +0.000 NA
ATOM      9  N   UNL     1     103.482 127.811  80.996  0.00  0.00    +0.000 NA
ATOM     10  F   UNL     1     105.302 122.401  80.012  0.00  0.00    +0.000 F 
ATOM     11  F   UNL     1     104.403 122.272  82.578  0.00  0.00    +0.000 F 
ENDROOT
BRANCH   1  12
ATOM     12  C   UNL     1     102.709 127.525  83.278  0.00  0.00    +0.000 C 
BRANCH  12  16
ATOM     13  C   UNL     1      98.445 128.048  82.867  0.00  0.00    +0.000 A 
ATOM     14  C   UNL     1      99.048 126.873  82.424  0.00  0.00    +0.000 A 
ATOM     15  C   UNL     1     100.426 126.700  82.557  0.00  0.00    +0.000 A 
ATOM     16  C   UNL     1     101.219 127.709  83.127  0.00  0.00    +0.000 A 
ATOM     17  C   UNL     1     100.599 128.883  83.579  0.00  0.00    +0.000 A 
ATOM     18  C   UNL     1      99.220 129.052  83.446  0.00  0.00    +0.000 A 
ENDBRANCH  12  16
ENDBRANCH   1  12
TORSDOF 2
ENDMDL
