MODEL 1
REMARK VINA RESULT:      -4.0      0.000      0.000
REMARK  Name = *****
REMARK  3 active torsions:
REMARK  status: ('A' for Active; 'I' for Inactive)
REMARK    1  A    between atoms: N_5  and  N_8
REMARK    2  A    between atoms: N_8  and  C_9
REMARK    3  A    between atoms: C_9  and  C_10
REMARK                            x       y       z     vdW  Elec       q    Type
REMARK                         _______ _______ _______ _____ _____    ______ ____
ROOT
ATOM      1  C   UNL     1      96.718 115.757  81.826  0.00  0.00    +0.000 C 
ENDROOT
BRANCH   1   2
ATOM      2  C   UNL     1      96.751 115.649  80.354  0.00  0.00    +0.000 A 
ATOM      3  C   UNL     1      95.924 114.713  79.728  0.00  0.00    +0.000 A 
ATOM      4  C   UNL     1      95.946 114.594  78.334  0.00  0.00    +0.000 A 
ATOM      5  C   UNL     1      96.792 115.409  77.571  0.00  0.00    +0.000 A 
ATOM      6  C   UNL     1      97.615 116.343  78.205  0.00  0.00    +0.000 A 
ATOM      7  C   UNL     1      97.596 116.464  79.597  0.00  0.00    +0.000 A 
ATOM      8 CL   UNL     1      96.866 115.310  75.848  0.00  0.00    +0.000 Cl
ATOM      9 CL   UNL     1      94.901 113.417  77.617  0.00  0.00    +0.000 Cl
ENDBRANCH   1   2
BRANCH   1  10
ATOM     10  N   UNL     1      95.877 116.538  82.428  0.00  0.00    +0.000 NA
BRANCH  10  15
ATOM     11  C   UNL     1      98.811 119.432  81.740  0.00  0.00    +0.000 C 
ATOM     12  C   UNL     1      97.580 120.238  81.353  0.00  0.00    +0.000 C 
ATOM     13  C   UNL     1      96.277 119.448  81.350  0.00  0.00    +0.000 C 
ATOM     14  C   UNL     1      95.890 118.903  82.725  0.00  0.00    +0.000 C 
ATOM     15  N   UNL     1      96.461 117.596  83.058  0.00  0.00    +0.000 NA
ATOM     16  C   UNL     1      97.924 117.545  83.216  0.00  0.00    +0.000 C 
ATOM     17  C   UNL     1      98.745 118.835  83.143  0.00  0.00    +0.000 C 
ENDBRANCH  10  15
ENDBRANCH   1  10
TORSDOF 3
ENDMDL
