MODEL 1
REMARK VINA RESULT:      -4.6      0.000      0.000
REMARK  Name = *****
REMARK  6 active torsions:
REMARK  status: ('A' for Active; 'I' for Inactive)
REMARK    1  A    between atoms: C_1  and  C_2
REMARK    2  A    between atoms: C_2  and  C_4
REMARK    3  A    between atoms: C_7  and  C_11
REMARK    4  A    between atoms: C_7  and  S_12
REMARK    5  A    between atoms: S_12  and  C_13
REMARK    6  A    between atoms: C_13  and  C_14
REMARK                            x       y       z     vdW  Elec       q    Type
REMARK                         _______ _______ _______ _____ _____    ______ ____
ROOT
ATOM      1  C   UNL     1      89.271  70.600  85.856  0.00  0.00    +0.000 C 
ATOM      2  C   UNL     1      89.912  69.717  84.770  0.00  0.00    +0.000 C 
ATOM      3  C   UNL     1      89.129  68.419  84.556  0.00  0.00    +0.000 C 
ATOM      4  C   UNL     1      88.983  67.586  85.842  0.00  0.00    +0.000 C 
ATOM      5  C   UNL     1      88.549  68.461  87.032  0.00  0.00    +0.000 C 
ATOM      6  O   UNL     1      87.793  68.069  87.925  0.00  0.00    +0.000 OA
ATOM      7  C   UNL     1      89.223  69.816  87.175  0.00  0.00    +0.000 C 
ATOM      8  C   UNL     1      90.319  66.923  86.223  0.00  0.00    +0.000 C 
ENDROOT
BRANCH   1  10
ATOM      9  C   UNL     1      87.988  71.931  84.064  0.00  0.00    +0.000 C 
ATOM     10  C   UNL     1      87.949  71.227  85.401  0.00  0.00    +0.000 C 
ATOM     11  C   UNL     1      86.808  71.240  86.113  0.00  0.00    +0.000 C 
ENDBRANCH   1  10
BRANCH   4  12
ATOM     12  S   UNL     1      87.805  66.187  85.540  0.00  0.00    +0.000 S 
BRANCH  12  13
ATOM     13  C   UNL     1      88.792  64.744  86.067  0.00  0.00    +0.000 C 
BRANCH  13  14
ATOM     14  C   UNL     1      88.181  64.095  87.286  0.00  0.00    +0.000 A 
ATOM     15  C   UNL     1      87.346  62.976  87.150  0.00  0.00    +0.000 A 
ATOM     16  C   UNL     1      86.773  62.379  88.273  0.00  0.00    +0.000 A 
ATOM     17  C   UNL     1      87.021  62.897  89.543  0.00  0.00    +0.000 A 
ATOM     18  C   UNL     1      87.840  64.016  89.691  0.00  0.00    +0.000 A 
ATOM     19  C   UNL     1      88.416  64.614  88.569  0.00  0.00    +0.000 A 
ENDBRANCH  13  14
ENDBRANCH  12  13
ENDBRANCH   4  12
TORSDOF 4
ENDMDL
