MODEL 1
REMARK VINA RESULT:      -4.5      0.000      0.000
REMARK  Name = *****
REMARK  3 active torsions:
REMARK  status: ('A' for Active; 'I' for Inactive)
REMARK    1  A    between atoms: C_4  and  C_7
REMARK    2  A    between atoms: C_7  and  S_8
REMARK    3  A    between atoms: S_8  and  C_9
REMARK                            x       y       z     vdW  Elec       q    Type
REMARK                         _______ _______ _______ _____ _____    ______ ____
ROOT
ATOM      1  C   UNL     1     103.396 126.060  82.785  0.00  0.00    +0.000 A 
ATOM      2  C   UNL     1     103.732 124.780  82.327  0.00  0.00    +0.000 A 
ATOM      3  C   UNL     1     103.954 124.540  80.971  0.00  0.00    +0.000 A 
ATOM      4  C   UNL     1     103.844 125.561  80.038  0.00  0.00    +0.000 A 
ATOM      5  C   UNL     1     103.502 126.830  80.482  0.00  0.00    +0.000 A 
ATOM      6  C   UNL     1     103.276 127.081  81.837  0.00  0.00    +0.000 A 
ATOM      7  F   UNL     1     102.930 128.323  82.208  0.00  0.00    +0.000 F 
ATOM      8  F   UNL     1     103.386 127.824  79.591  0.00  0.00    +0.000 F 
ATOM      9  F   UNL     1     104.282 123.309  80.554  0.00  0.00    +0.000 F 
ATOM     10  F   UNL     1     103.855 123.758  83.189  0.00  0.00    +0.000 F 
ENDROOT
BRANCH   1  11
ATOM     11  S   UNL     1     103.091 126.316  84.530  0.00  0.00    +0.000 S 
BRANCH  11  12
ATOM     12  C   UNL     1     101.299 125.981  84.623  0.00  0.00    +0.000 C 
BRANCH  12  16
ATOM     13  C   UNL     1      98.991 129.348  83.225  0.00  0.00    +0.000 A 
ATOM     14  C   UNL     1      99.984 129.534  84.185  0.00  0.00    +0.000 A 
ATOM     15  C   UNL     1     100.732 128.446  84.637  0.00  0.00    +0.000 A 
ATOM     16  C   UNL     1     100.498 127.160  84.128  0.00  0.00    +0.000 A 
ATOM     17  C   UNL     1      99.490 126.984  83.169  0.00  0.00    +0.000 A 
ATOM     18  C   UNL     1      98.742 128.074  82.719  0.00  0.00    +0.000 A 
ENDBRANCH  12  16
ENDBRANCH  11  12
ENDBRANCH   1  11
TORSDOF 3
ENDMDL
