MODEL 1
REMARK VINA RESULT:      -4.5      0.000      0.000
REMARK  Name = *****
REMARK  4 active torsions:
REMARK  status: ('A' for Active; 'I' for Inactive)
REMARK    1  A    between atoms: C_1  and  C_2
REMARK    2  A    between atoms: C_4  and  C_8
REMARK    3  A    between atoms: N_9  and  C_10
REMARK    4  A    between atoms: C_15  and  S_16
REMARK                            x       y       z     vdW  Elec       q    Type
REMARK                         _______ _______ _______ _____ _____    ______ ____
ROOT
ATOM      1  C   UNL     1     102.617 126.039  81.413  0.00  0.00    +0.000 C 
ATOM      2  N   UNL     1     102.075 126.017  82.591  0.00  0.00    +0.000 NA
ENDROOT
BRANCH   1   6
ATOM      3  C   UNL     1     106.252 124.622  78.258  0.00  0.00    +0.000 C 
ATOM      4  C   UNL     1     105.442 124.402  79.500  0.00  0.00    +0.000 A 
ATOM      5  C   UNL     1     104.428 125.302  79.856  0.00  0.00    +0.000 A 
ATOM      6  C   UNL     1     103.696 125.107  81.032  0.00  0.00    +0.000 A 
ATOM      7  C   UNL     1     103.976 124.023  81.867  0.00  0.00    +0.000 A 
ATOM      8  C   UNL     1     104.994 123.134  81.524  0.00  0.00    +0.000 A 
ATOM      9  C   UNL     1     105.726 123.326  80.351  0.00  0.00    +0.000 A 
ENDBRANCH   1   6
BRANCH   2  10
ATOM     10  C   UNL     1     101.061 126.971  82.814  0.00  0.00    +0.000 A 
ATOM     11  C   UNL     1      99.758 126.697  82.377  0.00  0.00    +0.000 A 
ATOM     12  C   UNL     1      98.728 127.615  82.588  0.00  0.00    +0.000 A 
ATOM     13  C   UNL     1      98.989 128.815  83.247  0.00  0.00    +0.000 A 
ATOM     14  C   UNL     1     100.278 129.093  83.705  0.00  0.00    +0.000 A 
ATOM     15  C   UNL     1     101.316 128.175  83.500  0.00  0.00    +0.000 A 
BRANCH  15  16
ATOM     16  S   UNL     1     102.946 128.572  84.120  0.00  0.00    +0.000 S 
ATOM     17  H   UNL     1     102.849 129.561  85.049  0.00  0.00    +0.000 HD
ENDBRANCH  15  16
ENDBRANCH   2  10
TORSDOF 3
ENDMDL
