REMARK  Name = *****
REMARK  4 active torsions:
REMARK  status: ('A' for Active; 'I' for Inactive)
REMARK    1  A    between atoms: C_4  and  S_7
REMARK    2  A    between atoms: S_7  and  C_8
REMARK    3  A    between atoms: C_8  and  C_9
REMARK    4  A    between atoms: C_12  and  C_15
REMARK                            x       y       z     vdW  Elec       q    Type
REMARK                         _______ _______ _______ _____ _____    ______ ____
ROOT
ATOM      1  C   UNL     1      -3.905  -0.762  -0.592  0.00  0.00    +0.000 C 
ENDROOT
BRANCH   1   2
ATOM      2  C   UNL     1      -5.404  -0.607  -0.683  0.00  0.00    +0.000 A 
ATOM      3  C   UNL     1      -5.967   0.505  -1.327  0.00  0.00    +0.000 A 
ATOM      4  C   UNL     1      -7.354   0.657  -1.398  0.00  0.00    +0.000 A 
ATOM      5  C   UNL     1      -8.195  -0.297  -0.820  0.00  0.00    +0.000 A 
ATOM      6  C   UNL     1      -7.643  -1.404  -0.168  0.00  0.00    +0.000 A 
ATOM      7  C   UNL     1      -6.256  -1.556  -0.098  0.00  0.00    +0.000 A 
BRANCH   5   8
ATOM      8  C   UNL     1      -9.619  -0.141  -0.892  0.00  0.00    +0.000 C 
ATOM      9  N   UNL     1     -10.771  -0.015  -0.953  0.00  0.00    +0.000 NA
ENDBRANCH   5   8
ENDBRANCH   1   2
BRANCH   1  10
ATOM     10  S   UNL     1      -3.255  -0.011   0.936  0.00  0.00    +0.000 S 
BRANCH  10  14
ATOM     11  C   UNL     1       1.251  -0.301   0.148  0.00  0.00    +0.000 A 
ATOM     12  C   UNL     1       0.480  -1.462   0.167  0.00  0.00    +0.000 A 
ATOM     13  C   UNL     1      -0.894  -1.387   0.406  0.00  0.00    +0.000 A 
ATOM     14  C   UNL     1      -1.506  -0.147   0.619  0.00  0.00    +0.000 A 
ATOM     15  C   UNL     1      -0.724   1.012   0.614  0.00  0.00    +0.000 A 
ATOM     16  C   UNL     1       0.650   0.936   0.374  0.00  0.00    +0.000 A 
ENDBRANCH  10  14
ENDBRANCH   1  10
TORSDOF 4
