MODEL 1
REMARK VINA RESULT:      -4.1      0.000      0.000
REMARK  Name = *****
REMARK  4 active torsions:
REMARK  status: ('A' for Active; 'I' for Inactive)
REMARK    1  A    between atoms: C_1  and  C_2
REMARK    2  A    between atoms: C_3  and  C_9
REMARK    3  A    between atoms: C_9  and  C_10
REMARK    4  A    between atoms: C_10  and  C_11
REMARK                            x       y       z     vdW  Elec       q    Type
REMARK                         _______ _______ _______ _____ _____    ______ ____
ROOT
ATOM      1  C   UNL     1      86.952  68.067  88.301  0.00  0.00    +0.000 C 
ATOM      2  C   UNL     1      87.994  68.030  87.189  0.00  0.00    +0.000 C 
ATOM      3  C   UNL     1      88.479  69.177  86.639  0.00  0.00    +0.000 C 
ATOM      4  S   UNL     1      89.708  69.344  85.387  0.00  0.00    +0.000 S 
ATOM      5  C   UNL     1      89.460  67.924  84.305  0.00  0.00    +0.000 C 
ATOM      6  C   UNL     1      90.262  66.722  84.794  0.00  0.00    +0.000 C 
ATOM      7  C   UNL     1      90.119  66.405  86.278  0.00  0.00    +0.000 C 
ATOM      8  S   UNL     1      88.385  66.368  86.764  0.00  0.00    +0.000 S 
ENDROOT
BRANCH   3   9
ATOM      9  C   UNL     1      87.963  70.551  87.087  0.00  0.00    +0.000 C 
BRANCH   9  10
ATOM     10  C   UNL     1      86.968  71.154  86.086  0.00  0.00    +0.000 C 
BRANCH  10  11
ATOM     11  C   UNL     1      85.762  71.732  86.785  0.00  0.00    +0.000 A 
ATOM     12  C   UNL     1      85.673  71.713  88.184  0.00  0.00    +0.000 A 
ATOM     13  C   UNL     1      84.548  72.228  88.828  0.00  0.00    +0.000 A 
ATOM     14  C   UNL     1      83.499  72.762  88.080  0.00  0.00    +0.000 A 
ATOM     15  C   UNL     1      83.574  72.779  86.689  0.00  0.00    +0.000 A 
ATOM     16  C   UNL     1      84.700  72.265  86.043  0.00  0.00    +0.000 A 
ENDBRANCH  10  11
ENDBRANCH   9  10
ENDBRANCH   3   9
TORSDOF 3
ENDMDL
