REMARK  Name = *****
REMARK  4 active torsions:
REMARK  status: ('A' for Active; 'I' for Inactive)
REMARK    1  A    between atoms: C_1  and  C_2
REMARK    2  A    between atoms: C_1  and  O_8
REMARK    3  A    between atoms: O_8  and  C_9
REMARK    4  A    between atoms: C_12  and  C_15
REMARK                            x       y       z     vdW  Elec       q    Type
REMARK                         _______ _______ _______ _____ _____    ______ ____
ROOT
ATOM      1  O   UNL     1       2.699   1.258  -0.287  0.00  0.00    +0.000 OA
ENDROOT
BRANCH   1   2
ATOM      2  C   UNL     1       4.049   1.403  -0.449  0.00  0.00    +0.000 A 
ATOM      3  C   UNL     1       5.006   0.395  -0.329  0.00  0.00    +0.000 A 
ATOM      4  C   UNL     1       6.362   0.685  -0.524  0.00  0.00    +0.000 A 
ATOM      5  C   UNL     1       6.777   1.984  -0.839  0.00  0.00    +0.000 A 
ATOM      6  C   UNL     1       5.814   2.991  -0.955  0.00  0.00    +0.000 A 
ATOM      7  C   UNL     1       4.462   2.700  -0.760  0.00  0.00    +0.000 A 
ATOM      8  C   UNL     1       8.226   2.304  -1.052  0.00  0.00    +0.000 C 
ENDBRANCH   1   2
BRANCH   1   9
ATOM      9  C   UNL     1       2.215  -0.055  -0.012  0.00  0.00    +0.000 C 
BRANCH   9  10
ATOM     10  C   UNL     1       0.712   0.000   0.125  0.00  0.00    +0.000 A 
ATOM     11  C   UNL     1      -0.115  -0.745  -0.726  0.00  0.00    +0.000 A 
ATOM     12  C   UNL     1      -1.503  -0.700  -0.583  0.00  0.00    +0.000 A 
ATOM     13  C   UNL     1      -2.078   0.088   0.413  0.00  0.00    +0.000 A 
ATOM     14  C   UNL     1      -1.266   0.834   1.265  0.00  0.00    +0.000 A 
ATOM     15  C   UNL     1       0.122   0.790   1.123  0.00  0.00    +0.000 A 
ENDBRANCH   9  10
ENDBRANCH   1   9
TORSDOF 3
