REMARK  Name = *****
REMARK  4 active torsions:
REMARK  status: ('A' for Active; 'I' for Inactive)
REMARK    1  A    between atoms: C_4  and  C_7
REMARK    2  A    between atoms: C_7  and  N_8
REMARK    3  A    between atoms: N_8  and  C_9
REMARK    4  A    between atoms: N_8  and  C_16
REMARK                            x       y       z     vdW  Elec       q    Type
REMARK                         _______ _______ _______ _____ _____    ______ ____
ROOT
ATOM      1  N   UNL     1      -3.513  -0.919  -0.641  0.00  0.00    +0.000 N 
ENDROOT
BRANCH   1   2
ATOM      2  C   UNL     1      -3.029  -2.181  -0.249  0.00  0.00    +0.000 A 
ATOM      3  C   UNL     1      -2.276  -2.405   0.915  0.00  0.00    +0.000 A 
ATOM      4  C   UNL     1      -1.821  -3.686   1.244  0.00  0.00    +0.000 A 
ATOM      5  C   UNL     1      -2.116  -4.756   0.411  0.00  0.00    +0.000 A 
ATOM      6  C   UNL     1      -2.858  -4.570  -0.745  0.00  0.00    +0.000 A 
ATOM      7  C   UNL     1      -3.310  -3.289  -1.070  0.00  0.00    +0.000 A 
ATOM      8  F   UNL     1      -1.680  -5.982   0.728  0.00  0.00    +0.000 F 
ENDBRANCH   1   2
BRANCH   1   9
ATOM      9  C   UNL     1      -4.910  -0.756  -0.280  0.00  0.00    +0.000 C 
ATOM     10  F   UNL     1      -5.401   0.392  -0.807  0.00  0.00    +0.000 F 
ATOM     11  F   UNL     1      -5.692  -1.761  -0.736  0.00  0.00    +0.000 F 
ATOM     12  F   UNL     1      -5.063  -0.676   1.062  0.00  0.00    +0.000 F 
ENDBRANCH   1   9
BRANCH   1  13
ATOM     13  C   UNL     1      -2.733   0.268  -0.277  0.00  0.00    +0.000 C 
BRANCH  13  17
ATOM     14  C   UNL     1       1.200   0.375  -2.070  0.00  0.00    +0.000 A 
ATOM     15  C   UNL     1       0.086   0.085  -2.855  0.00  0.00    +0.000 A 
ATOM     16  C   UNL     1      -1.183   0.044  -2.277  0.00  0.00    +0.000 A 
ATOM     17  C   UNL     1      -1.352   0.281  -0.904  0.00  0.00    +0.000 A 
ATOM     18  C   UNL     1      -0.223   0.582  -0.128  0.00  0.00    +0.000 A 
ATOM     19  C   UNL     1       1.046   0.624  -0.708  0.00  0.00    +0.000 A 
ENDBRANCH  13  17
ENDBRANCH   1  13
TORSDOF 4
