MODEL 1
REMARK VINA RESULT:      -4.8      0.000      0.000
REMARK  Name = *****
REMARK  3 active torsions:
REMARK  status: ('A' for Active; 'I' for Inactive)
REMARK    1  A    between atoms: C_4  and  C_7
REMARK    2  A    between atoms: C_8  and  C_9
REMARK    3  A    between atoms: C_11  and  S_15
REMARK                            x       y       z     vdW  Elec       q    Type
REMARK                         _______ _______ _______ _____ _____    ______ ____
ROOT
ATOM      1  C   UNL     1     102.055 125.972  82.252  0.00  0.00    +0.000 C 
ATOM      2  C   UNL     1     102.858 126.122  81.186  0.00  0.00    +0.000 C 
ENDROOT
BRANCH   1   6
ATOM      3  C   UNL     1      99.079 128.840  83.360  0.00  0.00    +0.000 A 
ATOM      4  C   UNL     1     100.416 129.084  83.668  0.00  0.00    +0.000 A 
ATOM      5  C   UNL     1     101.397 128.153  83.318  0.00  0.00    +0.000 A 
ATOM      6  C   UNL     1     101.051 126.962  82.667  0.00  0.00    +0.000 A 
ATOM      7  C   UNL     1      99.705 126.735  82.347  0.00  0.00    +0.000 A 
ATOM      8  C   UNL     1      98.724 127.666  82.697  0.00  0.00    +0.000 A 
ENDBRANCH   1   6
BRANCH   2   9
ATOM      9  C   UNL     1     103.873 125.138  80.783  0.00  0.00    +0.000 A 
ATOM     10  C   UNL     1     104.726 125.347  79.689  0.00  0.00    +0.000 A 
ATOM     11  C   UNL     1     105.702 124.402  79.353  0.00  0.00    +0.000 A 
ATOM     12  C   UNL     1     105.829 123.240  80.115  0.00  0.00    +0.000 A 
ATOM     13  C   UNL     1     104.998 123.028  81.215  0.00  0.00    +0.000 A 
ATOM     14  C   UNL     1     104.031 123.977  81.550  0.00  0.00    +0.000 A 
BRANCH  11  15
ATOM     15  S   UNL     1     106.773 124.660  77.955  0.00  0.00    +0.000 S 
ATOM     16  H   UNL     1     106.054 125.175  76.922  0.00  0.00    +0.000 HD
ENDBRANCH  11  15
ENDBRANCH   2   9
TORSDOF 3
ENDMDL
