REMARK  Name = *****
REMARK  7 active torsions:
REMARK  status: ('A' for Active; 'I' for Inactive)
REMARK    1  A    between atoms: C_1  and  C_2
REMARK    2  A    between atoms: C_2  and  C_3
REMARK    3  A    between atoms: C_2  and  C_11
REMARK    4  A    between atoms: C_2  and  O_17
REMARK    5  A    between atoms: C_3  and  S_4
REMARK    6  A    between atoms: S_4  and  C_5
REMARK    7  A    between atoms: O_17  and  O_18
REMARK                            x       y       z     vdW  Elec       q    Type
REMARK                         _______ _______ _______ _____ _____    ______ ____
ROOT
ATOM      1  C   UNL     1       1.013  -0.126  -0.178  0.00  0.00    +0.000 C 
ATOM      2  C   UNL     1       2.543   0.002  -0.028  0.00  0.00    +0.000 C 
ENDROOT
BRANCH   2   3
ATOM      3  C   UNL     1       3.186  -0.092  -1.426  0.00  0.00    +0.000 A 
ATOM      4  C   UNL     1       3.958   0.959  -1.952  0.00  0.00    +0.000 A 
ATOM      5  C   UNL     1       4.541   0.865  -3.219  0.00  0.00    +0.000 A 
ATOM      6  C   UNL     1       4.365  -0.282  -3.987  0.00  0.00    +0.000 A 
ATOM      7  C   UNL     1       3.607  -1.336  -3.489  0.00  0.00    +0.000 A 
ATOM      8  C   UNL     1       3.024  -1.243  -2.222  0.00  0.00    +0.000 A 
ENDBRANCH   2   3
BRANCH   2   9
ATOM      9  C   UNL     1       3.074  -1.119   0.912  0.00  0.00    +0.000 C 
BRANCH   9  10
ATOM     10  S   UNL     1       4.864  -0.965   1.318  0.00  0.00    +0.000 S 
BRANCH  10  11
ATOM     11  C   UNL     1       5.131  -2.533   2.122  0.00  0.00    +0.000 A 
ATOM     12  C   UNL     1       6.107  -3.397   1.616  0.00  0.00    +0.000 A 
ATOM     13  C   UNL     1       6.346  -4.629   2.229  0.00  0.00    +0.000 A 
ATOM     14  C   UNL     1       5.614  -5.001   3.355  0.00  0.00    +0.000 A 
ATOM     15  C   UNL     1       4.648  -4.140   3.873  0.00  0.00    +0.000 A 
ATOM     16  C   UNL     1       4.410  -2.907   3.260  0.00  0.00    +0.000 A 
ENDBRANCH  10  11
ENDBRANCH   9  10
ENDBRANCH   2   9
BRANCH   2  17
ATOM     17  O   UNL     1       2.800   1.320   0.520  0.00  0.00    +0.000 OA
BRANCH  17  18
ATOM     18  O   UNL     1       2.338   1.350   1.904  0.00  0.00    +0.000 OA
ATOM     19  H   UNL     1       2.505   2.228   2.281  0.00  0.00    +0.000 HD
ENDBRANCH  17  18
ENDBRANCH   2  17
TORSDOF 6
