MODEL 1
REMARK VINA RESULT:      -4.6      0.000      0.000
REMARK  Name = *****
REMARK  3 active torsions:
REMARK  status: ('A' for Active; 'I' for Inactive)
REMARK    1  A    between atoms: C_1  and  C_2
REMARK    2  A    between atoms: C_5  and  C_8
REMARK    3  A    between atoms: N_10  and  C_11
REMARK                            x       y       z     vdW  Elec       q    Type
REMARK                         _______ _______ _______ _____ _____    ______ ____
ROOT
ATOM      1  C   UNL     1      87.727  70.255  86.190  0.00  0.00    +0.000 C 
ATOM      2  C   UNL     1      89.084  70.613  86.732  0.00  0.00    +0.000 C 
ATOM      3  N   UNL     1      88.385  69.428  87.224  0.00  0.00    +0.000 N 
ENDROOT
BRANCH   1   8
ATOM      4  C   UNL     1      82.985  73.282  87.782  0.00  0.00    +0.000 C 
ATOM      5  C   UNL     1      84.219  72.532  87.377  0.00  0.00    +0.000 A 
ATOM      6  C   UNL     1      84.551  72.386  86.027  0.00  0.00    +0.000 A 
ATOM      7  C   UNL     1      85.685  71.660  85.651  0.00  0.00    +0.000 A 
ATOM      8  C   UNL     1      86.519  71.053  86.606  0.00  0.00    +0.000 A 
ATOM      9  C   UNL     1      86.156  71.192  87.955  0.00  0.00    +0.000 A 
ATOM     10  C   UNL     1      85.024  71.917  88.338  0.00  0.00    +0.000 A 
ENDBRANCH   1   8
BRANCH   3  11
ATOM     11  C   UNL     1      88.858  68.134  86.885  0.00  0.00    +0.000 A 
ATOM     12  C   UNL     1      90.065  67.857  86.223  0.00  0.00    +0.000 A 
ATOM     13  C   UNL     1      90.437  66.540  85.935  0.00  0.00    +0.000 A 
ATOM     14  C   UNL     1      89.605  65.493  86.308  0.00  0.00    +0.000 A 
ATOM     15  C   UNL     1      88.407  65.735  86.964  0.00  0.00    +0.000 A 
ATOM     16  C   UNL     1      88.039  67.051  87.250  0.00  0.00    +0.000 A 
ATOM     17  F   UNL     1      89.965  64.233  86.031  0.00  0.00    +0.000 F 
ENDBRANCH   3  11
TORSDOF 2
ENDMDL
