MODEL 1
REMARK VINA RESULT:      -4.9      0.000      0.000
REMARK  Name = *****
REMARK  6 active torsions:
REMARK  status: ('A' for Active; 'I' for Inactive)
REMARK    1  A    between atoms: C_1  and  C_2
REMARK    2  A    between atoms: C_4  and  C_18
REMARK    3  A    between atoms: C_6  and  C_8
REMARK    4  A    between atoms: C_8  and  C_9
REMARK    5  A    between atoms: C_9  and  C_10
REMARK    6  A    between atoms: C_10  and  C_12
REMARK                            x       y       z     vdW  Elec       q    Type
REMARK                         _______ _______ _______ _____ _____    ______ ____
ROOT
ATOM      1  C   UNL     1      89.630  69.709  86.861  0.00  0.00    +0.000 C 
ENDROOT
BRANCH   1   7
ATOM      2  C   UNL     1      85.099  71.904  86.845  0.00  0.00    +0.000 C 
ATOM      3  C   UNL     1      86.311  71.445  87.601  0.00  0.00    +0.000 A 
ATOM      4  C   UNL     1      86.405  71.623  88.988  0.00  0.00    +0.000 A 
ATOM      5  C   UNL     1      87.538  71.194  89.689  0.00  0.00    +0.000 A 
ATOM      6  C   UNL     1      88.585  70.579  88.989  0.00  0.00    +0.000 A 
ATOM      7  C   UNL     1      88.510  70.396  87.603  0.00  0.00    +0.000 A 
ATOM      8  C   UNL     1      87.367  70.828  86.918  0.00  0.00    +0.000 A 
ATOM      9  C   UNL     1      87.644  71.384  91.173  0.00  0.00    +0.000 C 
ENDBRANCH   1   7
BRANCH   1  10
ATOM     10  C   UNL     1      89.125  69.047  85.583  0.00  0.00    +0.000 C 
BRANCH  10  11
ATOM     11  C   UNL     1      89.905  69.495  84.360  0.00  0.00    +0.000 C 
ATOM     12  O   UNL     1      90.233  68.709  83.470  0.00  0.00    +0.000 OA
BRANCH  11  13
ATOM     13  C   UNL     1      90.235  70.983  84.280  0.00  0.00    +0.000 C 
ATOM     14  C   UNL     1      88.992  71.764  83.843  0.00  0.00    +0.000 C 
ATOM     15  C   UNL     1      89.286  73.254  83.690  0.00  0.00    +0.000 C 
ATOM     16  C   UNL     1      90.466  73.506  82.756  0.00  0.00    +0.000 C 
ATOM     17  C   UNL     1      91.705  72.730  83.192  0.00  0.00    +0.000 C 
ATOM     18  C   UNL     1      91.411  71.239  83.331  0.00  0.00    +0.000 C 
ENDBRANCH  11  13
ENDBRANCH  10  11
ENDBRANCH   1  10
TORSDOF 4
ENDMDL
