MODEL 1
REMARK VINA RESULT:      -5.1      0.000      0.000
REMARK  Name = *****
REMARK  4 active torsions:
REMARK  status: ('A' for Active; 'I' for Inactive)
REMARK    1  A    between atoms: C_1  and  O_2
REMARK    2  A    between atoms: O_2  and  P_3
REMARK    3  A    between atoms: P_3  and  C_4
REMARK    4  A    between atoms: P_3  and  C_10
REMARK                            x       y       z     vdW  Elec       q    Type
REMARK                         _______ _______ _______ _____ _____    ______ ____
ROOT
ATOM      1  C   UNL     1      87.690  70.692  87.416  0.00  0.00    +0.000 A 
ATOM      2  C   UNL     1      88.570  70.475  88.499  0.00  0.00    +0.000 A 
ATOM      3  C   UNL     1      88.232  70.860  89.792  0.00  0.00    +0.000 A 
ATOM      4  C   UNL     1      87.007  71.471  90.030  0.00  0.00    +0.000 A 
ATOM      5  C   UNL     1      86.102  71.704  88.985  0.00  0.00    +0.000 A 
ATOM      6  C   UNL     1      84.876  72.328  89.271  0.00  0.00    +0.000 A 
ATOM      7  C   UNL     1      83.944  72.581  88.268  0.00  0.00    +0.000 A 
ATOM      8  C   UNL     1      84.229  72.210  86.963  0.00  0.00    +0.000 A 
ATOM      9  C   UNL     1      85.444  71.587  86.666  0.00  0.00    +0.000 A 
ATOM     10  C   UNL     1      86.423  71.315  87.656  0.00  0.00    +0.000 A 
ENDROOT
BRANCH   1  11
ATOM     11  P   UNL     1      88.346  70.104  85.790  0.00  0.00    +0.000 P 
BRANCH  11  12
ATOM     12  C   UNL     1      88.689  68.337  86.127  0.00  0.00    +0.000 A 
ATOM     13  C   UNL     1      89.978  67.805  85.969  0.00  0.00    +0.000 A 
ATOM     14  C   UNL     1      90.239  66.459  86.245  0.00  0.00    +0.000 A 
ATOM     15  C   UNL     1      89.217  65.628  86.695  0.00  0.00    +0.000 A 
ATOM     16  C   UNL     1      87.936  66.142  86.876  0.00  0.00    +0.000 A 
ATOM     17  C   UNL     1      87.676  67.487  86.599  0.00  0.00    +0.000 A 
ENDBRANCH  11  12
BRANCH  11  19
ATOM     18  C   UNL     1      90.388  71.173  84.613  0.00  0.00    +0.000 C 
ATOM     19  O   UNL     1      89.852  70.707  85.844  0.00  0.00    +0.000 OA
ENDBRANCH  11  19
ENDBRANCH   1  11
TORSDOF 3
ENDMDL
