MODEL 1
REMARK VINA RESULT:      -4.4      0.000      0.000
REMARK  Name = *****
REMARK  5 active torsions:
REMARK  status: ('A' for Active; 'I' for Inactive)
REMARK    1  A    between atoms: C_1  and  C_2
REMARK    2  A    between atoms: C_4  and  C_9
REMARK    3  A    between atoms: C_7  and  C_8
REMARK    4  A    between atoms: C_9  and  C_10
REMARK    5  A    between atoms: C_10  and  C_11
REMARK                            x       y       z     vdW  Elec       q    Type
REMARK                         _______ _______ _______ _____ _____    ______ ____
ROOT
ATOM      1  C   UNL     1      86.857  72.629  83.826  0.00  0.00    +0.000 C 
ENDROOT
BRANCH   1   5
ATOM      2  C   UNL     1      89.836  68.832  84.414  0.00  0.00    +0.000 C 
ATOM      3  C   UNL     1      89.262  70.240  84.450  0.00  0.00    +0.000 C 
ATOM      4  C   UNL     1      88.228  70.479  83.344  0.00  0.00    +0.000 C 
ATOM      5  C   UNL     1      88.103  72.000  83.200  0.00  0.00    +0.000 C 
ATOM      6  C   UNL     1      89.393  72.503  83.817  0.00  0.00    +0.000 C 
ATOM      7  O   UNL     1      89.695  73.688  83.894  0.00  0.00    +0.000 OA
ATOM      8  C   UNL     1      90.286  71.376  84.291  0.00  0.00    +0.000 C 
ATOM      9  C   UNL     1      91.389  71.141  83.270  0.00  0.00    +0.000 C 
ENDBRANCH   1   5
BRANCH   1  10
ATOM     10  C   UNL     1      85.786  71.643  84.299  0.00  0.00    +0.000 C 
BRANCH  10  11
ATOM     11  C   UNL     1      85.557  71.758  85.788  0.00  0.00    +0.000 A 
ATOM     12  C   UNL     1      84.392  72.359  86.283  0.00  0.00    +0.000 A 
ATOM     13  C   UNL     1      84.193  72.491  87.660  0.00  0.00    +0.000 A 
ATOM     14  C   UNL     1      85.162  72.024  88.546  0.00  0.00    +0.000 A 
ATOM     15  C   UNL     1      86.326  71.428  88.068  0.00  0.00    +0.000 A 
ATOM     16  C   UNL     1      86.525  71.297  86.691  0.00  0.00    +0.000 A 
ATOM     17 CL   UNL     1      84.918  72.188  90.241  0.00  0.00    +0.000 Cl
ENDBRANCH  10  11
ENDBRANCH   1  10
TORSDOF 3
ENDMDL
