MODEL 1
REMARK VINA RESULT:      -4.0      0.000      0.000
REMARK  Name = *****
REMARK  3 active torsions:
REMARK  status: ('A' for Active; 'I' for Inactive)
REMARK    1  A    between atoms: C_4  and  S_7
REMARK    2  A    between atoms: S_7  and  C_8
REMARK    3  A    between atoms: C_8  and  C_10
REMARK                            x       y       z     vdW  Elec       q    Type
REMARK                         _______ _______ _______ _____ _____    ______ ____
ROOT
ATOM      1  C   UNL     1      88.259  70.789  84.954  0.00  0.00    +0.000 C 
ATOM      2  O   UNL     1      89.199  71.536  84.717  0.00  0.00    +0.000 OA
ENDROOT
BRANCH   1   3
ATOM      3  C   UNL     1      87.292  71.102  86.016  0.00  0.00    +0.000 A 
ATOM      4  C   UNL     1      86.086  71.705  85.631  0.00  0.00    +0.000 A 
ATOM      5  C   UNL     1      85.131  72.027  86.594  0.00  0.00    +0.000 A 
ATOM      6  C   UNL     1      85.382  71.759  87.939  0.00  0.00    +0.000 A 
ATOM      7  C   UNL     1      86.592  71.176  88.325  0.00  0.00    +0.000 A 
ATOM      8  C   UNL     1      87.554  70.850  87.365  0.00  0.00    +0.000 A 
ATOM      9 CL   UNL     1      89.046  70.178  87.915  0.00  0.00    +0.000 Cl
ENDBRANCH   1   3
BRANCH   1  10
ATOM     10  S   UNL     1      87.895  69.376  83.976  0.00  0.00    +0.000 S 
BRANCH  10  14
ATOM     11  C   UNL     1      89.348  66.072  86.799  0.00  0.00    +0.000 A 
ATOM     12  C   UNL     1      90.272  66.789  86.041  0.00  0.00    +0.000 A 
ATOM     13  C   UNL     1      89.837  67.798  85.181  0.00  0.00    +0.000 A 
ATOM     14  C   UNL     1      88.474  68.092  85.068  0.00  0.00    +0.000 A 
ATOM     15  C   UNL     1      87.552  67.375  85.839  0.00  0.00    +0.000 A 
ATOM     16  C   UNL     1      87.989  66.365  86.700  0.00  0.00    +0.000 A 
ENDBRANCH  10  14
ENDBRANCH   1  10
TORSDOF 3
ENDMDL
