MODEL 1
REMARK VINA RESULT:      -5.2      0.000      0.000
REMARK  Name = *****
REMARK  1 active torsions:
REMARK  status: ('A' for Active; 'I' for Inactive)
REMARK    1  A    between atoms: C_10  and  C_12
REMARK                            x       y       z     vdW  Elec       q    Type
REMARK                         _______ _______ _______ _____ _____    ______ ____
ROOT
ATOM      1  C   UNL     1     105.523 123.516  80.208  0.00  0.00    +0.000 A 
ATOM      2  C   UNL     1     104.971 123.082  81.415  0.00  0.00    +0.000 A 
ATOM      3  C   UNL     1     104.030 123.856  82.105  0.00  0.00    +0.000 A 
ATOM      4  C   UNL     1     103.672 125.083  81.529  0.00  0.00    +0.000 A 
ATOM      5  C   UNL     1     104.211 125.535  80.331  0.00  0.00    +0.000 A 
ATOM      6  C   UNL     1     105.151 124.747  79.652  0.00  0.00    +0.000 A 
ATOM      7  N   UNL     1     103.684 126.755  80.016  0.00  0.00    +0.000 NA
ATOM      8  N   UNL     1     102.831 127.095  80.971  0.00  0.00    +0.000 NA
ATOM      9  N   UNL     1     102.805 126.096  81.893  0.00  0.00    +0.000 N 
ATOM     10  C   UNL     1     101.980 126.217  83.017  0.00  0.00    +0.000 C 
ATOM     11  O   UNL     1     101.986 125.325  83.864  0.00  0.00    +0.000 OA
ENDROOT
BRANCH  10  12
ATOM     12  C   UNL     1     101.102 127.371  83.225  0.00  0.00    +0.000 A 
ATOM     13  C   UNL     1      99.813 127.318  82.701  0.00  0.00    +0.000 A 
ATOM     14  C   UNL     1      98.935 128.384  82.871  0.00  0.00    +0.000 A 
ATOM     15  C   UNL     1      99.352 129.515  83.572  0.00  0.00    +0.000 A 
ATOM     16  C   UNL     1     100.646 129.573  84.098  0.00  0.00    +0.000 A 
ATOM     17  C   UNL     1     101.526 128.500  83.924  0.00  0.00    +0.000 A 
ATOM     18 CL   UNL     1     103.120 128.635  84.568  0.00  0.00    +0.000 Cl
ATOM     19  F   UNL     1      99.399 126.236  82.028  0.00  0.00    +0.000 F 
ENDBRANCH  10  12
TORSDOF 1
ENDMDL
