MODEL 1
REMARK VINA RESULT:      -4.4      0.000      0.000
REMARK  Name = *****
REMARK  6 active torsions:
REMARK  status: ('A' for Active; 'I' for Inactive)
REMARK    1  A    between atoms: C_1  and  C_2
REMARK    2  A    between atoms: C_2  and  C_3
REMARK    3  A    between atoms: C_2  and  C_4
REMARK    4  A    between atoms: C_6  and  S_9
REMARK    5  A    between atoms: S_9  and  C_10
REMARK    6  A    between atoms: C_10  and  C_11
REMARK                            x       y       z     vdW  Elec       q    Type
REMARK                         _______ _______ _______ _____ _____    ______ ____
ROOT
ATOM      1  C   UNL     1     104.823 123.102  80.769  0.00  0.00    +0.000 A 
ATOM      2  N   UNL     1     104.000 123.922  81.394  0.00  0.00    +0.000 NA
ATOM      3  C   UNL     1     104.119 125.095  80.697  0.00  0.00    +0.000 A 
ATOM      4  C   UNL     1     105.012 124.939  79.667  0.00  0.00    +0.000 A 
ATOM      5  O   UNL     1     105.475 123.658  79.701  0.00  0.00    +0.000 OA
ENDROOT
BRANCH   1   7
ATOM      6  C   UNL     1     106.632 121.424  81.053  0.00  0.00    +0.000 C 
ATOM      7  C   UNL     1     105.124 121.671  81.061  0.00  0.00    +0.000 C 
ATOM      8  C   UNL     1     104.516 121.262  82.402  0.00  0.00    +0.000 C 
ENDBRANCH   1   7
BRANCH   3   9
ATOM      9  S   UNL     1     103.246 126.550  81.086  0.00  0.00    +0.000 S 
BRANCH   9  10
ATOM     10  C   UNL     1     102.034 125.897  82.270  0.00  0.00    +0.000 C 
BRANCH  10  11
ATOM     11  C   UNL     1     101.022 126.946  82.659  0.00  0.00    +0.000 A 
ATOM     12  C   UNL     1      99.663 126.775  82.351  0.00  0.00    +0.000 A 
ATOM     13  C   UNL     1      98.729 127.752  82.702  0.00  0.00    +0.000 A 
ATOM     14  C   UNL     1      99.143 128.910  83.357  0.00  0.00    +0.000 A 
ATOM     15  C   UNL     1     100.490 129.096  83.661  0.00  0.00    +0.000 A 
ATOM     16  C   UNL     1     101.426 128.120  83.312  0.00  0.00    +0.000 A 
ENDBRANCH  10  11
ENDBRANCH   9  10
ENDBRANCH   3   9
TORSDOF 4
ENDMDL
