MODEL 1
REMARK VINA RESULT:      -3.7      0.000      0.000
REMARK  Name = *****
REMARK  5 active torsions:
REMARK  status: ('A' for Active; 'I' for Inactive)
REMARK    1  A    between atoms: C_1  and  C_2
REMARK    2  A    between atoms: C_2  and  C_7
REMARK    3  A    between atoms: C_8  and  C_9
REMARK    4  A    between atoms: C_9  and  O_15
REMARK    5  A    between atoms: O_15  and  C_16
REMARK                            x       y       z     vdW  Elec       q    Type
REMARK                         _______ _______ _______ _____ _____    ______ ____
ROOT
ATOM      1  C   UNL     1      88.634  65.076  87.610  0.00  0.00    +0.000 C 
ATOM      2  C   UNL     1      89.266  65.724  86.819  0.00  0.00    +0.000 C 
ENDROOT
BRANCH   1   4
ATOM      3  C   UNL     1      88.776  63.760  89.694  0.00  0.00    +0.000 C 
ATOM      4  C   UNL     1      87.863  64.286  88.586  0.00  0.00    +0.000 C 
ATOM      5  S   UNL     1      86.553  65.336  89.339  0.00  0.00    +0.000 S 
ATOM      6  C   UNL     1      85.118  64.420  88.711  0.00  0.00    +0.000 C 
ATOM      7  C   UNL     1      85.502  63.716  87.426  0.00  0.00    +0.000 C 
ATOM      8  S   UNL     1      87.062  62.866  87.751  0.00  0.00    +0.000 S 
ENDBRANCH   1   4
BRANCH   2   9
ATOM      9  C   UNL     1      90.051  66.529  85.849  0.00  0.00    +0.000 C 
ATOM     10  C   UNL     1      89.167  66.831  84.617  0.00  0.00    +0.000 C 
ATOM     11  C   UNL     1      88.848  65.583  83.789  0.00  0.00    +0.000 C 
ATOM     12  C   UNL     1      90.118  64.841  83.385  0.00  0.00    +0.000 C 
ATOM     13  C   UNL     1      90.985  64.495  84.592  0.00  0.00    +0.000 C 
ATOM     14  C   UNL     1      91.308  65.733  85.433  0.00  0.00    +0.000 C 
BRANCH   9  15
ATOM     15  O   UNL     1      90.432  67.710  86.568  0.00  0.00    +0.000 OA
ATOM     16  C   UNL     1      89.656  68.879  86.374  0.00  0.00    +0.000 C 
ENDBRANCH   9  15
ENDBRANCH   2   9
TORSDOF 3
ENDMDL
