MODEL 1
REMARK VINA RESULT:      -4.4      0.000      0.000
REMARK  Name = *****
REMARK  3 active torsions:
REMARK  status: ('A' for Active; 'I' for Inactive)
REMARK    1  A    between atoms: C_4  and  N_7
REMARK    2  A    between atoms: N_7  and  P_8
REMARK    3  A    between atoms: P_8  and  C_9
REMARK                            x       y       z     vdW  Elec       q    Type
REMARK                         _______ _______ _______ _____ _____    ______ ____
ROOT
ATOM      1  N   UNL     1      89.307  63.803  87.638  0.00  0.00    +0.000 N 
ATOM      2  H   UNL     1      90.227  63.577  87.908  0.00  0.00    +0.000 HD
ENDROOT
BRANCH   1   6
ATOM      3  C   UNL     1      86.425  63.068  90.645  0.00  0.00    +0.000 A 
ATOM      4  C   UNL     1      86.290  62.456  89.403  0.00  0.00    +0.000 A 
ATOM      5  C   UNL     1      87.238  62.685  88.401  0.00  0.00    +0.000 A 
ATOM      6  C   UNL     1      88.333  63.531  88.623  0.00  0.00    +0.000 A 
ATOM      7  C   UNL     1      88.456  64.133  89.885  0.00  0.00    +0.000 A 
ATOM      8  C   UNL     1      87.508  63.906  90.888  0.00  0.00    +0.000 A 
ENDBRANCH   1   6
BRANCH   1   9
ATOM      9  P   UNL     1      89.184  64.429  86.128  0.00  0.00    +0.000 P 
ATOM     10 CL   UNL     1      91.173  64.377  85.456  0.00  0.00    +0.000 Cl
BRANCH   9  11
ATOM     11  C   UNL     1      89.040  66.225  86.483  0.00  0.00    +0.000 A 
ATOM     12  C   UNL     1      90.015  67.176  86.143  0.00  0.00    +0.000 A 
ATOM     13  C   UNL     1      89.848  68.527  86.463  0.00  0.00    +0.000 A 
ATOM     14  C   UNL     1      88.704  68.952  87.132  0.00  0.00    +0.000 A 
ATOM     15  C   UNL     1      87.724  68.027  87.480  0.00  0.00    +0.000 A 
ATOM     16  C   UNL     1      87.892  66.677  87.159  0.00  0.00    +0.000 A 
ENDBRANCH   9  11
ENDBRANCH   1   9
TORSDOF 3
ENDMDL
