MODEL 1
REMARK VINA RESULT:      -4.3      0.000      0.000
REMARK  Name = *****
REMARK  3 active torsions:
REMARK  status: ('A' for Active; 'I' for Inactive)
REMARK    1  A    between atoms: C_2  and  C_3
REMARK    2  A    between atoms: C_4  and  C_8
REMARK    3  A    between atoms: C_9  and  C_10
REMARK                            x       y       z     vdW  Elec       q    Type
REMARK                         _______ _______ _______ _____ _____    ______ ____
ROOT
ATOM      1  C   UNL     1      86.479  62.143  88.790  0.00  0.00    +0.000 C 
ATOM      2  C   UNL     1      85.849  61.368  89.457  0.00  0.00    +0.000 C 
ENDROOT
BRANCH   2   3
ATOM      3  C   UNL     1      85.098  60.444  90.249  0.00  0.00    +0.000 A 
ATOM      4  C   UNL     1      83.736  60.661  90.474  0.00  0.00    +0.000 A 
ATOM      5  C   UNL     1      83.004  59.759  91.249  0.00  0.00    +0.000 A 
ATOM      6  C   UNL     1      83.632  58.642  91.800  0.00  0.00    +0.000 A 
ATOM      7  C   UNL     1      84.992  58.424  91.577  0.00  0.00    +0.000 A 
ATOM      8  C   UNL     1      85.725  59.325  90.801  0.00  0.00    +0.000 A 
ENDBRANCH   2   3
BRANCH   1  10
ATOM      9  C   UNL     1      88.277  63.853  88.435  0.00  0.00    +0.000 A 
ATOM     10  C   UNL     1      87.231  63.063  87.997  0.00  0.00    +0.000 A 
ATOM     11  S   UNL     1      86.908  63.307  86.332  0.00  0.00    +0.000 S 
ATOM     12  C   UNL     1      88.161  64.462  86.191  0.00  0.00    +0.000 A 
ATOM     13  C   UNL     1      88.813  64.661  87.388  0.00  0.00    +0.000 A 
BRANCH   9  15
ATOM     14  C   UNL     1      89.184  63.872  90.907  0.00  0.00    +0.000 C 
ATOM     15  C   UNL     1      88.771  63.864  89.779  0.00  0.00    +0.000 C 
ENDBRANCH   9  15
ENDBRANCH   1  10
TORSDOF 3
ENDMDL
