MODEL 1
REMARK VINA RESULT:      -5.0      0.000      0.000
REMARK  Name = *****
REMARK  5 active torsions:
REMARK  status: ('A' for Active; 'I' for Inactive)
REMARK    1  A    between atoms: C_1  and  C_2
REMARK    2  A    between atoms: C_7  and  O_8
REMARK    3  A    between atoms: O_8  and  C_9
REMARK    4  A    between atoms: C_9  and  C_11
REMARK    5  A    between atoms: C_13  and  C_17
REMARK                            x       y       z     vdW  Elec       q    Type
REMARK                         _______ _______ _______ _____ _____    ______ ____
ROOT
ATOM      1  C   UNL     1     102.065 126.149  84.129  0.00  0.00    +0.000 C 
ATOM      2  O   UNL     1     101.907 125.249  84.938  0.00  0.00    +0.000 OA
ENDROOT
BRANCH   1   3
ATOM      3  C   UNL     1     100.956 127.038  83.677  0.00  0.00    +0.000 A 
ATOM      4  C   UNL     1     100.848 128.380  84.074  0.00  0.00    +0.000 A 
ATOM      5  C   UNL     1      99.785 129.180  83.615  0.00  0.00    +0.000 A 
ATOM      6  C   UNL     1      98.823 128.612  82.765  0.00  0.00    +0.000 A 
ATOM      7  C   UNL     1      98.926 127.279  82.368  0.00  0.00    +0.000 A 
ATOM      8  C   UNL     1      99.988 126.497  82.821  0.00  0.00    +0.000 A 
BRANCH   5   9
ATOM      9  C   UNL     1      99.657 130.615  84.065  0.00  0.00    +0.000 C 
ATOM     10  F   UNL     1     100.809 131.107  84.601  0.00  0.00    +0.000 F 
ATOM     11  F   UNL     1      99.325 131.467  83.055  0.00  0.00    +0.000 F 
ATOM     12  F   UNL     1      98.701 130.773  85.020  0.00  0.00    +0.000 F 
ENDBRANCH   5   9
ENDBRANCH   1   3
BRANCH   1  13
ATOM     13  O   UNL     1     103.235 126.508  83.487  0.00  0.00    +0.000 OA
BRANCH  13  20
ATOM     14  C   UNL     1     103.211 127.361  80.736  0.00  0.00    +0.000 C 
ATOM     15  C   UNL     1     103.667 125.997  81.159  0.00  0.00    +0.000 A 
ATOM     16  C   UNL     1     104.105 125.068  80.206  0.00  0.00    +0.000 A 
ATOM     17  C   UNL     1     104.520 123.791  80.596  0.00  0.00    +0.000 A 
ATOM     18  C   UNL     1     104.502 123.425  81.942  0.00  0.00    +0.000 A 
ATOM     19  C   UNL     1     104.060 124.331  82.903  0.00  0.00    +0.000 A 
ATOM     20  C   UNL     1     103.630 125.598  82.501  0.00  0.00    +0.000 A 
ENDBRANCH  13  20
ENDBRANCH   1  13
TORSDOF 4
ENDMDL
