MODEL 1
REMARK VINA RESULT:      -4.7      0.000      0.000
REMARK  Name = *****
REMARK  6 active torsions:
REMARK  status: ('A' for Active; 'I' for Inactive)
REMARK    1  A    between atoms: C_1  and  C_2
REMARK    2  A    between atoms: C_3  and  C_18
REMARK    3  A    between atoms: C_5  and  O_8
REMARK    4  A    between atoms: O_8  and  C_9
REMARK    5  A    between atoms: C_9  and  C_11
REMARK    6  A    between atoms: C_16  and  C_17
REMARK                            x       y       z     vdW  Elec       q    Type
REMARK                         _______ _______ _______ _____ _____    ______ ____
ROOT
ATOM      1  O   UNL     1      88.206  69.239  85.461  0.00  0.00    +0.000 OA
ENDROOT
BRANCH   1   6
ATOM      2  C   UNL     1      88.597  64.255  88.188  0.00  0.00    +0.000 C 
ATOM      3  C   UNL     1      88.479  65.579  87.482  0.00  0.00    +0.000 A 
ATOM      4  C   UNL     1      87.290  66.338  87.538  0.00  0.00    +0.000 A 
ATOM      5  C   UNL     1      87.229  67.570  86.867  0.00  0.00    +0.000 A 
ATOM      6  C   UNL     1      88.337  68.035  86.163  0.00  0.00    +0.000 A 
ATOM      7  C   UNL     1      89.503  67.283  86.076  0.00  0.00    +0.000 A 
ATOM      8  C   UNL     1      89.575  66.061  86.743  0.00  0.00    +0.000 A 
ATOM      9  C   UNL     1      86.090  65.860  88.308  0.00  0.00    +0.000 C 
ENDBRANCH   1   6
BRANCH   1  10
ATOM     10  C   UNL     1      88.573  70.369  86.172  0.00  0.00    +0.000 C 
ATOM     11  O   UNL     1      89.693  70.837  86.301  0.00  0.00    +0.000 OA
BRANCH  10  12
ATOM     12  C   UNL     1      87.340  70.977  86.748  0.00  0.00    +0.000 A 
ATOM     13  C   UNL     1      86.371  71.511  85.881  0.00  0.00    +0.000 A 
ATOM     14  C   UNL     1      85.195  72.063  86.389  0.00  0.00    +0.000 A 
ATOM     15  C   UNL     1      84.973  72.080  87.761  0.00  0.00    +0.000 A 
ATOM     16  C   UNL     1      85.926  71.547  88.631  0.00  0.00    +0.000 A 
ATOM     17  C   UNL     1      87.123  70.996  88.141  0.00  0.00    +0.000 A 
ATOM     18  C   UNL     1      88.114  70.430  89.120  0.00  0.00    +0.000 C 
ENDBRANCH  10  12
ENDBRANCH   1  10
TORSDOF 3
ENDMDL
