MODEL 1
REMARK VINA RESULT:      -4.1      0.000      0.000
REMARK  Name = *****
REMARK  3 active torsions:
REMARK  status: ('A' for Active; 'I' for Inactive)
REMARK    1  A    between atoms: C_5  and  C_7
REMARK    2  A    between atoms: C_7  and  C_8
REMARK    3  A    between atoms: C_8  and  C_9
REMARK                            x       y       z     vdW  Elec       q    Type
REMARK                         _______ _______ _______ _____ _____    ______ ____
ROOT
ATOM      1  C   UNL     1     103.589 128.519  82.540  0.00  0.00    +0.000 C 
ENDROOT
BRANCH   1   6
ATOM      2  C   UNL     1     104.135 125.630  79.984  0.00  0.00    +0.000 C 
ATOM      3  C   UNL     1     103.911 124.514  81.004  0.00  0.00    +0.000 C 
ATOM      4  C   UNL     1     104.285 124.922  82.397  0.00  0.00    +0.000 C 
ATOM      5  C   UNL     1     104.491 126.197  82.761  0.00  0.00    +0.000 C 
ATOM      6  C   UNL     1     104.332 127.373  81.824  0.00  0.00    +0.000 C 
ATOM      7  C   UNL     1     103.629 126.972  80.511  0.00  0.00    +0.000 C 
ENDBRANCH   1   6
BRANCH   1   8
ATOM      8  C   UNL     1     102.743 128.042  83.726  0.00  0.00    +0.000 C 
BRANCH   8   9
ATOM      9  C   UNL     1     101.279 127.967  83.368  0.00  0.00    +0.000 A 
ATOM     10  C   UNL     1     100.755 126.826  82.746  0.00  0.00    +0.000 A 
ATOM     11  C   UNL     1      99.404 126.766  82.402  0.00  0.00    +0.000 A 
ATOM     12  C   UNL     1      98.566 127.847  82.670  0.00  0.00    +0.000 A 
ATOM     13  C   UNL     1      99.079 128.989  83.282  0.00  0.00    +0.000 A 
ATOM     14  C   UNL     1     100.429 129.052  83.628  0.00  0.00    +0.000 A 
ENDBRANCH   8   9
ENDBRANCH   1   8
TORSDOF 3
ENDMDL
