MODEL 1
REMARK VINA RESULT:      -4.7      0.000      0.000
REMARK  Name = *****
REMARK  2 active torsions:
REMARK  status: ('A' for Active; 'I' for Inactive)
REMARK    1  A    between atoms: C_5  and  C_8
REMARK    2  A    between atoms: C_9  and  C_10
REMARK                            x       y       z     vdW  Elec       q    Type
REMARK                         _______ _______ _______ _____ _____    ______ ____
ROOT
ATOM      1  C   UNL     1     102.269 126.489  81.905  0.00  0.00    +0.000 C 
ATOM      2  C   UNL     1     102.897 125.303  81.989  0.00  0.00    +0.000 C 
ENDROOT
BRANCH   1   7
ATOM      3  C   UNL     1      98.921 128.662  83.618  0.00  0.00    +0.000 C 
ATOM      4  C   UNL     1     100.331 129.268  83.635  0.00  0.00    +0.000 C 
ATOM      5  C   UNL     1     101.452 128.272  83.538  0.00  0.00    +0.000 C 
ATOM      6  C   UNL     1     101.464 126.977  84.302  0.00  0.00    +0.000 C 
ATOM      7  C   UNL     1     101.205 126.966  82.807  0.00  0.00    +0.000 C 
ATOM      8  C   UNL     1      99.823 126.729  82.345  0.00  0.00    +0.000 C 
ATOM      9  C   UNL     1      98.770 127.484  82.699  0.00  0.00    +0.000 C 
ENDBRANCH   1   7
BRANCH   2  10
ATOM     10  C   UNL     1     103.945 124.846  81.067  0.00  0.00    +0.000 A 
ATOM     11  C   UNL     1     104.552 125.702  80.139  0.00  0.00    +0.000 A 
ATOM     12  C   UNL     1     105.568 125.236  79.301  0.00  0.00    +0.000 A 
ATOM     13  C   UNL     1     105.995 123.913  79.389  0.00  0.00    +0.000 A 
ATOM     14  C   UNL     1     105.412 123.057  80.319  0.00  0.00    +0.000 A 
ATOM     15  C   UNL     1     104.396 123.523  81.158  0.00  0.00    +0.000 A 
ENDBRANCH   2  10
TORSDOF 2
ENDMDL
