MODEL 1
REMARK VINA RESULT:      -4.5      0.000      0.000
REMARK  Name = *****
REMARK  2 active torsions:
REMARK  status: ('A' for Active; 'I' for Inactive)
REMARK    1  A    between atoms: C_7  and  C_8
REMARK    2  A    between atoms: C_9  and  C_10
REMARK                            x       y       z     vdW  Elec       q    Type
REMARK                         _______ _______ _______ _____ _____    ______ ____
ROOT
ATOM      1  C   UNL     1     102.897 125.414  81.915  0.00  0.00    +0.000 C 
ATOM      2  C   UNL     1     102.035 126.180  82.251  0.00  0.00    +0.000 C 
ENDROOT
BRANCH   1   9
ATOM      3  C   UNL     1     105.714 126.205  81.446  0.00  0.00    +0.000 C 
ATOM      4  C   UNL     1     105.381 124.801  82.059  0.00  0.00    +0.000 C 
ATOM      5  C   UNL     1     106.257 123.876  81.146  0.00  0.00    +0.000 C 
ATOM      6  C   UNL     1     105.704 124.392  79.835  0.00  0.00    +0.000 C 
ATOM      7  C   UNL     1     105.370 125.834  80.021  0.00  0.00    +0.000 C 
ATOM      8  C   UNL     1     104.283 124.804  80.060  0.00  0.00    +0.000 C 
ATOM      9  C   UNL     1     103.951 124.491  81.504  0.00  0.00    +0.000 C 
ENDBRANCH   1   9
BRANCH   2  10
ATOM     10  C   UNL     1     101.004 127.091  82.644  0.00  0.00    +0.000 A 
ATOM     11  C   UNL     1      99.667 126.797  82.366  0.00  0.00    +0.000 A 
ATOM     12  C   UNL     1      98.662 127.688  82.748  0.00  0.00    +0.000 A 
ATOM     13  C   UNL     1      98.992 128.870  83.410  0.00  0.00    +0.000 A 
ATOM     14  C   UNL     1     100.326 129.164  83.691  0.00  0.00    +0.000 A 
ATOM     15  C   UNL     1     101.332 128.275  83.308  0.00  0.00    +0.000 A 
ENDBRANCH   2  10
TORSDOF 2
ENDMDL
