REMARK  Name = *****
REMARK  5 active torsions:
REMARK  status: ('A' for Active; 'I' for Inactive)
REMARK    1  A    between atoms: C_1  and  O_2
REMARK    2  A    between atoms: O_2  and  C_3
REMARK    3  A    between atoms: C_3  and  C_13
REMARK    4  A    between atoms: N_4  and  C_5
REMARK    5  A    between atoms: C_5  and  C_7
REMARK                            x       y       z     vdW  Elec       q    Type
REMARK                         _______ _______ _______ _____ _____    ______ ____
ROOT
ATOM      1  C   UNL     1       3.179   1.349  -0.603  0.00  0.00    +0.000 C 
ATOM      2  N   UNL     1       2.628   2.131  -1.480  0.00  0.00    +0.000 NA
ENDROOT
BRANCH   1   3
ATOM      3  C   UNL     1       4.639   1.058  -0.598  0.00  0.00    +0.000 A 
ATOM      4  C   UNL     1       5.195   0.066   0.222  0.00  0.00    +0.000 A 
ATOM      5  C   UNL     1       6.571  -0.175   0.200  0.00  0.00    +0.000 A 
ATOM      6  C   UNL     1       7.399   0.570  -0.640  0.00  0.00    +0.000 A 
ATOM      7  C   UNL     1       6.854   1.556  -1.461  0.00  0.00    +0.000 A 
ATOM      8  C   UNL     1       5.479   1.799  -1.441  0.00  0.00    +0.000 A 
ENDBRANCH   1   3
BRANCH   1  10
ATOM      9  C   UNL     1       1.981   1.493   1.421  0.00  0.00    +0.000 C 
ATOM     10  O   UNL     1       2.542   0.675   0.389  0.00  0.00    +0.000 OA
ENDBRANCH   1  10
BRANCH   2  11
ATOM     11  C   UNL     1       1.262   2.271  -1.489  0.00  0.00    +0.000 C 
ATOM     12  C   UNL     1       0.484   1.320  -2.031  0.00  0.00    +0.000 C 
BRANCH  11  13
ATOM     13  C   UNL     1       0.678   3.561  -1.039  0.00  0.00    +0.000 A 
ATOM     14  C   UNL     1      -0.555   3.628  -0.370  0.00  0.00    +0.000 A 
ATOM     15  C   UNL     1      -1.071   4.853   0.064  0.00  0.00    +0.000 A 
ATOM     16  C   UNL     1      -0.357   6.029  -0.158  0.00  0.00    +0.000 A 
ATOM     17  C   UNL     1       0.872   5.981  -0.810  0.00  0.00    +0.000 A 
ATOM     18  C   UNL     1       1.387   4.756  -1.243  0.00  0.00    +0.000 A 
ENDBRANCH  11  13
ENDBRANCH   2  11
TORSDOF 4
