REMARK  Name = *****
REMARK  2 active torsions:
REMARK  status: ('A' for Active; 'I' for Inactive)
REMARK    1  A    between atoms: C_4  and  C_9
REMARK    2  A    between atoms: C_10  and  C_11
REMARK                            x       y       z     vdW  Elec       q    Type
REMARK                         _______ _______ _______ _____ _____    ______ ____
ROOT
ATOM      1  C   UNL     1       1.589   0.001  -0.660  0.00  0.00    +0.000 C 
ATOM      2  C   UNL     1       1.146  -1.277   0.068  0.00  0.00    +0.000 C 
ATOM      3  C   UNL     1      -0.271  -1.157   0.562  0.00  0.00    +0.000 C 
ATOM      4  C   UNL     1      -0.561  -0.021   1.488  0.00  0.00    +0.000 C 
ATOM      5  C   UNL     1      -1.099  -0.015   0.074  0.00  0.00    +0.000 C 
ATOM      6  C   UNL     1      -0.281   1.128   0.576  0.00  0.00    +0.000 C 
ATOM      7  C   UNL     1       1.135   1.266   0.084  0.00  0.00    +0.000 C 
ATOM      8 CL   UNL     1      -2.783  -0.020  -0.219  0.00  0.00    +0.000 Cl
ENDROOT
BRANCH   4   9
ATOM      9  C   UNL     1      -1.451  -0.032   2.591  0.00  0.00    +0.000 C 
ATOM     10  C   UNL     1      -2.195  -0.040   3.534  0.00  0.00    +0.000 C 
BRANCH  10  11
ATOM     11  C   UNL     1      -3.081  -0.051   4.657  0.00  0.00    +0.000 A 
ATOM     12  C   UNL     1      -3.508  -1.265   5.200  0.00  0.00    +0.000 A 
ATOM     13  C   UNL     1      -4.370  -1.275   6.298  0.00  0.00    +0.000 A 
ATOM     14  C   UNL     1      -4.806  -0.072   6.853  0.00  0.00    +0.000 A 
ATOM     15  C   UNL     1      -4.382   1.142   6.311  0.00  0.00    +0.000 A 
ATOM     16  C   UNL     1      -3.519   1.153   5.213  0.00  0.00    +0.000 A 
ENDBRANCH  10  11
ENDBRANCH   4   9
TORSDOF 2
