MODEL 1
REMARK VINA RESULT:      -4.4      0.000      0.000
REMARK  Name = *****
REMARK  4 active torsions:
REMARK  status: ('A' for Active; 'I' for Inactive)
REMARK    1  A    between atoms: C_1  and  C_2
REMARK    2  A    between atoms: C_2  and  C_4
REMARK    3  A    between atoms: C_5  and  C_6
REMARK    4  A    between atoms: C_7  and  C_8
REMARK                            x       y       z     vdW  Elec       q    Type
REMARK                         _______ _______ _______ _____ _____    ______ ____
ROOT
ATOM      1  C   UNL     1     102.942 126.386  81.065  0.00  0.00    +0.000 C 
ATOM      2  C   UNL     1     101.997 126.052  81.958  0.00  0.00    +0.000 C 
ENDROOT
BRANCH   2   3
ATOM      3  C   UNL     1     101.059 127.012  82.560  0.00  0.00    +0.000 A 
ATOM      4  C   UNL     1     101.494 128.152  83.249  0.00  0.00    +0.000 A 
ATOM      5  C   UNL     1     100.571 129.056  83.780  0.00  0.00    +0.000 A 
ATOM      6  C   UNL     1      99.204 128.836  83.618  0.00  0.00    +0.000 A 
ATOM      7  C   UNL     1      98.760 127.715  82.921  0.00  0.00    +0.000 A 
ATOM      8  C   UNL     1      99.683 126.811  82.389  0.00  0.00    +0.000 A 
ENDBRANCH   2   3
BRANCH   1  10
ATOM      9  C   UNL     1     104.078 124.216  81.047  0.00  0.00    +0.000 C 
ATOM     10  C   UNL     1     103.856 125.419  80.494  0.00  0.00    +0.000 C 
BRANCH   9  12
ATOM     11  C   UNL     1     106.138 123.584  79.662  0.00  0.00    +0.000 C 
ATOM     12  C   UNL     1     104.978 123.189  80.536  0.00  0.00    +0.000 C 
ATOM     13  C   UNL     1     104.766 121.900  80.849  0.00  0.00    +0.000 C 
ENDBRANCH   9  12
ENDBRANCH   1  10
TORSDOF 3
ENDMDL
