REMARK  Name = *****
REMARK  7 active torsions:
REMARK  status: ('A' for Active; 'I' for Inactive)
REMARK    1  A    between atoms: C_1  and  O_2
REMARK    2  A    between atoms: O_2  and  C_3
REMARK    3  A    between atoms: C_6  and  C_9
REMARK    4  A    between atoms: C_9  and  C_10
REMARK    5  A    between atoms: C_10  and  C_11
REMARK    6  A    between atoms: C_14  and  O_17
REMARK    7  A    between atoms: O_17  and  C_18
REMARK                            x       y       z     vdW  Elec       q    Type
REMARK                         _______ _______ _______ _____ _____    ______ ____
ROOT
ATOM      1  C   UNL     1       5.289  -2.327  -4.374  0.00  0.00    +0.000 C 
ENDROOT
BRANCH   1   5
ATOM      2  C   UNL     1       3.134  -0.456  -1.124  0.00  0.00    +0.000 A 
ATOM      3  C   UNL     1       2.782  -1.735  -1.557  0.00  0.00    +0.000 A 
ATOM      4  C   UNL     1       3.483  -2.341  -2.606  0.00  0.00    +0.000 A 
ATOM      5  C   UNL     1       4.545  -1.678  -3.233  0.00  0.00    +0.000 A 
ATOM      6  C   UNL     1       4.888  -0.392  -2.802  0.00  0.00    +0.000 A 
ATOM      7  C   UNL     1       4.187   0.210  -1.754  0.00  0.00    +0.000 A 
BRANCH   2   9
ATOM      8  C   UNL     1       1.482  -0.406   0.584  0.00  0.00    +0.000 C 
ATOM      9  O   UNL     1       2.535   0.246  -0.114  0.00  0.00    +0.000 OA
ENDBRANCH   2   9
ENDBRANCH   1   5
BRANCH   1  10
ATOM     10  C   UNL     1       4.658  -1.988  -5.727  0.00  0.00    +0.000 C 
BRANCH  10  11
ATOM     11  C   UNL     1       5.405  -2.639  -6.865  0.00  0.00    +0.000 A 
ATOM     12  C   UNL     1       5.058  -3.923  -7.302  0.00  0.00    +0.000 A 
ATOM     13  C   UNL     1       5.766  -4.541  -8.340  0.00  0.00    +0.000 A 
ATOM     14  C   UNL     1       6.834  -3.882  -8.949  0.00  0.00    +0.000 A 
ATOM     15  C   UNL     1       7.184  -2.603  -8.512  0.00  0.00    +0.000 A 
ATOM     16  C   UNL     1       6.479  -1.984  -7.477  0.00  0.00    +0.000 A 
BRANCH  14  17
ATOM     17  O   UNL     1       7.607  -4.371  -9.966  0.00  0.00    +0.000 OA
ATOM     18  C   UNL     1       7.303  -5.679 -10.433  0.00  0.00    +0.000 C 
ENDBRANCH  14  17
ENDBRANCH  10  11
ENDBRANCH   1  10
TORSDOF 5
