MODEL 1
REMARK VINA RESULT:      -4.6      0.000      0.000
REMARK  Name = *****
REMARK  2 active torsions:
REMARK  status: ('A' for Active; 'I' for Inactive)
REMARK    1  A    between atoms: C_4  and  S_7
REMARK    2  A    between atoms: S_7  and  C_8
REMARK                            x       y       z     vdW  Elec       q    Type
REMARK                         _______ _______ _______ _____ _____    ______ ____
ROOT
ATOM      1  C   UNL     1     102.782 127.262  83.137  0.00  0.00    +0.000 C 
ATOM      2  C   UNL     1     101.302 127.505  83.037  0.00  0.00    +0.000 A 
ATOM      3  C   UNL     1     100.375 126.659  82.426  0.00  0.00    +0.000 A 
ATOM      4  C   UNL     1      99.025 127.024  82.395  0.00  0.00    +0.000 A 
ATOM      5  C   UNL     1      98.600 128.231  82.966  0.00  0.00    +0.000 A 
ATOM      6  C   UNL     1      99.522 129.086  83.569  0.00  0.00    +0.000 A 
ATOM      7  C   UNL     1     100.860 128.707  83.591  0.00  0.00    +0.000 A 
ATOM      8  C   UNL     1     101.934 129.517  84.168  0.00  0.00    +0.000 C 
ATOM      9  O   UNL     1     101.776 130.603  84.698  0.00  0.00    +0.000 OA
ATOM     10  S   UNL     1     103.489 128.732  83.976  0.00  0.00    +0.000 S 
ENDROOT
BRANCH   1  11
ATOM     11  S   UNL     1     103.154 125.745  84.086  0.00  0.00    +0.000 S 
BRANCH  11  15
ATOM     12  C   UNL     1     104.777 123.129  80.696  0.00  0.00    +0.000 A 
ATOM     13  C   UNL     1     104.277 124.401  80.421  0.00  0.00    +0.000 A 
ATOM     14  C   UNL     1     103.784 125.197  81.456  0.00  0.00    +0.000 A 
ATOM     15  C   UNL     1     103.781 124.720  82.771  0.00  0.00    +0.000 A 
ATOM     16  C   UNL     1     104.297 123.449  83.043  0.00  0.00    +0.000 A 
ATOM     17  C   UNL     1     104.790 122.654  82.007  0.00  0.00    +0.000 A 
ENDBRANCH  11  15
ENDBRANCH   1  11
TORSDOF 2
ENDMDL
