MODEL 1
REMARK VINA RESULT:      -2.9      0.000      0.000
REMARK  Name = *****
REMARK  2 active torsions:
REMARK  status: ('A' for Active; 'I' for Inactive)
REMARK    1  A    between atoms: C_4  and  S_7
REMARK    2  A    between atoms: S_7  and  C_8
REMARK                            x       y       z     vdW  Elec       q    Type
REMARK                         _______ _______ _______ _____ _____    ______ ____
ROOT
ATOM      1  S   UNL     1     101.247 126.343  82.364  0.00  0.00    +0.000 S 
ENDROOT
BRANCH   1   5
ATOM      2  C   UNL     1      99.372 129.566  83.895  0.00  0.00    +0.000 C 
ATOM      3  C   UNL     1     100.876 129.366  83.992  0.00  0.00    +0.000 C 
ATOM      4  S   UNL     1     101.336 127.901  84.959  0.00  0.00    +0.000 S 
ATOM      5  C   UNL     1     100.517 126.595  84.005  0.00  0.00    +0.000 C 
ATOM      6  S   UNL     1      98.721 126.855  83.903  0.00  0.00    +0.000 S 
ATOM      7  C   UNL     1      98.658 128.483  83.101  0.00  0.00    +0.000 C 
ENDBRANCH   1   5
BRANCH   1   8
ATOM      8  C   UNL     1     103.003 126.502  82.787  0.00  0.00    +0.000 C 
ATOM      9  S   UNL     1     103.932 124.959  82.577  0.00  0.00    +0.000 S 
ATOM     10  C   UNL     1     103.880 124.777  80.772  0.00  0.00    +0.000 C 
ATOM     11  C   UNL     1     104.515 125.948  80.038  0.00  0.00    +0.000 C 
ATOM     12  C   UNL     1     103.757 127.257  80.199  0.00  0.00    +0.000 C 
ATOM     13  S   UNL     1     103.779 127.887  81.901  0.00  0.00    +0.000 S 
ENDBRANCH   1   8
TORSDOF 2
ENDMDL
