MODEL 1
REMARK VINA RESULT:      -4.4      0.000      0.000
REMARK  Name = *****
REMARK  4 active torsions:
REMARK  status: ('A' for Active; 'I' for Inactive)
REMARK    1  A    between atoms: C_4  and  S_7
REMARK    2  A    between atoms: S_7  and  O_8
REMARK    3  A    between atoms: O_8  and  C_9
REMARK    4  A    between atoms: C_9  and  C_10
REMARK                            x       y       z     vdW  Elec       q    Type
REMARK                         _______ _______ _______ _____ _____    ______ ____
ROOT
ATOM      1  C   UNL     1     103.022 125.795  83.182  0.00  0.00    +0.000 A 
ATOM      2  C   UNL     1     103.621 124.580  82.835  0.00  0.00    +0.000 A 
ATOM      3  C   UNL     1     104.061 124.343  81.535  0.00  0.00    +0.000 A 
ATOM      4  C   UNL     1     103.915 125.321  80.563  0.00  0.00    +0.000 A 
ATOM      5  C   UNL     1     103.329 126.537  80.891  0.00  0.00    +0.000 A 
ATOM      6  C   UNL     1     102.891 126.771  82.191  0.00  0.00    +0.000 A 
ATOM      7  F   UNL     1     102.328 127.949  82.492  0.00  0.00    +0.000 F 
ATOM      8  F   UNL     1     103.185 127.485  79.955  0.00  0.00    +0.000 F 
ATOM      9  F   UNL     1     104.336 125.094  79.311  0.00  0.00    +0.000 F 
ATOM     10  F   UNL     1     104.627 123.168  81.225  0.00  0.00    +0.000 F 
ATOM     11  F   UNL     1     103.772 123.626  83.764  0.00  0.00    +0.000 F 
ENDROOT
BRANCH   1  12
ATOM     12  C   UNL     1     102.589 126.060  84.593  0.00  0.00    +0.000 C 
BRANCH  12  13
ATOM     13  O   UNL     1     101.341 125.402  84.789  0.00  0.00    +0.000 OA
BRANCH  13  14
ATOM     14  S   UNL     1     100.326 126.164  85.870  0.00  0.00    +0.000 S 
BRANCH  14  18
ATOM     15  C   UNL     1      99.328 129.894  83.385  0.00  0.00    +0.000 A 
ATOM     16  C   UNL     1     100.055 130.032  84.566  0.00  0.00    +0.000 A 
ATOM     17  C   UNL     1     100.367 128.905  85.331  0.00  0.00    +0.000 A 
ATOM     18  C   UNL     1      99.949 127.634  84.924  0.00  0.00    +0.000 A 
ATOM     19  C   UNL     1      99.227 127.503  83.731  0.00  0.00    +0.000 A 
ATOM     20  C   UNL     1      98.916 128.630  82.966  0.00  0.00    +0.000 A 
ENDBRANCH  14  18
ENDBRANCH  13  14
ENDBRANCH  12  13
ENDBRANCH   1  12
TORSDOF 4
ENDMDL
