MODEL 1
REMARK VINA RESULT:      -3.9      0.000      0.000
REMARK  Name = *****
REMARK  4 active torsions:
REMARK  status: ('A' for Active; 'I' for Inactive)
REMARK    1  A    between atoms: C_4  and  C_7
REMARK    2  A    between atoms: C_7  and  S_8
REMARK    3  A    between atoms: S_8  and  C_9
REMARK    4  A    between atoms: C_10  and  C_14
REMARK                            x       y       z     vdW  Elec       q    Type
REMARK                         _______ _______ _______ _____ _____    ______ ____
ROOT
ATOM      1  S   UNL     1     103.205 125.844  83.803  0.00  0.00    +0.000 S 
ENDROOT
BRANCH   1   2
ATOM      2  C   UNL     1     103.811 124.976  82.397  0.00  0.00    +0.000 A 
ATOM      3  C   UNL     1     104.378 123.716  82.378  0.00  0.00    +0.000 A 
ATOM      4  S   UNL     1     104.867 123.282  80.788  0.00  0.00    +0.000 S 
ATOM      5  C   UNL     1     104.332 124.769  80.141  0.00  0.00    +0.000 A 
ATOM      6  C   UNL     1     103.793 125.586  81.109  0.00  0.00    +0.000 A 
BRANCH   3   7
ATOM      7  C   UNL     1     104.607 122.759  83.438  0.00  0.00    +0.000 C 
ATOM      8  O   UNL     1     103.772 122.358  84.246  0.00  0.00    +0.000 OA
ENDBRANCH   3   7
ENDBRANCH   1   2
BRANCH   1   9
ATOM      9  C   UNL     1     102.759 127.431  83.035  0.00  0.00    +0.000 C 
BRANCH   9  13
ATOM     10  C   UNL     1      98.490 128.038  82.955  0.00  0.00    +0.000 A 
ATOM     11  C   UNL     1      99.036 126.867  82.432  0.00  0.00    +0.000 A 
ATOM     12  C   UNL     1     100.417 126.666  82.457  0.00  0.00    +0.000 A 
ATOM     13  C   UNL     1     101.266 127.635  83.012  0.00  0.00    +0.000 A 
ATOM     14  C   UNL     1     100.706 128.814  83.526  0.00  0.00    +0.000 A 
ATOM     15  C   UNL     1      99.324 129.012  83.500  0.00  0.00    +0.000 A 
ENDBRANCH   9  13
ENDBRANCH   1   9
TORSDOF 4
ENDMDL
