MODEL 1
REMARK VINA RESULT:      -4.3      0.000      0.000
REMARK  Name = *****
REMARK  4 active torsions:
REMARK  status: ('A' for Active; 'I' for Inactive)
REMARK    1  A    between atoms: C_4  and  C_7
REMARK    2  A    between atoms: C_7  and  O_8
REMARK    3  A    between atoms: O_8  and  C_9
REMARK    4  A    between atoms: C_9  and  C_11
REMARK                            x       y       z     vdW  Elec       q    Type
REMARK                         _______ _______ _______ _____ _____    ______ ____
ROOT
ATOM      1  C   UNL     1      87.586  63.617  86.217  0.00  0.00    +0.000 C 
ATOM      2  O   UNL     1      86.587  63.675  85.525  0.00  0.00    +0.000 OA
ENDROOT
BRANCH   1   3
ATOM      3  C   UNL     1      88.783  64.430  86.006  0.00  0.00    +0.000 A 
ATOM      4  C   UNL     1      88.872  65.702  86.577  0.00  0.00    +0.000 A 
ATOM      5  C   UNL     1      90.011  66.483  86.362  0.00  0.00    +0.000 A 
ATOM      6  C   UNL     1      91.057  65.996  85.577  0.00  0.00    +0.000 A 
ATOM      7  C   UNL     1      90.967  64.725  85.006  0.00  0.00    +0.000 A 
ATOM      8  C   UNL     1      89.830  63.940  85.218  0.00  0.00    +0.000 A 
ATOM      9 CL   UNL     1      89.781  62.377  84.484  0.00  0.00    +0.000 Cl
ATOM     10 CL   UNL     1      87.617  66.361  87.566  0.00  0.00    +0.000 Cl
ENDBRANCH   1   3
BRANCH   1  11
ATOM     11  O   UNL     1      87.809  62.828  87.292  0.00  0.00    +0.000 OA
BRANCH  11  12
ATOM     12  C   UNL     1      86.760  62.881  88.260  0.00  0.00    +0.000 C 
BRANCH  12  16
ATOM     13  C   UNL     1      88.434  64.340  91.954  0.00  0.00    +0.000 A 
ATOM     14  C   UNL     1      89.275  63.976  90.904  0.00  0.00    +0.000 A 
ATOM     15  C   UNL     1      88.735  63.506  89.706  0.00  0.00    +0.000 A 
ATOM     16  C   UNL     1      87.346  63.406  89.543  0.00  0.00    +0.000 A 
ATOM     17  C   UNL     1      86.509  63.761  90.612  0.00  0.00    +0.000 A 
ATOM     18  C   UNL     1      87.052  64.230  91.810  0.00  0.00    +0.000 A 
ENDBRANCH  12  16
ENDBRANCH  11  12
ENDBRANCH   1  11
TORSDOF 4
ENDMDL
