MODEL 1
REMARK VINA RESULT:      -5.3      0.000      0.000
REMARK  Name = *****
REMARK  5 active torsions:
REMARK  status: ('A' for Active; 'I' for Inactive)
REMARK    1  A    between atoms: C_1  and  C_2
REMARK    2  A    between atoms: C_3  and  C_19
REMARK    3  A    between atoms: C_4  and  O_8
REMARK    4  A    between atoms: O_8  and  C_9
REMARK    5  A    between atoms: C_9  and  C_11
REMARK                            x       y       z     vdW  Elec       q    Type
REMARK                         _______ _______ _______ _____ _____    ______ ____
ROOT
ATOM      1  C   UNL     1     102.639 125.639  83.556  0.00  0.00    +0.000 C 
ATOM      2  O   UNL     1     102.227 125.190  84.615  0.00  0.00    +0.000 OA
ENDROOT
BRANCH   1   3
ATOM      3  C   UNL     1     103.422 124.822  82.606  0.00  0.00    +0.000 A 
ATOM      4  C   UNL     1     104.111 123.672  82.998  0.00  0.00    +0.000 A 
ATOM      5  C   UNL     1     104.844 122.931  82.074  0.00  0.00    +0.000 A 
ATOM      6  C   UNL     1     104.891 123.353  80.752  0.00  0.00    +0.000 A 
ATOM      7  C   UNL     1     104.226 124.503  80.340  0.00  0.00    +0.000 A 
ATOM      8  C   UNL     1     103.492 125.245  81.269  0.00  0.00    +0.000 A 
ATOM      9  F   UNL     1     105.596 122.645  79.860  0.00  0.00    +0.000 F 
ATOM     10  F   UNL     1     104.113 123.263  84.274  0.00  0.00    +0.000 F 
ENDBRANCH   1   3
BRANCH   1  11
ATOM     11  O   UNL     1     102.555 126.937  83.093  0.00  0.00    +0.000 OA
BRANCH  11  15
ATOM     12  C   UNL     1      99.363 130.598  84.127  0.00  0.00    +0.000 C 
ATOM     13  C   UNL     1      99.704 129.247  83.562  0.00  0.00    +0.000 A 
ATOM     14  C   UNL     1     101.014 128.724  83.622  0.00  0.00    +0.000 A 
ATOM     15  C   UNL     1     101.257 127.470  83.032  0.00  0.00    +0.000 A 
ATOM     16  C   UNL     1     100.232 126.708  82.471  0.00  0.00    +0.000 A 
ATOM     17  C   UNL     1      98.940 127.218  82.442  0.00  0.00    +0.000 A 
ATOM     18  C   UNL     1      98.680 128.480  82.979  0.00  0.00    +0.000 A 
ATOM     19  C   UNL     1     102.150 129.498  84.234  0.00  0.00    +0.000 C 
ENDBRANCH  11  15
ENDBRANCH   1  11
TORSDOF 3
ENDMDL
