REMARK  Name = *****
REMARK  3 active torsions:
REMARK  status: ('A' for Active; 'I' for Inactive)
REMARK    1  A    between atoms: C_4  and  C_7
REMARK    2  A    between atoms: C_8  and  C_9
REMARK    3  A    between atoms: C_11  and  S_15
REMARK                            x       y       z     vdW  Elec       q    Type
REMARK                         _______ _______ _______ _____ _____    ______ ____
ROOT
ATOM      1  C   UNL     1      -2.787   0.450  -0.252  0.00  0.00    +0.000 C 
ATOM      2  C   UNL     1      -3.701  -0.515  -0.446  0.00  0.00    +0.000 C 
ENDROOT
BRANCH   1   6
ATOM      3  C   UNL     1       1.415  -0.180   0.252  0.00  0.00    +0.000 A 
ATOM      4  C   UNL     1       0.703  -0.981  -0.638  0.00  0.00    +0.000 A 
ATOM      5  C   UNL     1      -0.671  -0.791  -0.807  0.00  0.00    +0.000 A 
ATOM      6  C   UNL     1      -1.350   0.195  -0.080  0.00  0.00    +0.000 A 
ATOM      7  C   UNL     1      -0.620   1.006   0.800  0.00  0.00    +0.000 A 
ATOM      8  C   UNL     1       0.754   0.816   0.969  0.00  0.00    +0.000 A 
ENDBRANCH   1   6
BRANCH   2   9
ATOM      9  C   UNL     1      -5.140  -0.259  -0.601  0.00  0.00    +0.000 A 
ATOM     10  C   UNL     1      -5.632   0.834  -1.329  0.00  0.00    +0.000 A 
ATOM     11  C   UNL     1      -7.009   1.029  -1.482  0.00  0.00    +0.000 A 
ATOM     12  C   UNL     1      -7.903   0.125  -0.905  0.00  0.00    +0.000 A 
ATOM     13  C   UNL     1      -7.426  -0.975  -0.193  0.00  0.00    +0.000 A 
ATOM     14  C   UNL     1      -6.051  -1.169  -0.049  0.00  0.00    +0.000 A 
BRANCH  11  15
ATOM     15  S   UNL     1      -7.634   2.426  -2.392  0.00  0.00    +0.000 S 
ATOM     16  H   UNL     1      -6.592   3.164  -2.861  0.00  0.00    +0.000 HD
ENDBRANCH  11  15
ENDBRANCH   2   9
TORSDOF 3
