MODEL 1
REMARK VINA RESULT:      -4.9      0.000      0.000
REMARK  Name = *****
REMARK  4 active torsions:
REMARK  status: ('A' for Active; 'I' for Inactive)
REMARK    1  A    between atoms: C_1  and  C_2
REMARK    2  A    between atoms: C_2  and  C_4
REMARK    3  A    between atoms: C_7  and  C_10
REMARK    4  A    between atoms: C_11  and  C_12
REMARK                            x       y       z     vdW  Elec       q    Type
REMARK                         _______ _______ _______ _____ _____    ______ ____
ROOT
ATOM      1  C   UNL     1     105.494 122.501  81.269  0.00  0.00    +0.000 A 
ATOM      2  C   UNL     1     105.197 123.330  80.183  0.00  0.00    +0.000 A 
ATOM      3  C   UNL     1     104.353 124.436  80.351  0.00  0.00    +0.000 A 
ATOM      4  C   UNL     1     103.787 124.723  81.599  0.00  0.00    +0.000 A 
ATOM      5  C   UNL     1     104.101 123.899  82.687  0.00  0.00    +0.000 A 
ATOM      6  C   UNL     1     104.943 122.794  82.523  0.00  0.00    +0.000 A 
ENDROOT
BRANCH   1   8
ATOM      7  C   UNL     1     106.010 120.038  81.859  0.00  0.00    +0.000 C 
ATOM      8  C   UNL     1     106.386 121.310  81.145  0.00  0.00    +0.000 C 
ATOM      9  O   UNL     1     107.410 121.379  80.467  0.00  0.00    +0.000 OA
ENDBRANCH   1   8
BRANCH   4  10
ATOM     10  C   UNL     1     102.924 125.892  81.819  0.00  0.00    +0.000 C 
ATOM     11  C   UNL     1     101.931 125.928  82.722  0.00  0.00    +0.000 C 
BRANCH  11  12
ATOM     12  C   UNL     1     101.081 127.105  82.954  0.00  0.00    +0.000 A 
ATOM     13  C   UNL     1      99.717 127.119  82.621  0.00  0.00    +0.000 A 
ATOM     14  C   UNL     1      98.935 128.245  82.886  0.00  0.00    +0.000 A 
ATOM     15  C   UNL     1      99.511 129.353  83.494  0.00  0.00    +0.000 A 
ATOM     16  C   UNL     1     100.855 129.355  83.847  0.00  0.00    +0.000 A 
ATOM     17  C   UNL     1     101.638 128.229  83.582  0.00  0.00    +0.000 A 
ATOM     18  F   UNL     1      98.760 130.432  83.749  0.00  0.00    +0.000 F 
ENDBRANCH  11  12
ENDBRANCH   4  10
TORSDOF 3
ENDMDL
