MODEL 1
REMARK VINA RESULT:      -4.5      0.000      0.000
REMARK  Name = *****
REMARK  3 active torsions:
REMARK  status: ('A' for Active; 'I' for Inactive)
REMARK    1  A    between atoms: C_4  and  N_7
REMARK    2  A    between atoms: N_7  and  C_8
REMARK    3  A    between atoms: C_8  and  C_10
REMARK                            x       y       z     vdW  Elec       q    Type
REMARK                         _______ _______ _______ _____ _____    ______ ____
ROOT
ATOM      1  C   UNL     1      89.003  64.467  86.713  0.00  0.00    +0.000 C 
ATOM      2  S   UNL     1      89.132  63.750  85.203  0.00  0.00    +0.000 S 
ENDROOT
BRANCH   1   3
ATOM      3  C   UNL     1      88.946  65.957  86.809  0.00  0.00    +0.000 A 
ATOM      4  C   UNL     1      87.836  66.592  87.381  0.00  0.00    +0.000 A 
ATOM      5  C   UNL     1      87.792  67.987  87.435  0.00  0.00    +0.000 A 
ATOM      6  C   UNL     1      88.851  68.728  86.918  0.00  0.00    +0.000 A 
ATOM      7  C   UNL     1      89.956  68.105  86.345  0.00  0.00    +0.000 A 
ATOM      8  C   UNL     1      90.007  66.711  86.286  0.00  0.00    +0.000 A 
ATOM      9  F   UNL     1      88.804  70.065  86.970  0.00  0.00    +0.000 F 
ENDBRANCH   1   3
BRANCH   1  10
ATOM     10  N   UNL     1      88.974  63.878  87.972  0.00  0.00    +0.000 N 
ATOM     11  H   UNL     1      89.858  63.829  88.403  0.00  0.00    +0.000 HD
BRANCH  10  15
ATOM     12  C   UNL     1      85.890  62.443  90.485  0.00  0.00    +0.000 A 
ATOM     13  C   UNL     1      86.046  61.876  89.224  0.00  0.00    +0.000 A 
ATOM     14  C   UNL     1      87.058  62.324  88.364  0.00  0.00    +0.000 A 
ATOM     15  C   UNL     1      87.930  63.337  88.757  0.00  0.00    +0.000 A 
ATOM     16  C   UNL     1      87.750  63.910  90.027  0.00  0.00    +0.000 A 
ATOM     17  C   UNL     1      86.742  63.466  90.887  0.00  0.00    +0.000 A 
ENDBRANCH  10  15
ENDBRANCH   1  10
TORSDOF 3
ENDMDL
