REMARK  Name = *****
REMARK  4 active torsions:
REMARK  status: ('A' for Active; 'I' for Inactive)
REMARK    1  A    between atoms: C_4  and  O_7
REMARK    2  A    between atoms: O_7  and  C_8
REMARK    3  A    between atoms: C_8  and  C_10
REMARK    4  A    between atoms: C_15  and  C_16
REMARK                            x       y       z     vdW  Elec       q    Type
REMARK                         _______ _______ _______ _____ _____    ______ ____
ROOT
ATOM      1  C   UNL     1       4.682  -2.041  -0.321  0.00  0.00    +0.000 A 
ATOM      2  C   UNL     1       5.470  -0.934  -0.679  0.00  0.00    +0.000 A 
ATOM      3  C   UNL     1       6.719  -1.120  -1.270  0.00  0.00    +0.000 A 
ATOM      4  C   UNL     1       7.192  -2.408  -1.502  0.00  0.00    +0.000 A 
ATOM      5  C   UNL     1       6.414  -3.512  -1.148  0.00  0.00    +0.000 A 
ATOM      6  C   UNL     1       5.145  -3.347  -0.559  0.00  0.00    +0.000 A 
ENDROOT
BRANCH   6   7
ATOM      7  C   UNL     1       4.320  -4.563  -0.215  0.00  0.00    +0.000 C 
ATOM      8  F   UNL     1       3.023  -4.467  -0.614  0.00  0.00    +0.000 F 
ATOM      9  F   UNL     1       4.789  -5.694  -0.825  0.00  0.00    +0.000 F 
ATOM     10  F   UNL     1       4.317  -4.854   1.112  0.00  0.00    +0.000 F 
ENDBRANCH   6   7
BRANCH   1  11
ATOM     11  C   UNL     1       3.379  -1.807   0.348  0.00  0.00    +0.000 C 
ATOM     12  O   UNL     1       2.956  -2.494   1.260  0.00  0.00    +0.000 OA
BRANCH  11  13
ATOM     13  O   UNL     1       2.757  -0.755  -0.236  0.00  0.00    +0.000 OA
BRANCH  13  17
ATOM     14  C   UNL     1      -1.275   0.564  -0.283  0.00  0.00    +0.000 C 
ATOM     15  C   UNL     1      -1.017  -0.912   0.010  0.00  0.00    +0.000 C 
ATOM     16  C   UNL     1       0.398  -1.324  -0.384  0.00  0.00    +0.000 C 
ATOM     17  C   UNL     1       1.452  -0.433   0.280  0.00  0.00    +0.000 C 
ATOM     18  C   UNL     1       1.189   1.042  -0.032  0.00  0.00    +0.000 C 
ATOM     19  C   UNL     1      -0.223   1.460   0.365  0.00  0.00    +0.000 C 
ENDBRANCH  13  17
ENDBRANCH  11  13
ENDBRANCH   1  11
TORSDOF 4
