REMARK  Name = *****
REMARK  4 active torsions:
REMARK  status: ('A' for Active; 'I' for Inactive)
REMARK    1  A    between atoms: C_7  and  C_9
REMARK    2  A    between atoms: C_9  and  O_11
REMARK    3  A    between atoms: O_11  and  C_12
REMARK    4  A    between atoms: C_12  and  C_13
REMARK                            x       y       z     vdW  Elec       q    Type
REMARK                         _______ _______ _______ _____ _____    ______ ____
ROOT
ATOM      1  C   UNL     1      -0.520  -2.591   1.547  0.00  0.00    +0.000 C 
ATOM      2  O   UNL     1      -1.301  -2.386   2.471  0.00  0.00    +0.000 OA
ENDROOT
BRANCH   1   9
ATOM      3  C   UNL     1      -1.267   0.306  -0.944  0.00  0.00    +0.000 C 
ATOM      4  C   UNL     1       0.145   0.756  -1.383  0.00  0.00    +0.000 C 
ATOM      5  C   UNL     1       1.204   0.415  -0.320  0.00  0.00    +0.000 C 
ATOM      6  C   UNL     1       0.724   0.898   1.026  0.00  0.00    +0.000 C 
ATOM      7  C   UNL     1      -0.509   0.516   1.398  0.00  0.00    +0.000 C 
ATOM      8  C   UNL     1      -1.225  -0.409   0.427  0.00  0.00    +0.000 C 
ATOM      9  C   UNL     1      -0.444  -1.744   0.279  0.00  0.00    +0.000 C 
ATOM     10  S   UNL     1       1.324  -1.417  -0.218  0.00  0.00    +0.000 S 
ENDBRANCH   1   9
BRANCH   1  11
ATOM     11  O   UNL     1       0.317  -3.663   1.474  0.00  0.00    +0.000 OA
BRANCH  11  12
ATOM     12  C   UNL     1       0.288  -4.566   2.584  0.00  0.00    +0.000 C 
BRANCH  12  13
ATOM     13  C   UNL     1      -0.586  -5.745   2.248  0.00  0.00    +0.000 A 
ATOM     14  C   UNL     1      -0.163  -6.694   1.306  0.00  0.00    +0.000 A 
ATOM     15  C   UNL     1      -0.974  -7.785   0.988  0.00  0.00    +0.000 A 
ATOM     16  C   UNL     1      -2.216  -7.934   1.603  0.00  0.00    +0.000 A 
ATOM     17  C   UNL     1      -2.651  -6.990   2.532  0.00  0.00    +0.000 A 
ATOM     18  C   UNL     1      -1.842  -5.898   2.850  0.00  0.00    +0.000 A 
ENDBRANCH  12  13
ENDBRANCH  11  12
ENDBRANCH   1  11
TORSDOF 4
