MODEL 1
REMARK VINA RESULT:      -3.1      0.000      0.000
REMARK  Name = *****
REMARK  2 active torsions:
REMARK  status: ('A' for Active; 'I' for Inactive)
REMARK    1  A    between atoms: C_4  and  C_7
REMARK    2  A    between atoms: C_7  and  C_8
REMARK                            x       y       z     vdW  Elec       q    Type
REMARK                         _______ _______ _______ _____ _____    ______ ____
ROOT
ATOM      1  C   UNL     1     101.290 126.622  82.453  0.00  0.00    +0.000 C 
ENDROOT
BRANCH   1   5
ATOM      2  C   UNL     1      99.415 129.746  83.800  0.00  0.00    +0.000 C 
ATOM      3  C   UNL     1     100.818 129.380  84.263  0.00  0.00    +0.000 C 
ATOM      4  S   UNL     1     100.904 127.741  85.036  0.00  0.00    +0.000 S 
ATOM      5  C   UNL     1     100.338 126.686  83.660  0.00  0.00    +0.000 C 
ATOM      6  S   UNL     1      98.641 127.144  83.153  0.00  0.00    +0.000 S 
ATOM      7  C   UNL     1      98.889 128.876  82.668  0.00  0.00    +0.000 C 
ENDBRANCH   1   5
BRANCH   1   8
ATOM      8  C   UNL     1     102.787 126.654  82.813  0.00  0.00    +0.000 C 
ATOM      9  S   UNL     1     103.680 125.086  82.551  0.00  0.00    +0.000 S 
ATOM     10  C   UNL     1     103.620 124.963  80.742  0.00  0.00    +0.000 C 
ATOM     11  C   UNL     1     104.298 126.132  80.043  0.00  0.00    +0.000 C 
ATOM     12  C   UNL     1     103.603 127.469  80.253  0.00  0.00    +0.000 C 
ATOM     13  S   UNL     1     103.649 128.035  81.977  0.00  0.00    +0.000 S 
ENDBRANCH   1   8
TORSDOF 2
ENDMDL
