MODEL 1
REMARK VINA RESULT:      -5.0      0.000      0.000
REMARK  Name = *****
REMARK  2 active torsions:
REMARK  status: ('A' for Active; 'I' for Inactive)
REMARK    1  A    between atoms: C_3  and  C_8
REMARK    2  A    between atoms: C_9  and  C_10
REMARK                            x       y       z     vdW  Elec       q    Type
REMARK                         _______ _______ _______ _____ _____    ______ ____
ROOT
ATOM      1  C   UNL     1     101.985 125.927  82.357  0.00  0.00    +0.000 C 
ATOM      2  C   UNL     1     102.868 126.043  81.351  0.00  0.00    +0.000 C 
ENDROOT
BRANCH   1   5
ATOM      3  C   UNL     1      98.698 127.740  82.697  0.00  0.00    +0.000 A 
ATOM      4  C   UNL     1      99.657 126.765  82.399  0.00  0.00    +0.000 A 
ATOM      5  C   UNL     1     101.009 126.967  82.716  0.00  0.00    +0.000 A 
ATOM      6  C   UNL     1     101.389 128.175  83.311  0.00  0.00    +0.000 A 
ATOM      7  C   UNL     1     100.427 129.139  83.603  0.00  0.00    +0.000 A 
ATOM      8  C   UNL     1      99.086 128.931  83.304  0.00  0.00    +0.000 A 
ATOM      9  F   UNL     1     100.802 130.288  84.179  0.00  0.00    +0.000 F 
ENDBRANCH   1   5
BRANCH   2  10
ATOM     10  C   UNL     1     103.854 125.009  81.006  0.00  0.00    +0.000 A 
ATOM     11  C   UNL     1     104.658 125.095  79.859  0.00  0.00    +0.000 A 
ATOM     12  C   UNL     1     105.606 124.106  79.584  0.00  0.00    +0.000 A 
ATOM     13  C   UNL     1     105.759 123.040  80.459  0.00  0.00    +0.000 A 
ATOM     14  C   UNL     1     104.986 122.943  81.609  0.00  0.00    +0.000 A 
ATOM     15  C   UNL     1     104.038 123.931  81.886  0.00  0.00    +0.000 A 
ATOM     16  F   UNL     1     106.670 122.094  80.194  0.00  0.00    +0.000 F 
ENDBRANCH   2  10
TORSDOF 2
ENDMDL
