REMARK  Name = *****
REMARK  4 active torsions:
REMARK  status: ('A' for Active; 'I' for Inactive)
REMARK    1  A    between atoms: C_1  and  C_2
REMARK    2  A    between atoms: C_4  and  N_8
REMARK    3  A    between atoms: C_9  and  O_18
REMARK    4  A    between atoms: O_18  and  O_19
REMARK                            x       y       z     vdW  Elec       q    Type
REMARK                         _______ _______ _______ _____ _____    ______ ____
ROOT
ATOM      1  N   UNL     1      -1.864   2.383  -0.132  0.00  0.00    +0.000 N 
ATOM      2  C   UNL     1      -2.672   2.921   0.963  0.00  0.00    +0.000 C 
ATOM      3  C   UNL     1      -3.156   4.261   0.520  0.00  0.00    +0.000 C 
ATOM      4  C   UNL     1      -2.794   4.608  -0.719  0.00  0.00    +0.000 C 
ATOM      5  S   UNL     1      -1.878   3.323  -1.530  0.00  0.00    +0.000 S 
ATOM      6  O   UNL     1      -0.522   3.888  -1.820  0.00  0.00    +0.000 OA
ATOM      7  C   UNL     1      -3.160   5.903  -1.366  0.00  0.00    +0.000 C 
ATOM      8  C   UNL     1      -4.274   6.629  -0.602  0.00  0.00    +0.000 C 
ATOM      9  C   UNL     1      -4.045   6.580   0.911  0.00  0.00    +0.000 C 
ATOM     10  C   UNL     1      -3.954   5.139   1.429  0.00  0.00    +0.000 C 
ENDROOT
BRANCH   1  14
ATOM     11  C   UNL     1      -0.330  -1.417   2.708  0.00  0.00    +0.000 C 
ATOM     12  C   UNL     1      -0.239  -0.629   1.435  0.00  0.00    +0.000 A 
ATOM     13  C   UNL     1      -1.054   0.503   1.239  0.00  0.00    +0.000 A 
ATOM     14  C   UNL     1      -1.032   1.261   0.049  0.00  0.00    +0.000 A 
ATOM     15  C   UNL     1      -0.151   0.807  -0.950  0.00  0.00    +0.000 A 
ATOM     16  C   UNL     1       0.656  -0.324  -0.777  0.00  0.00    +0.000 A 
ATOM     17  C   UNL     1       0.608  -1.044   0.409  0.00  0.00    +0.000 A 
ENDBRANCH   1  14
BRANCH   2  18
ATOM     18  O   UNL     1      -3.784   2.073   1.309  0.00  0.00    +0.000 OA
BRANCH  18  19
ATOM     19  O   UNL     1      -4.503   1.732   0.076  0.00  0.00    +0.000 OA
ATOM     20  H   UNL     1      -5.258   1.160   0.289  0.00  0.00    +0.000 HD
ENDBRANCH  18  19
ENDBRANCH   2  18
TORSDOF 3
