MODEL 1
REMARK VINA RESULT:      -5.0      0.000      0.000
REMARK  Name = *****
REMARK  4 active torsions:
REMARK  status: ('A' for Active; 'I' for Inactive)
REMARK    1  A    between atoms: C_4  and  C_7
REMARK    2  A    between atoms: C_7  and  C_8
REMARK    3  A    between atoms: C_8  and  C_9
REMARK    4  A    between atoms: C_10  and  N_18
REMARK                            x       y       z     vdW  Elec       q    Type
REMARK                         _______ _______ _______ _____ _____    ______ ____
ROOT
ATOM      1  C   UNL     1     100.738 127.538  83.151  0.00  0.00    +0.000 A 
ATOM      2  C   UNL     1      99.393 127.781  82.777  0.00  0.00    +0.000 A 
ATOM      3  C   UNL     1      98.769 129.014  83.067  0.00  0.00    +0.000 A 
ATOM      4  C   UNL     1      99.449 130.058  83.712  0.00  0.00    +0.000 A 
ATOM      5  C   UNL     1     100.782 129.842  84.067  0.00  0.00    +0.000 A 
ATOM      6  C   UNL     1     101.367 128.618  83.781  0.00  0.00    +0.000 A 
ATOM      7  O   UNL     1     102.661 128.671  84.224  0.00  0.00    +0.000 OA
ATOM      8  C   UNL     1     102.773 129.921  84.752  0.00  0.00    +0.000 A 
ATOM      9  N   UNL     1     101.688 130.662  84.689  0.00  0.00    +0.000 NA
ENDROOT
BRANCH   2  10
ATOM     10  N   UNL     1      98.659 126.791  82.151  0.00  0.00    +0.000 NA
ATOM     11  O   UNL     1      97.535 126.656  82.650  0.00  0.00    +0.000 OA
ENDBRANCH   2  10
BRANCH   1  12
ATOM     12  C   UNL     1     101.462 126.249  82.862  0.00  0.00    +0.000 C 
BRANCH  12  13
ATOM     13  C   UNL     1     102.386 126.380  81.648  0.00  0.00    +0.000 C 
BRANCH  13  17
ATOM     14  C   UNL     1     105.189 123.113  81.418  0.00  0.00    +0.000 A 
ATOM     15  C   UNL     1     104.881 123.848  80.274  0.00  0.00    +0.000 A 
ATOM     16  C   UNL     1     103.968 124.903  80.346  0.00  0.00    +0.000 A 
ATOM     17  C   UNL     1     103.354 125.227  81.563  0.00  0.00    +0.000 A 
ATOM     18  C   UNL     1     103.676 124.486  82.708  0.00  0.00    +0.000 A 
ATOM     19  C   UNL     1     104.588 123.432  82.634  0.00  0.00    +0.000 A 
ENDBRANCH  13  17
ENDBRANCH  12  13
ENDBRANCH   1  12
TORSDOF 4
ENDMDL
