MODEL 1
REMARK VINA RESULT:      -4.6      0.000      0.000
REMARK  Name = *****
REMARK  3 active torsions:
REMARK  status: ('A' for Active; 'I' for Inactive)
REMARK    1  A    between atoms: C_1  and  O_2
REMARK    2  A    between atoms: O_2  and  C_3
REMARK    3  A    between atoms: C_8  and  C_9
REMARK                            x       y       z     vdW  Elec       q    Type
REMARK                         _______ _______ _______ _____ _____    ______ ____
ROOT
ATOM      1  C   UNL     1      99.274 128.042  82.978  0.00  0.00    +0.000 A 
ATOM      2  C   UNL     1      98.986 129.282  83.569  0.00  0.00    +0.000 A 
ATOM      3  C   UNL     1     100.001 130.053  84.137  0.00  0.00    +0.000 A 
ATOM      4  C   UNL     1     101.313 129.594  84.124  0.00  0.00    +0.000 A 
ATOM      5  C   UNL     1     101.613 128.362  83.541  0.00  0.00    +0.000 A 
ATOM      6  C   UNL     1     100.606 127.569  82.960  0.00  0.00    +0.000 A 
ENDROOT
BRANCH   6   7
ATOM      7  C   UNL     1     100.936 126.265  82.348  0.00  0.00    +0.000 C 
ATOM      8  C   UNL     1     102.139 125.875  82.032  0.00  0.00    +0.000 C 
ATOM      9  C   UNL     1     103.340 125.484  81.706  0.00  0.00    +0.000 C 
ATOM     10  C   UNL     1     104.220 126.267  80.763  0.00  0.00    +0.000 C 
ATOM     11  C   UNL     1     104.781 125.371  79.660  0.00  0.00    +0.000 C 
ATOM     12  C   UNL     1     105.471 124.132  80.231  0.00  0.00    +0.000 C 
ATOM     13  C   UNL     1     104.538 123.353  81.159  0.00  0.00    +0.000 C 
ATOM     14  C   UNL     1     103.973 124.237  82.270  0.00  0.00    +0.000 C 
ENDBRANCH   6   7
BRANCH   1  16
ATOM     15  C   UNL     1      97.400 126.579  83.259  0.00  0.00    +0.000 C 
ATOM     16  O   UNL     1      98.325 127.232  82.400  0.00  0.00    +0.000 OA
ENDBRANCH   1  16
TORSDOF 2
ENDMDL
