MODEL 1
REMARK VINA RESULT:      -4.7      0.000      0.000
REMARK  Name = *****
REMARK  4 active torsions:
REMARK  status: ('A' for Active; 'I' for Inactive)
REMARK    1  A    between atoms: C_5  and  C_7
REMARK    2  A    between atoms: C_5  and  C_16
REMARK    3  A    between atoms: C_7  and  C_8
REMARK    4  A    between atoms: C_9  and  C_10
REMARK                            x       y       z     vdW  Elec       q    Type
REMARK                         _______ _______ _______ _____ _____    ______ ____
ROOT
ATOM      1  C   UNL     1      99.919 126.966  84.338  0.00  0.00    +0.000 C 
ENDROOT
BRANCH   1   6
ATOM      2  C   UNL     1      98.833 129.741  86.045  0.00  0.00    +0.000 C 
ATOM      3  C   UNL     1      98.960 130.908  85.068  0.00  0.00    +0.000 C 
ATOM      4  C   UNL     1      99.406 130.481  83.704  0.00  0.00    +0.000 C 
ATOM      5  C   UNL     1      99.369 129.211  83.274  0.00  0.00    +0.000 C 
ATOM      6  C   UNL     1      98.832 128.047  84.091  0.00  0.00    +0.000 C 
ATOM      7  C   UNL     1      98.154 128.529  85.402  0.00  0.00    +0.000 C 
BRANCH   6   8
ATOM      8  C   UNL     1      97.756 127.358  83.240  0.00  0.00    +0.000 C 
ATOM      9  O   UNL     1      97.932 126.923  82.103  0.00  0.00    +0.000 OA
ENDBRANCH   6   8
ENDBRANCH   1   6
BRANCH   1  10
ATOM     10  C   UNL     1     101.164 127.084  83.500  0.00  0.00    +0.000 C 
ATOM     11  C   UNL     1     101.428 126.300  82.442  0.00  0.00    +0.000 C 
BRANCH  11  12
ATOM     12  C   UNL     1     102.649 126.396  81.628  0.00  0.00    +0.000 A 
ATOM     13  C   UNL     1     103.335 127.616  81.578  0.00  0.00    +0.000 A 
ATOM     14  C   UNL     1     104.513 127.743  80.838  0.00  0.00    +0.000 A 
ATOM     15  C   UNL     1     105.023 126.646  80.147  0.00  0.00    +0.000 A 
ATOM     16  C   UNL     1     104.360 125.423  80.201  0.00  0.00    +0.000 A 
ATOM     17  C   UNL     1     103.182 125.297  80.942  0.00  0.00    +0.000 A 
ENDBRANCH  11  12
ENDBRANCH   1  10
TORSDOF 4
ENDMDL
