MODEL 1
REMARK VINA RESULT:      -4.3      0.000      0.000
REMARK  Name = *****
REMARK  5 active torsions:
REMARK  status: ('A' for Active; 'I' for Inactive)
REMARK    1  A    between atoms: C_1  and  C_2
REMARK    2  A    between atoms: C_5  and  S_8
REMARK    3  A    between atoms: S_8  and  N_9
REMARK    4  A    between atoms: N_9  and  C_10
REMARK    5  A    between atoms: N_9  and  C_11
REMARK                            x       y       z     vdW  Elec       q    Type
REMARK                         _______ _______ _______ _____ _____    ______ ____
ROOT
ATOM      1  S   UNL     1      89.155  70.401  86.784  0.00  0.00    +0.000 S 
ENDROOT
BRANCH   1   6
ATOM      2  C   UNL     1      88.924  64.301  86.848  0.00  0.00    +0.000 C 
ATOM      3  C   UNL     1      88.957  65.799  86.810  0.00  0.00    +0.000 A 
ATOM      4  C   UNL     1      90.056  66.472  86.263  0.00  0.00    +0.000 A 
ATOM      5  C   UNL     1      90.101  67.870  86.258  0.00  0.00    +0.000 A 
ATOM      6  C   UNL     1      89.052  68.615  86.803  0.00  0.00    +0.000 A 
ATOM      7  C   UNL     1      87.965  67.943  87.372  0.00  0.00    +0.000 A 
ATOM      8  C   UNL     1      87.918  66.547  87.378  0.00  0.00    +0.000 A 
ENDBRANCH   1   6
BRANCH   1   9
ATOM      9  N   UNL     1      87.805  70.779  85.863  0.00  0.00    +0.000 N 
ATOM     10  C   UNL     1      87.986  70.805  84.412  0.00  0.00    +0.000 C 
BRANCH   9  11
ATOM     11  C   UNL     1      86.617  71.312  86.419  0.00  0.00    +0.000 A 
ATOM     12  C   UNL     1      85.595  71.866  85.624  0.00  0.00    +0.000 A 
ATOM     13  C   UNL     1      84.427  72.409  86.175  0.00  0.00    +0.000 A 
ATOM     14  C   UNL     1      84.246  72.421  87.552  0.00  0.00    +0.000 A 
ATOM     15  C   UNL     1      85.234  71.892  88.372  0.00  0.00    +0.000 A 
ATOM     16  C   UNL     1      86.399  71.350  87.812  0.00  0.00    +0.000 A 
ENDBRANCH   9  11
ENDBRANCH   1   9
TORSDOF 3
ENDMDL
