MODEL 1
REMARK VINA RESULT:      -4.7      0.000      0.000
REMARK  Name = *****
REMARK  4 active torsions:
REMARK  status: ('A' for Active; 'I' for Inactive)
REMARK    1  A    between atoms: C_5  and  C_7
REMARK    2  A    between atoms: C_7  and  C_8
REMARK    3  A    between atoms: C_8  and  S_9
REMARK    4  A    between atoms: S_9  and  C_10
REMARK                            x       y       z     vdW  Elec       q    Type
REMARK                         _______ _______ _______ _____ _____    ______ ____
ROOT
ATOM      1  C   UNL     1     101.575 127.820  83.085  0.00  0.00    +0.000 A 
ATOM      2  C   UNL     1     100.701 126.860  82.561  0.00  0.00    +0.000 A 
ATOM      3  C   UNL     1      99.326 127.088  82.525  0.00  0.00    +0.000 A 
ATOM      4  C   UNL     1      98.786 128.270  83.015  0.00  0.00    +0.000 A 
ATOM      5  C   UNL     1      99.644 129.222  83.548  0.00  0.00    +0.000 A 
ATOM      6  C   UNL     1     101.022 129.003  83.588  0.00  0.00    +0.000 A 
ATOM      7  F   UNL     1     101.807 129.946  84.133  0.00  0.00    +0.000 F 
ATOM      8  F   UNL     1      99.135 130.362  84.032  0.00  0.00    +0.000 F 
ATOM      9  F   UNL     1      98.505 126.161  82.014  0.00  0.00    +0.000 F 
ATOM     10  F   UNL     1     101.175 125.702  82.075  0.00  0.00    +0.000 F 
ENDROOT
BRANCH   1  11
ATOM     11  S   UNL     1     103.332 127.488  83.137  0.00  0.00    +0.000 S 
BRANCH  11  12
ATOM     12  C   UNL     1     103.868 128.336  81.607  0.00  0.00    +0.000 C 
BRANCH  12  13
ATOM     13  C   UNL     1     103.534 127.475  80.390  0.00  0.00    +0.000 C 
BRANCH  13  18
ATOM     14  C   UNL     1     104.749 123.885  80.311  0.00  0.00    +0.000 A 
ATOM     15  C   UNL     1     106.116 124.100  80.189  0.00  0.00    +0.000 A 
ATOM     16  C   UNL     1     106.569 125.406  80.142  0.00  0.00    +0.000 A 
ATOM     17  N   UNL     1     105.760 126.487  80.209  0.00  0.00    +0.000 NA
ATOM     18  C   UNL     1     104.429 126.262  80.330  0.00  0.00    +0.000 A 
ATOM     19  C   UNL     1     103.890 124.979  80.380  0.00  0.00    +0.000 A 
ENDBRANCH  13  18
ENDBRANCH  12  13
ENDBRANCH  11  12
ENDBRANCH   1  11
TORSDOF 4
ENDMDL
