MODEL 1
REMARK VINA RESULT:      -4.7      0.000      0.000
REMARK  Name = *****
REMARK  5 active torsions:
REMARK  status: ('A' for Active; 'I' for Inactive)
REMARK    1  A    between atoms: C_1  and  C_2
REMARK    2  A    between atoms: C_2  and  O_3
REMARK    3  A    between atoms: O_3  and  C_4
REMARK    4  A    between atoms: C_7  and  C_11
REMARK    5  A    between atoms: C_12  and  C_13
REMARK                            x       y       z     vdW  Elec       q    Type
REMARK                         _______ _______ _______ _____ _____    ______ ____
ROOT
ATOM      1  C   UNL     1     106.008 123.195  80.373  0.00  0.00    +0.000 A 
ATOM      2  C   UNL     1     105.488 124.224  79.586  0.00  0.00    +0.000 A 
ATOM      3  C   UNL     1     104.438 125.026  80.040  0.00  0.00    +0.000 A 
ATOM      4  C   UNL     1     103.888 124.807  81.303  0.00  0.00    +0.000 A 
ATOM      5  C   UNL     1     104.394 123.788  82.106  0.00  0.00    +0.000 A 
ATOM      6  C   UNL     1     105.441 122.997  81.636  0.00  0.00    +0.000 A 
ATOM      7  F   UNL     1     105.905 122.022  82.434  0.00  0.00    +0.000 F 
ATOM      8  F   UNL     1     105.973 124.487  78.363  0.00  0.00    +0.000 F 
ENDROOT
BRANCH   4   9
ATOM      9  C   UNL     1     102.812 125.624  81.768  0.00  0.00    +0.000 C 
ATOM     10  C   UNL     1     101.905 126.309  82.156  0.00  0.00    +0.000 C 
BRANCH  10  11
ATOM     11  C   UNL     1     100.824 127.124  82.617  0.00  0.00    +0.000 A 
ATOM     12  C   UNL     1     101.084 128.302  83.322  0.00  0.00    +0.000 A 
ATOM     13  C   UNL     1     100.028 129.095  83.773  0.00  0.00    +0.000 A 
ATOM     14  C   UNL     1      98.711 128.712  83.520  0.00  0.00    +0.000 A 
ATOM     15  C   UNL     1      98.447 127.537  82.816  0.00  0.00    +0.000 A 
ATOM     16  C   UNL     1      99.504 126.743  82.365  0.00  0.00    +0.000 A 
ENDBRANCH  10  11
ENDBRANCH   4   9
BRANCH   1  17
ATOM     17  O   UNL     1     107.025 122.341  80.049  0.00  0.00    +0.000 OA
BRANCH  17  19
ATOM     18  C   UNL     1     108.917 122.887  78.709  0.00  0.00    +0.000 C 
ATOM     19  C   UNL     1     108.359 122.842  80.120  0.00  0.00    +0.000 C 
ENDBRANCH  17  19
ENDBRANCH   1  17
TORSDOF 4
ENDMDL
