MODEL 1
REMARK VINA RESULT:      -5.1      0.000      0.000
REMARK  Name = *****
REMARK  3 active torsions:
REMARK  status: ('A' for Active; 'I' for Inactive)
REMARK    1  A    between atoms: C_4  and  C_16
REMARK    2  A    between atoms: C_5  and  C_7
REMARK    3  A    between atoms: C_8  and  C_9
REMARK                            x       y       z     vdW  Elec       q    Type
REMARK                         _______ _______ _______ _____ _____    ______ ____
ROOT
ATOM      1  C   UNL     1     101.897 127.340  83.181  0.00  0.00    +0.000 C 
ATOM      2  C   UNL     1     102.472 127.224  81.974  0.00  0.00    +0.000 C 
ENDROOT
BRANCH   2   3
ATOM      3  C   UNL     1     103.240 126.042  81.566  0.00  0.00    +0.000 A 
ATOM      4  C   UNL     1     103.891 125.971  80.329  0.00  0.00    +0.000 A 
ATOM      5  C   UNL     1     104.628 124.839  79.999  0.00  0.00    +0.000 A 
ATOM      6  C   UNL     1     104.741 123.770  80.880  0.00  0.00    +0.000 A 
ATOM      7  C   UNL     1     104.106 123.836  82.119  0.00  0.00    +0.000 A 
ATOM      8  C   UNL     1     103.363 124.970  82.462  0.00  0.00    +0.000 A 
ATOM      9  F   UNL     1     105.246 124.780  78.811  0.00  0.00    +0.000 F 
ENDBRANCH   2   3
BRANCH   1  14
ATOM     10  C   UNL     1     101.223 130.734  84.631  0.00  0.00    +0.000 A 
ATOM     11  C   UNL     1      99.859 130.898  84.411  0.00  0.00    +0.000 A 
ATOM     12  C   UNL     1      99.131 129.891  83.777  0.00  0.00    +0.000 A 
ATOM     13  C   UNL     1      99.763 128.708  83.361  0.00  0.00    +0.000 A 
ATOM     14  C   UNL     1     101.142 128.533  83.591  0.00  0.00    +0.000 A 
ATOM     15  C   UNL     1     101.861 129.561  84.221  0.00  0.00    +0.000 A 
BRANCH  13  16
ATOM     16  C   UNL     1      98.971 127.714  82.693  0.00  0.00    +0.000 C 
ATOM     17  N   UNL     1      98.310 126.915  82.171  0.00  0.00    +0.000 NA
ENDBRANCH  13  16
ENDBRANCH   1  14
TORSDOF 3
ENDMDL
