REMARK  Name = *****
REMARK  2 active torsions:
REMARK  status: ('A' for Active; 'I' for Inactive)
REMARK    1  A    between atoms: C_4  and  C_7
REMARK    2  A    between atoms: C_8  and  C_9
REMARK                            x       y       z     vdW  Elec       q    Type
REMARK                         _______ _______ _______ _____ _____    ______ ____
ROOT
ATOM      1  C   UNL     1      -2.879   0.424  -0.153  0.00  0.00    +0.000 C 
ATOM      2  C   UNL     1      -3.528   1.582  -0.352  0.00  0.00    +0.000 C 
ATOM      3  F   UNL     1      -3.615  -0.702   0.005  0.00  0.00    +0.000 F 
ENDROOT
BRANCH   1   7
ATOM      4  C   UNL     1       1.361  -0.129   0.183  0.00  0.00    +0.000 A 
ATOM      5  C   UNL     1       0.475  -1.046   0.743  0.00  0.00    +0.000 A 
ATOM      6  C   UNL     1      -0.903  -0.848   0.624  0.00  0.00    +0.000 A 
ATOM      7  C   UNL     1      -1.417   0.272  -0.047  0.00  0.00    +0.000 A 
ATOM      8  C   UNL     1      -0.510   1.179  -0.617  0.00  0.00    +0.000 A 
ATOM      9  C   UNL     1       0.869   0.981  -0.499  0.00  0.00    +0.000 A 
ENDBRANCH   1   7
BRANCH   2  10
ATOM     10  C   UNL     1      -5.021   1.693  -0.435  0.00  0.00    +0.000 C 
ATOM     11  C   UNL     1      -5.462   2.349  -1.719  0.00  0.00    +0.000 C 
ATOM     12  C   UNL     1      -6.138   3.478  -1.451  0.00  0.00    +0.000 C 
ATOM     13  C   UNL     1      -6.203   3.667  -0.023  0.00  0.00    +0.000 C 
ATOM     14  C   UNL     1      -5.569   2.655   0.589  0.00  0.00    +0.000 C 
ENDBRANCH   2  10
TORSDOF 2
