MODEL 1
REMARK VINA RESULT:      -4.8      0.000      0.000
REMARK  Name = *****
REMARK  1 active torsions:
REMARK  status: ('A' for Active; 'I' for Inactive)
REMARK    1  A    between atoms: C_6  and  C_11
REMARK                            x       y       z     vdW  Elec       q    Type
REMARK                         _______ _______ _______ _____ _____    ______ ____
ROOT
ATOM      1  C   UNL     1      99.125 129.162  83.508  0.00  0.00    +0.000 A 
ATOM      2  C   UNL     1      98.530 128.057  82.907  0.00  0.00    +0.000 A 
ATOM      3  C   UNL     1      99.320 126.994  82.464  0.00  0.00    +0.000 A 
ATOM      4  C   UNL     1     100.716 127.026  82.617  0.00  0.00    +0.000 A 
ATOM      5  C   UNL     1     101.524 125.964  82.175  0.00  0.00    +0.000 A 
ATOM      6  C   UNL     1     102.915 126.005  82.329  0.00  0.00    +0.000 A 
ATOM      7  C   UNL     1     103.505 127.122  82.925  0.00  0.00    +0.000 A 
ATOM      8  C   UNL     1     102.715 128.183  83.373  0.00  0.00    +0.000 A 
ATOM      9  C   UNL     1     101.320 128.149  83.225  0.00  0.00    +0.000 A 
ATOM     10  C   UNL     1     100.511 129.209  83.666  0.00  0.00    +0.000 A 
ENDROOT
BRANCH   6  11
ATOM     11  C   UNL     1     103.740 124.906  81.848  0.00  0.00    +0.000 A 
ATOM     12  C   UNL     1     104.058 124.665  80.566  0.00  0.00    +0.000 A 
ATOM     13  C   UNL     1     104.943 123.537  80.382  0.00  0.00    +0.000 A 
ATOM     14  C   UNL     1     105.304 122.917  81.515  0.00  0.00    +0.000 A 
ATOM     15  P   UNL     1     104.482 123.676  82.963  0.00  0.00    +0.000 P 
ATOM     16  H   UNL     1     103.570 122.855  83.595  0.00  0.00    +0.000 HD
ENDBRANCH   6  11
TORSDOF 1
ENDMDL
