MODEL 1
REMARK VINA RESULT:      -4.5      0.000      0.000
REMARK  Name = *****
REMARK  1 active torsions:
REMARK  status: ('A' for Active; 'I' for Inactive)
REMARK    1  A    between atoms: C_5  and  C_8
REMARK                            x       y       z     vdW  Elec       q    Type
REMARK                         _______ _______ _______ _____ _____    ______ ____
ROOT
ATOM      1  C   UNL     1     104.001 123.876  83.964  0.00  0.00    +0.000 C 
ATOM      2  C   UNL     1     104.379 124.055  82.516  0.00  0.00    +0.000 A 
ATOM      3  C   UNL     1     103.798 124.968  81.636  0.00  0.00    +0.000 A 
ATOM      4  C   UNL     1     102.760 125.934  81.840  0.00  0.00    +0.000 C 
ATOM      5  C   UNL     1     102.050 126.035  82.983  0.00  0.00    +0.000 C 
ATOM      6  N   UNL     1     102.189 125.222  84.086  0.00  0.00    +0.000 NA
ATOM      7  N   UNL     1     103.363 125.092  84.497  0.00  0.00    +0.000 NA
ATOM      8  S   UNL     1     104.516 124.852  80.071  0.00  0.00    +0.000 S 
ATOM      9  C   UNL     1     105.567 123.601  80.552  0.00  0.00    +0.000 A 
ATOM     10  C   UNL     1     105.394 123.269  81.874  0.00  0.00    +0.000 A 
ENDROOT
BRANCH   5  11
ATOM     11  C   UNL     1     100.972 127.042  83.032  0.00  0.00    +0.000 A 
ATOM     12  C   UNL     1     101.208 128.298  83.606  0.00  0.00    +0.000 A 
ATOM     13  C   UNL     1     100.187 129.249  83.665  0.00  0.00    +0.000 A 
ATOM     14  C   UNL     1      98.928 128.954  83.144  0.00  0.00    +0.000 A 
ATOM     15  C   UNL     1      98.686 127.708  82.565  0.00  0.00    +0.000 A 
ATOM     16  C   UNL     1      99.704 126.755  82.509  0.00  0.00    +0.000 A 
ENDBRANCH   5  11
TORSDOF 1
ENDMDL
