MODEL 1
REMARK VINA RESULT:      -4.2      0.000      0.000
REMARK  Name = *****
REMARK  4 active torsions:
REMARK  status: ('A' for Active; 'I' for Inactive)
REMARK    1  A    between atoms: C_1  and  C_2
REMARK    2  A    between atoms: C_2  and  S_8
REMARK    3  A    between atoms: S_8  and  C_9
REMARK    4  A    between atoms: C_9  and  C_10
REMARK                            x       y       z     vdW  Elec       q    Type
REMARK                         _______ _______ _______ _____ _____    ______ ____
ROOT
ATOM      1  S   UNL     1     103.681 126.562  82.671  0.00  0.00    +0.000 S 
ENDROOT
BRANCH   1   3
ATOM      2  C   UNL     1     103.672 127.645  80.130  0.00  0.00    +0.000 C 
ATOM      3  C   UNL     1     104.249 126.448  80.903  0.00  0.00    +0.000 C 
ATOM      4  C   UNL     1     103.839 125.127  80.217  0.00  0.00    +0.000 C 
ATOM      5  C   UNL     1     104.522 123.893  80.807  0.00  0.00    +0.000 C 
ATOM      6  C   UNL     1     106.040 124.035  80.789  0.00  0.00    +0.000 C 
ATOM      7  C   UNL     1     106.502 125.319  81.472  0.00  0.00    +0.000 C 
ATOM      8  C   UNL     1     105.795 126.553  80.904  0.00  0.00    +0.000 C 
ENDBRANCH   1   3
BRANCH   1   9
ATOM      9  C   UNL     1     101.989 125.894  82.578  0.00  0.00    +0.000 C 
BRANCH   9  10
ATOM     10  C   UNL     1     100.964 126.978  82.809  0.00  0.00    +0.000 A 
ATOM     11  C   UNL     1     101.324 128.179  83.438  0.00  0.00    +0.000 A 
ATOM     12  C   UNL     1     100.374 129.177  83.656  0.00  0.00    +0.000 A 
ATOM     13  C   UNL     1      99.053 128.984  83.254  0.00  0.00    +0.000 A 
ATOM     14  C   UNL     1      98.680 127.790  82.640  0.00  0.00    +0.000 A 
ATOM     15  C   UNL     1      99.629 126.790  82.420  0.00  0.00    +0.000 A 
ENDBRANCH   9  10
ENDBRANCH   1   9
TORSDOF 3
ENDMDL
