REMARK  Name = *****
REMARK  4 active torsions:
REMARK  status: ('A' for Active; 'I' for Inactive)
REMARK    1  A    between atoms: C_1  and  C_2
REMARK    2  A    between atoms: C_5  and  S_7
REMARK    3  A    between atoms: S_7  and  C_8
REMARK    4  A    between atoms: C_8  and  C_9
REMARK                            x       y       z     vdW  Elec       q    Type
REMARK                         _______ _______ _______ _____ _____    ______ ____
ROOT
ATOM      1  S   UNL     1      -2.941   1.529   0.021  0.00  0.00    +0.000 S 
ENDROOT
BRANCH   1   6
ATOM      2  C   UNL     1       2.199  -0.600  -0.116  0.00  0.00    +0.000 C 
ATOM      3  C   UNL     1       0.731  -0.386  -0.096  0.00  0.00    +0.000 A 
ATOM      4  C   UNL     1      -0.295  -1.308  -0.138  0.00  0.00    +0.000 A 
ATOM      5  N   UNL     1      -1.573  -0.785  -0.103  0.00  0.00    +0.000 NA
ATOM      6  C   UNL     1      -1.510   0.526  -0.037  0.00  0.00    +0.000 A 
ATOM      7  S   UNL     1       0.070   1.194  -0.011  0.00  0.00    +0.000 S 
ENDBRANCH   1   6
BRANCH   1   8
ATOM      8  C   UNL     1      -4.235   0.258  -0.045  0.00  0.00    +0.000 C 
BRANCH   8   9
ATOM      9  C   UNL     1      -5.613   0.873  -0.022  0.00  0.00    +0.000 A 
ATOM     10  C   UNL     1      -6.252   1.234  -1.218  0.00  0.00    +0.000 A 
ATOM     11  C   UNL     1      -7.521   1.815  -1.195  0.00  0.00    +0.000 A 
ATOM     12  C   UNL     1      -8.162   2.045   0.021  0.00  0.00    +0.000 A 
ATOM     13  C   UNL     1      -7.534   1.698   1.215  0.00  0.00    +0.000 A 
ATOM     14  C   UNL     1      -6.265   1.117   1.196  0.00  0.00    +0.000 A 
ENDBRANCH   8   9
ENDBRANCH   1   8
TORSDOF 3
