MODEL 1
REMARK VINA RESULT:      -5.0      0.000      0.000
REMARK  Name = *****
REMARK  4 active torsions:
REMARK  status: ('A' for Active; 'I' for Inactive)
REMARK    1  A    between atoms: C_4  and  C_7
REMARK    2  A    between atoms: C_7  and  O_9
REMARK    3  A    between atoms: O_9  and  C_10
REMARK    4  A    between atoms: C_10  and  C_11
REMARK                            x       y       z     vdW  Elec       q    Type
REMARK                         _______ _______ _______ _____ _____    ______ ____
ROOT
ATOM      1  C   UNL     1     101.289 126.951  83.919  0.00  0.00    +0.000 C 
ENDROOT
BRANCH   1   2
ATOM      2  C   UNL     1     102.151 126.534  82.755  0.00  0.00    +0.000 A 
ATOM      3  C   UNL     1     102.721 125.253  82.712  0.00  0.00    +0.000 A 
ATOM      4  C   UNL     1     103.540 124.887  81.645  0.00  0.00    +0.000 A 
ATOM      5  C   UNL     1     103.809 125.782  80.618  0.00  0.00    +0.000 A 
ATOM      6  C   UNL     1     103.258 127.055  80.661  0.00  0.00    +0.000 A 
ATOM      7  C   UNL     1     102.437 127.439  81.720  0.00  0.00    +0.000 A 
ATOM      8  F   UNL     1     103.514 127.932  79.680  0.00  0.00    +0.000 F 
ATOM      9  F   UNL     1     104.597 125.420  79.596  0.00  0.00    +0.000 F 
ATOM     10  F   UNL     1     104.070 123.656  81.622  0.00  0.00    +0.000 F 
ENDBRANCH   1   2
BRANCH   1  11
ATOM     11  O   UNL     1      99.953 126.482  83.710  0.00  0.00    +0.000 OA
BRANCH  11  12
ATOM     12  C   UNL     1      99.115 127.356  83.100  0.00  0.00    +0.000 C 
ATOM     13  O   UNL     1      98.549 127.179  82.033  0.00  0.00    +0.000 OA
BRANCH  12  17
ATOM     14  C   UNL     1      98.751 130.986  85.353  0.00  0.00    +0.000 A 
ATOM     15  C   UNL     1      98.260 129.799  85.894  0.00  0.00    +0.000 A 
ATOM     16  C   UNL     1      98.368 128.604  85.175  0.00  0.00    +0.000 A 
ATOM     17  C   UNL     1      98.971 128.596  83.909  0.00  0.00    +0.000 A 
ATOM     18  C   UNL     1      99.462 129.795  83.375  0.00  0.00    +0.000 A 
ATOM     19  C   UNL     1      99.352 130.986  84.095  0.00  0.00    +0.000 A 
ENDBRANCH  12  17
ENDBRANCH  11  12
ENDBRANCH   1  11
TORSDOF 4
ENDMDL
