MODEL 1
REMARK VINA RESULT:      -4.4      0.000      0.000
REMARK  Name = *****
REMARK  4 active torsions:
REMARK  status: ('A' for Active; 'I' for Inactive)
REMARK    1  A    between atoms: C_4  and  C_7
REMARK    2  A    between atoms: C_8  and  C_9
REMARK    3  A    between atoms: C_10  and  S_16
REMARK    4  A    between atoms: C_11  and  S_15
REMARK                            x       y       z     vdW  Elec       q    Type
REMARK                         _______ _______ _______ _____ _____    ______ ____
ROOT
ATOM      1  C   UNL     1     101.147 127.136  82.597  0.00  0.00    +0.000 A 
ATOM      2  C   UNL     1     101.473 128.320  83.296  0.00  0.00    +0.000 A 
ATOM      3  C   UNL     1     100.423 129.153  83.748  0.00  0.00    +0.000 A 
ATOM      4  C   UNL     1      99.088 128.788  83.511  0.00  0.00    +0.000 A 
ATOM      5  C   UNL     1      98.782 127.614  82.827  0.00  0.00    +0.000 A 
ATOM      6  C   UNL     1      99.808 126.792  82.372  0.00  0.00    +0.000 A 
ENDROOT
BRANCH   1   8
ATOM      7  C   UNL     1     102.991 125.495  81.664  0.00  0.00    +0.000 C 
ATOM      8  C   UNL     1     102.150 126.241  82.090  0.00  0.00    +0.000 C 
BRANCH   7  12
ATOM      9  C   UNL     1     105.962 122.904  80.151  0.00  0.00    +0.000 A 
ATOM     10  C   UNL     1     105.664 124.090  79.479  0.00  0.00    +0.000 A 
ATOM     11  C   UNL     1     104.682 124.948  79.978  0.00  0.00    +0.000 A 
ATOM     12  C   UNL     1     103.998 124.620  81.152  0.00  0.00    +0.000 A 
ATOM     13  C   UNL     1     104.298 123.431  81.823  0.00  0.00    +0.000 A 
ATOM     14  C   UNL     1     105.280 122.575  81.322  0.00  0.00    +0.000 A 
ENDBRANCH   7  12
ENDBRANCH   1   8
BRANCH   3  15
ATOM     15  S   UNL     1     100.677 130.691  84.639  0.00  0.00    +0.000 S 
ATOM     16  H   UNL     1     101.781 130.582  85.425  0.00  0.00    +0.000 HD
ENDBRANCH   3  15
BRANCH   2  17
ATOM     17  S   UNL     1     103.195 128.772  83.589  0.00  0.00    +0.000 S 
ATOM     18  H   UNL     1     103.677 128.062  84.644  0.00  0.00    +0.000 HD
ENDBRANCH   2  17
TORSDOF 4
ENDMDL
