REMARK  Name = *****
REMARK  2 active torsions:
REMARK  status: ('A' for Active; 'I' for Inactive)
REMARK    1  A    between atoms: C_4  and  S_8
REMARK    2  A    between atoms: S_8  and  C_9
REMARK                            x       y       z     vdW  Elec       q    Type
REMARK                         _______ _______ _______ _____ _____    ______ ____
ROOT
ATOM      1  C   UNL     1       0.615  -1.521  -0.571  0.00  0.00    +0.000 C 
ATOM      2  C   UNL     1       1.620  -0.549   0.037  0.00  0.00    +0.000 C 
ATOM      3  C   UNL     1       1.270   0.924  -0.176  0.00  0.00    +0.000 C 
ATOM      4  C   UNL     1       0.056   1.487   0.579  0.00  0.00    +0.000 C 
ATOM      5  C   UNL     1      -1.274   0.893   0.200  0.00  0.00    +0.000 C 
ATOM      6  C   UNL     1      -1.602  -0.395   0.016  0.00  0.00    +0.000 C 
ATOM      7  C   UNL     1      -0.715  -1.591   0.170  0.00  0.00    +0.000 C 
ENDROOT
BRANCH   4   8
ATOM      8  S   UNL     1       0.286   1.391   2.402  0.00  0.00    +0.000 S 
BRANCH   8   9
ATOM      9  C   UNL     1      -0.970   2.535   2.946  0.00  0.00    +0.000 A 
ATOM     10  C   UNL     1      -2.103   2.051   3.606  0.00  0.00    +0.000 A 
ATOM     11  C   UNL     1      -3.093   2.934   4.045  0.00  0.00    +0.000 A 
ATOM     12  C   UNL     1      -2.949   4.304   3.831  0.00  0.00    +0.000 A 
ATOM     13  C   UNL     1      -1.815   4.793   3.184  0.00  0.00    +0.000 A 
ATOM     14  C   UNL     1      -0.825   3.911   2.746  0.00  0.00    +0.000 A 
ENDBRANCH   8   9
ENDBRANCH   4   8
TORSDOF 2
