MODEL 1
REMARK VINA RESULT:      -4.7      0.000      0.000
REMARK  Name = *****
REMARK  4 active torsions:
REMARK  status: ('A' for Active; 'I' for Inactive)
REMARK    1  A    between atoms: C_1  and  C_2
REMARK    2  A    between atoms: C_7  and  C_8
REMARK    3  A    between atoms: C_9  and  C_10
REMARK    4  A    between atoms: C_13  and  C_15
REMARK                            x       y       z     vdW  Elec       q    Type
REMARK                         _______ _______ _______ _____ _____    ______ ____
ROOT
ATOM      1  C   UNL     1     102.092 126.272  81.971  0.00  0.00    +0.000 C 
ATOM      2  C   UNL     1     102.956 125.592  81.484  0.00  0.00    +0.000 C 
ENDROOT
BRANCH   1   9
ATOM      3  C   UNL     1     102.805 128.680  83.500  0.00  0.00    +0.000 C 
ATOM      4  C   UNL     1     101.381 128.252  83.276  0.00  0.00    +0.000 A 
ATOM      5  C   UNL     1     100.335 129.021  83.809  0.00  0.00    +0.000 A 
ATOM      6  C   UNL     1      99.003 128.646  83.616  0.00  0.00    +0.000 A 
ATOM      7  C   UNL     1      98.700 127.500  82.888  0.00  0.00    +0.000 A 
ATOM      8  C   UNL     1      99.730 126.724  82.353  0.00  0.00    +0.000 A 
ATOM      9  C   UNL     1     101.067 127.094  82.542  0.00  0.00    +0.000 A 
ENDBRANCH   1   9
BRANCH   2  10
ATOM     10  C   UNL     1     103.981 124.797  80.899  0.00  0.00    +0.000 A 
ATOM     11  C   UNL     1     104.378 123.558  81.349  0.00  0.00    +0.000 A 
ATOM     12  S   UNL     1     105.626 122.960  80.339  0.00  0.00    +0.000 S 
ATOM     13  C   UNL     1     105.538 124.399  79.398  0.00  0.00    +0.000 A 
ATOM     14  N   UNL     1     104.639 125.278  79.789  0.00  0.00    +0.000 NA
ATOM     15  C   UNL     1     106.429 124.580  78.220  0.00  0.00    +0.000 C 
ENDBRANCH   2  10
TORSDOF 2
ENDMDL
