MODEL 1
REMARK VINA RESULT:      -5.1      0.000      0.000
REMARK  Name = *****
REMARK  4 active torsions:
REMARK  status: ('A' for Active; 'I' for Inactive)
REMARK    1  A    between atoms: C_1  and  C_2
REMARK    2  A    between atoms: C_7  and  C_8
REMARK    3  A    between atoms: C_9  and  C_10
REMARK    4  A    between atoms: C_12  and  C_16
REMARK                            x       y       z     vdW  Elec       q    Type
REMARK                         _______ _______ _______ _____ _____    ______ ____
ROOT
ATOM      1  C   UNL     1     102.151 125.994  82.258  0.00  0.00    +0.000 C 
ATOM      2  C   UNL     1     102.899 126.150  81.154  0.00  0.00    +0.000 C 
ENDROOT
BRANCH   1   9
ATOM      3  C   UNL     1     102.869 128.502  83.668  0.00  0.00    +0.000 C 
ATOM      4  C   UNL     1     101.447 128.160  83.313  0.00  0.00    +0.000 A 
ATOM      5  C   UNL     1     100.425 129.067  83.643  0.00  0.00    +0.000 A 
ATOM      6  C   UNL     1      99.095 128.790  83.330  0.00  0.00    +0.000 A 
ATOM      7  C   UNL     1      98.767 127.607  82.676  0.00  0.00    +0.000 A 
ATOM      8  C   UNL     1      99.770 126.699  82.337  0.00  0.00    +0.000 A 
ATOM      9  C   UNL     1     101.114 126.959  82.655  0.00  0.00    +0.000 A 
ENDBRANCH   1   9
BRANCH   2  10
ATOM     10  C   UNL     1     103.940 125.204  80.733  0.00  0.00    +0.000 A 
ATOM     11  C   UNL     1     104.039 123.916  81.277  0.00  0.00    +0.000 A 
ATOM     12  C   UNL     1     105.029 123.038  80.821  0.00  0.00    +0.000 A 
ATOM     13  C   UNL     1     105.918 123.429  79.817  0.00  0.00    +0.000 A 
ATOM     14  C   UNL     1     105.813 124.702  79.262  0.00  0.00    +0.000 A 
ATOM     15  C   UNL     1     104.825 125.581  79.714  0.00  0.00    +0.000 A 
BRANCH  12  16
ATOM     16  C   UNL     1     105.120 121.687  81.408  0.00  0.00    +0.000 C 
ATOM     17  O   UNL     1     104.289 120.818  81.178  0.00  0.00    +0.000 OA
ENDBRANCH  12  16
ENDBRANCH   2  10
TORSDOF 3
ENDMDL
