MODEL 1
REMARK VINA RESULT:      -4.4      0.000      0.000
REMARK  Name = *****
REMARK  4 active torsions:
REMARK  status: ('A' for Active; 'I' for Inactive)
REMARK    1  A    between atoms: C_4  and  C_7
REMARK    2  A    between atoms: C_7  and  O_8
REMARK    3  A    between atoms: O_8  and  C_9
REMARK    4  A    between atoms: C_9  and  C_11
REMARK                            x       y       z     vdW  Elec       q    Type
REMARK                         _______ _______ _______ _____ _____    ______ ____
ROOT
ATOM      1  C   UNL     1     101.365 126.911  82.852  0.00  0.00    +0.000 A 
ATOM      2  C   UNL     1     100.016 126.894  82.510  0.00  0.00    +0.000 A 
ATOM      3  C   UNL     1      99.204 127.977  82.830  0.00  0.00    +0.000 A 
ATOM      4  C   UNL     1      99.737 129.080  83.483  0.00  0.00    +0.000 A 
ATOM      5  C   UNL     1     101.084 129.102  83.818  0.00  0.00    +0.000 A 
ATOM      6  C   UNL     1     101.901 128.021  83.501  0.00  0.00    +0.000 A 
ATOM      7  F   UNL     1     103.205 128.074  83.809  0.00  0.00    +0.000 F 
ATOM      8  F   UNL     1     101.602 130.169  84.442  0.00  0.00    +0.000 F 
ATOM      9  F   UNL     1      98.952 130.122  83.790  0.00  0.00    +0.000 F 
ATOM     10  F   UNL     1      97.902 127.953  82.510  0.00  0.00    +0.000 F 
ATOM     11  F   UNL     1      99.476 125.830  81.898  0.00  0.00    +0.000 F 
ENDROOT
BRANCH   1  12
ATOM     12  C   UNL     1     102.210 125.776  82.490  0.00  0.00    +0.000 C 
ATOM     13  O   UNL     1     102.606 124.950  83.292  0.00  0.00    +0.000 OA
BRANCH  12  14
ATOM     14  O   UNL     1     102.480 125.845  81.167  0.00  0.00    +0.000 OA
BRANCH  14  15
ATOM     15  C   UNL     1     103.784 125.402  80.753  0.00  0.00    +0.000 C 
BRANCH  15  19
ATOM     16  C   UNL     1     105.659 129.304  81.409  0.00  0.00    +0.000 C 
ATOM     17  C   UNL     1     106.468 128.057  81.749  0.00  0.00    +0.000 C 
ATOM     18  C   UNL     1     105.579 126.820  81.866  0.00  0.00    +0.000 C 
ATOM     19  C   UNL     1     104.727 126.605  80.604  0.00  0.00    +0.000 C 
ATOM     20  C   UNL     1     103.924 127.869  80.268  0.00  0.00    +0.000 C 
ATOM     21  C   UNL     1     104.821 129.099  80.151  0.00  0.00    +0.000 C 
ENDBRANCH  15  19
ENDBRANCH  14  15
ENDBRANCH  12  14
ENDBRANCH   1  12
TORSDOF 4
ENDMDL
