REMARK  Name = *****
REMARK  4 active torsions:
REMARK  status: ('A' for Active; 'I' for Inactive)
REMARK    1  A    between atoms: C_3  and  C_16
REMARK    2  A    between atoms: C_6  and  C_7
REMARK    3  A    between atoms: C_7  and  O_8
REMARK    4  A    between atoms: O_8  and  C_9
REMARK                            x       y       z     vdW  Elec       q    Type
REMARK                         _______ _______ _______ _____ _____    ______ ____
ROOT
ATOM      1  C   UNL     1       1.420  -0.208  -0.098  0.00  0.00    +0.000 A 
ATOM      2  C   UNL     1       0.536  -1.285   0.005  0.00  0.00    +0.000 A 
ATOM      3  C   UNL     1      -0.849  -1.070   0.047  0.00  0.00    +0.000 A 
ATOM      4  C   UNL     1      -1.331   0.247  -0.007  0.00  0.00    +0.000 A 
ATOM      5  C   UNL     1      -0.447   1.323  -0.110  0.00  0.00    +0.000 A 
ATOM      6  C   UNL     1       0.935   1.105  -0.170  0.00  0.00    +0.000 A 
ENDROOT
BRANCH   3   7
ATOM      7  C   UNL     1      -1.818  -2.222   0.153  0.00  0.00    +0.000 C 
ATOM      8  F   UNL     1      -1.214  -3.443   0.188  0.00  0.00    +0.000 F 
ATOM      9  F   UNL     1      -2.589  -2.155   1.274  0.00  0.00    +0.000 F 
ATOM     10  F   UNL     1      -2.688  -2.268  -0.895  0.00  0.00    +0.000 F 
ENDBRANCH   3   7
BRANCH   6  11
ATOM     11  C   UNL     1       1.889   2.272  -0.274  0.00  0.00    +0.000 C 
BRANCH  11  12
ATOM     12  O   UNL     1       2.163   2.732   1.048  0.00  0.00    +0.000 OA
BRANCH  12  13
ATOM     13  C   UNL     1       2.999   3.829   1.074  0.00  0.00    +0.000 A 
ATOM     14  N   UNL     1       3.468   4.346  -0.082  0.00  0.00    +0.000 NA
ATOM     15  C   UNL     1       4.277   5.423   0.012  0.00  0.00    +0.000 A 
ATOM     16  C   UNL     1       4.639   6.007   1.211  0.00  0.00    +0.000 A 
ATOM     17  C   UNL     1       4.137   5.444   2.376  0.00  0.00    +0.000 A 
ATOM     18  C   UNL     1       3.302   4.337   2.322  0.00  0.00    +0.000 A 
ATOM     19 CL   UNL     1       4.553   6.128   3.900  0.00  0.00    +0.000 Cl
ENDBRANCH  12  13
ENDBRANCH  11  12
ENDBRANCH   6  11
TORSDOF 4
