MODEL 1
REMARK VINA RESULT:      -3.8      0.000      0.000
REMARK  Name = *****
REMARK  4 active torsions:
REMARK  status: ('A' for Active; 'I' for Inactive)
REMARK    1  A    between atoms: C_4  and  C_7
REMARK    2  A    between atoms: C_7  and  N_8
REMARK    3  A    between atoms: N_8  and  C_9
REMARK    4  A    between atoms: C_9  and  C_10
REMARK                            x       y       z     vdW  Elec       q    Type
REMARK                         _______ _______ _______ _____ _____    ______ ____
ROOT
ATOM      1  C   UNL     1     102.756 127.496  83.129  0.00  0.00    +0.000 C 
ENDROOT
BRANCH   1   5
ATOM      2  C   UNL     1      98.531 128.006  82.880  0.00  0.00    +0.000 A 
ATOM      3  C   UNL     1      99.116 126.840  82.382  0.00  0.00    +0.000 A 
ATOM      4  C   UNL     1     100.497 126.666  82.461  0.00  0.00    +0.000 A 
ATOM      5  C   UNL     1     101.293 127.661  83.037  0.00  0.00    +0.000 A 
ATOM      6  C   UNL     1     100.709 128.829  83.536  0.00  0.00    +0.000 A 
ATOM      7  C   UNL     1      99.326 128.998  83.456  0.00  0.00    +0.000 A 
ENDBRANCH   1   5
BRANCH   1   8
ATOM      8  N   UNL     1     103.564 128.224  82.437  0.00  0.00    +0.000 NA
BRANCH   8   9
ATOM      9  C   UNL     1     103.608 127.863  81.014  0.00  0.00    +0.000 C 
BRANCH   9  10
ATOM     10  C   UNL     1     104.192 126.489  80.856  0.00  0.00    +0.000 A 
ATOM     11  C   UNL     1     103.582 125.331  80.409  0.00  0.00    +0.000 A 
ATOM     12  C   UNL     1     104.465 124.213  80.407  0.00  0.00    +0.000 A 
ATOM     13  C   UNL     1     105.720 124.550  80.861  0.00  0.00    +0.000 A 
ATOM     14  S   UNL     1     105.827 126.202  81.289  0.00  0.00    +0.000 S 
ENDBRANCH   9  10
ENDBRANCH   8   9
ENDBRANCH   1   8
TORSDOF 4
ENDMDL
