MODEL 1
REMARK VINA RESULT:      -4.5      0.000      0.000
REMARK  Name = *****
REMARK  5 active torsions:
REMARK  status: ('A' for Active; 'I' for Inactive)
REMARK    1  A    between atoms: C_1  and  C_2
REMARK    2  A    between atoms: C_3  and  C_17
REMARK    3  A    between atoms: C_6  and  S_8
REMARK    4  A    between atoms: S_8  and  C_9
REMARK    5  A    between atoms: C_9  and  C_10
REMARK                            x       y       z     vdW  Elec       q    Type
REMARK                         _______ _______ _______ _____ _____    ______ ____
ROOT
ATOM      1  S   UNL     1      89.286  70.188  86.983  0.00  0.00    +0.000 S 
ENDROOT
BRANCH   1   7
ATOM      2  C   UNL     1      91.264  65.769  85.454  0.00  0.00    +0.000 C 
ATOM      3  C   UNL     1      90.127  66.456  86.150  0.00  0.00    +0.000 A 
ATOM      4  C   UNL     1      89.056  65.749  86.675  0.00  0.00    +0.000 A 
ATOM      5  N   UNL     1      88.057  66.414  87.290  0.00  0.00    +0.000 NA
ATOM      6  N   UNL     1      88.127  67.771  87.382  0.00  0.00    +0.000 NA
ATOM      7  C   UNL     1      89.187  68.421  86.859  0.00  0.00    +0.000 A 
ATOM      8  N   UNL     1      90.204  67.804  86.236  0.00  0.00    +0.000 NA
ATOM      9  C   UNL     1      88.940  64.261  86.600  0.00  0.00    +0.000 C 
ENDBRANCH   1   7
BRANCH   1  10
ATOM     10  C   UNL     1      88.079  70.479  88.310  0.00  0.00    +0.000 C 
BRANCH  10  11
ATOM     11  C   UNL     1      86.828  71.137  87.775  0.00  0.00    +0.000 A 
ATOM     12  C   UNL     1      86.649  71.311  86.394  0.00  0.00    +0.000 A 
ATOM     13  C   UNL     1      85.499  71.933  85.901  0.00  0.00    +0.000 A 
ATOM     14  C   UNL     1      84.524  72.387  86.786  0.00  0.00    +0.000 A 
ATOM     15  C   UNL     1      84.690  72.228  88.161  0.00  0.00    +0.000 A 
ATOM     16  C   UNL     1      85.841  71.608  88.654  0.00  0.00    +0.000 A 
ATOM     17 CL   UNL     1      83.107  73.151  86.179  0.00  0.00    +0.000 Cl
ENDBRANCH  10  11
ENDBRANCH   1  10
TORSDOF 3
ENDMDL
