MODEL 1
REMARK VINA RESULT:      -4.7      0.000      0.000
REMARK  Name = *****
REMARK  4 active torsions:
REMARK  status: ('A' for Active; 'I' for Inactive)
REMARK    1  A    between atoms: C_1  and  S_2
REMARK    2  A    between atoms: S_2  and  C_3
REMARK    3  A    between atoms: C_8  and  C_9
REMARK    4  A    between atoms: C_10  and  C_11
REMARK                            x       y       z     vdW  Elec       q    Type
REMARK                         _______ _______ _______ _____ _____    ______ ____
ROOT
ATOM      1  C   UNL     1     102.007 126.224  82.239  0.00  0.00    +0.000 C 
ATOM      2  C   UNL     1     102.871 125.464  81.893  0.00  0.00    +0.000 C 
ENDROOT
BRANCH   2   3
ATOM      3  C   UNL     1     103.885 124.548  81.475  0.00  0.00    +0.000 A 
ATOM      4  C   UNL     1     104.459 124.669  80.206  0.00  0.00    +0.000 A 
ATOM      5  C   UNL     1     105.448 123.770  79.799  0.00  0.00    +0.000 A 
ATOM      6  C   UNL     1     105.853 122.760  80.666  0.00  0.00    +0.000 A 
ATOM      7  C   UNL     1     105.289 122.630  81.931  0.00  0.00    +0.000 A 
ATOM      8  C   UNL     1     104.300 123.528  82.338  0.00  0.00    +0.000 A 
ATOM      9  F   UNL     1     106.802 121.899  80.276  0.00  0.00    +0.000 F 
ENDBRANCH   2   3
BRANCH   1  15
ATOM     10  C   UNL     1     101.240 128.311  83.357  0.00  0.00    +0.000 A 
ATOM     11  C   UNL     1     100.177 129.157  83.705  0.00  0.00    +0.000 A 
ATOM     12  C   UNL     1      98.862 128.825  83.370  0.00  0.00    +0.000 A 
ATOM     13  C   UNL     1      98.597 127.646  82.679  0.00  0.00    +0.000 A 
ATOM     14  C   UNL     1      99.647 126.800  82.318  0.00  0.00    +0.000 A 
ATOM     15  C   UNL     1     100.969 127.125  82.649  0.00  0.00    +0.000 A 
BRANCH  10  17
ATOM     16  C   UNL     1     102.476 130.405  84.614  0.00  0.00    +0.000 C 
ATOM     17  S   UNL     1     102.891 128.828  83.824  0.00  0.00    +0.000 S 
ENDBRANCH  10  17
ENDBRANCH   1  15
TORSDOF 3
ENDMDL
