REMARK  Name = *****
REMARK  3 active torsions:
REMARK  status: ('A' for Active; 'I' for Inactive)
REMARK    1  A    between atoms: C_4  and  S_8
REMARK    2  A    between atoms: S_8  and  C_10
REMARK    3  A    between atoms: C_10  and  C_11
REMARK                            x       y       z     vdW  Elec       q    Type
REMARK                         _______ _______ _______ _____ _____    ______ ____
ROOT
ATOM      1  C   UNL     1       3.438   3.700  -0.226  0.00  0.00    +0.000 A 
ATOM      2  C   UNL     1       4.027   4.115   0.972  0.00  0.00    +0.000 A 
ATOM      3  C   UNL     1       4.790   5.279   1.032  0.00  0.00    +0.000 A 
ATOM      4  C   UNL     1       4.972   6.049  -0.108  0.00  0.00    +0.000 A 
ATOM      5  C   UNL     1       4.395   5.655  -1.307  0.00  0.00    +0.000 A 
ATOM      6  C   UNL     1       3.634   4.490  -1.362  0.00  0.00    +0.000 A 
ATOM      7  F   UNL     1       3.084   4.116  -2.527  0.00  0.00    +0.000 F 
ATOM      8  F   UNL     1       4.573   6.391  -2.413  0.00  0.00    +0.000 F 
ATOM      9  F   UNL     1       5.711   7.166  -0.054  0.00  0.00    +0.000 F 
ATOM     10  F   UNL     1       5.357   5.649   2.189  0.00  0.00    +0.000 F 
ATOM     11  F   UNL     1       3.873   3.374   2.078  0.00  0.00    +0.000 F 
ENDROOT
BRANCH   1  12
ATOM     12  C   UNL     1       2.583   2.467  -0.281  0.00  0.00    +0.000 C 
BRANCH  12  13
ATOM     13  S   UNL     1       0.806   2.894  -0.328  0.00  0.00    +0.000 S 
ATOM     14  O   UNL     1       0.506   3.732   0.882  0.00  0.00    +0.000 OA
BRANCH  13  18
ATOM     15  C   UNL     1      -0.882  -1.305   0.540  0.00  0.00    +0.000 A 
ATOM     16  C   UNL     1      -1.065  -0.278   1.465  0.00  0.00    +0.000 A 
ATOM     17  C   UNL     1      -0.552   0.998   1.210  0.00  0.00    +0.000 A 
ATOM     18  C   UNL     1       0.153   1.251   0.029  0.00  0.00    +0.000 A 
ATOM     19  C   UNL     1       0.319   0.215  -0.892  0.00  0.00    +0.000 A 
ATOM     20  C   UNL     1      -0.188  -1.058  -0.644  0.00  0.00    +0.000 A 
ATOM     21  F   UNL     1       0.984   0.427  -2.038  0.00  0.00    +0.000 F 
ENDBRANCH  13  18
ENDBRANCH  12  13
ENDBRANCH   1  12
TORSDOF 3
