REMARK  Name = *****
REMARK  4 active torsions:
REMARK  status: ('A' for Active; 'I' for Inactive)
REMARK    1  A    between atoms: C_1  and  C_2
REMARK    2  A    between atoms: C_5  and  C_8
REMARK    3  A    between atoms: C_8  and  O_10
REMARK    4  A    between atoms: O_10  and  C_11
REMARK                            x       y       z     vdW  Elec       q    Type
REMARK                         _______ _______ _______ _____ _____    ______ ____
ROOT
ATOM      1  C   UNL     1      -3.376   0.094  -0.544  0.00  0.00    +0.000 C 
ATOM      2  O   UNL     1      -4.008  -0.839  -1.012  0.00  0.00    +0.000 OA
ENDROOT
BRANCH   1   7
ATOM      3  C   UNL     1       2.425   0.134  -0.457  0.00  0.00    +0.000 C 
ATOM      4  C   UNL     1       0.925   0.148  -0.501  0.00  0.00    +0.000 A 
ATOM      5  C   UNL     1       0.213   1.242   0.006  0.00  0.00    +0.000 A 
ATOM      6  C   UNL     1      -1.185   1.245  -0.002  0.00  0.00    +0.000 A 
ATOM      7  C   UNL     1      -1.889   0.145  -0.509  0.00  0.00    +0.000 A 
ATOM      8  C   UNL     1      -1.177  -0.955  -1.004  0.00  0.00    +0.000 A 
ATOM      9  C   UNL     1       0.220  -0.956  -0.993  0.00  0.00    +0.000 A 
ENDBRANCH   1   7
BRANCH   1  10
ATOM     10  O   UNL     1      -3.903   1.214   0.010  0.00  0.00    +0.000 OA
BRANCH  10  11
ATOM     11  C   UNL     1      -5.330   1.275   0.021  0.00  0.00    +0.000 C 
ATOM     12  C   UNL     1      -5.921   1.638  -1.356  0.00  0.00    +0.000 C 
ATOM     13  C   UNL     1      -6.731   2.914  -1.057  0.00  0.00    +0.000 C 
ATOM     14  C   UNL     1      -5.750   4.078  -0.839  0.00  0.00    +0.000 C 
ATOM     15  C   UNL     1      -5.131   3.754   0.528  0.00  0.00    +0.000 C 
ATOM     16  C   UNL     1      -5.825   2.434   0.914  0.00  0.00    +0.000 C 
ATOM     17  C   UNL     1      -7.233   2.653   0.364  0.00  0.00    +0.000 C 
ENDBRANCH  10  11
ENDBRANCH   1  10
TORSDOF 3
