MODEL 1
REMARK VINA RESULT:      -5.2      0.000      0.000
REMARK  Name = *****
REMARK  1 active torsions:
REMARK  status: ('A' for Active; 'I' for Inactive)
REMARK    1  A    between atoms: C_4  and  C_7
REMARK                            x       y       z     vdW  Elec       q    Type
REMARK                         _______ _______ _______ _____ _____    ______ ____
ROOT
ATOM      1  C   UNL     1     102.688 126.587  82.938  0.00  0.00    +0.000 C 
ATOM      2  C   UNL     1     103.261 126.525  81.530  0.00  0.00    +0.000 C 
ATOM      3  C   UNL     1     103.867 125.498  80.905  0.00  0.00    +0.000 C 
ATOM      4  C   UNL     1     104.164 124.153  81.450  0.00  0.00    +0.000 A 
ATOM      5  C   UNL     1     104.520 123.141  80.543  0.00  0.00    +0.000 A 
ATOM      6  C   UNL     1     104.851 121.859  80.992  0.00  0.00    +0.000 A 
ATOM      7  C   UNL     1     104.840 121.572  82.354  0.00  0.00    +0.000 A 
ATOM      8  C   UNL     1     104.497 122.567  83.268  0.00  0.00    +0.000 A 
ATOM      9  C   UNL     1     104.150 123.853  82.830  0.00  0.00    +0.000 A 
ATOM     10  N   UNL     1     103.834 124.829  83.796  0.00  0.00    +0.000 NA
ATOM     11  N   UNL     1     102.679 125.253  83.575  0.00  0.00    +0.000 NA
ENDROOT
BRANCH   1  15
ATOM     12  C   UNL     1      98.688 128.253  82.924  0.00  0.00    +0.000 A 
ATOM     13  C   UNL     1      99.745 128.988  83.457  0.00  0.00    +0.000 A 
ATOM     14  C   UNL     1     101.035 128.455  83.459  0.00  0.00    +0.000 A 
ATOM     15  C   UNL     1     101.285 127.180  82.923  0.00  0.00    +0.000 A 
ATOM     16  C   UNL     1     100.208 126.451  82.392  0.00  0.00    +0.000 A 
ATOM     17  C   UNL     1      98.920 126.986  82.392  0.00  0.00    +0.000 A 
ENDBRANCH   1  15
TORSDOF 1
ENDMDL
