REMARK  Name = *****
REMARK  5 active torsions:
REMARK  status: ('A' for Active; 'I' for Inactive)
REMARK    1  A    between atoms: C_4  and  N_17
REMARK    2  A    between atoms: C_5  and  C_7
REMARK    3  A    between atoms: C_8  and  C_9
REMARK    4  A    between atoms: C_12  and  N_15
REMARK    5  A    between atoms: N_15  and  O_16
REMARK                            x       y       z     vdW  Elec       q    Type
REMARK                         _______ _______ _______ _____ _____    ______ ____
ROOT
ATOM      1  C   UNL     1      -1.070   2.447   0.431  0.00  0.00    +0.000 C 
ATOM      2  C   UNL     1      -2.348   2.852   0.354  0.00  0.00    +0.000 C 
ENDROOT
BRANCH   1   7
ATOM      3  C   UNL     1      -0.643  -0.796  -1.459  0.00  0.00    +0.000 A 
ATOM      4  C   UNL     1       0.182  -1.525  -0.609  0.00  0.00    +0.000 A 
ATOM      5  C   UNL     1       0.610  -0.961   0.594  0.00  0.00    +0.000 A 
ATOM      6  C   UNL     1       0.223   0.342   0.964  0.00  0.00    +0.000 A 
ATOM      7  C   UNL     1      -0.637   1.071   0.112  0.00  0.00    +0.000 A 
ATOM      8  C   UNL     1      -1.048   0.492  -1.104  0.00  0.00    +0.000 A 
BRANCH   6   9
ATOM      9  N   UNL     1       0.636   0.874   2.174  0.00  0.00    +0.000 NA
ATOM     10  O   UNL     1       1.844   0.713   2.389  0.00  0.00    +0.000 OA
ENDBRANCH   6   9
ENDBRANCH   1   7
BRANCH   2  11
ATOM     11  C   UNL     1      -2.790   4.212   0.686  0.00  0.00    +0.000 A 
ATOM     12  C   UNL     1      -2.066   5.346   0.305  0.00  0.00    +0.000 A 
ATOM     13  C   UNL     1      -2.536   6.629   0.612  0.00  0.00    +0.000 A 
ATOM     14  C   UNL     1      -3.754   6.807   1.274  0.00  0.00    +0.000 A 
ATOM     15  C   UNL     1      -4.468   5.671   1.669  0.00  0.00    +0.000 A 
ATOM     16  C   UNL     1      -4.001   4.387   1.364  0.00  0.00    +0.000 A 
BRANCH  14  17
ATOM     17  N   UNL     1      -4.216   8.085   1.662  0.00  0.00    +0.000 N 
ATOM     18  H   UNL     1      -4.942   8.171   2.321  0.00  0.00    +0.000 HD
BRANCH  17  19
ATOM     19  O   UNL     1      -3.633   9.223   1.105  0.00  0.00    +0.000 OA
ATOM     20  H   UNL     1      -2.939   8.959   0.481  0.00  0.00    +0.000 HD
ENDBRANCH  17  19
ENDBRANCH  14  17
ENDBRANCH   2  11
TORSDOF 5
