MODEL 1
REMARK VINA RESULT:      -4.1      0.000      0.000
REMARK  Name = *****
REMARK  2 active torsions:
REMARK  status: ('A' for Active; 'I' for Inactive)
REMARK    1  A    between atoms: N_5  and  N_8
REMARK    2  A    between atoms: C_9  and  C_10
REMARK                            x       y       z     vdW  Elec       q    Type
REMARK                         _______ _______ _______ _____ _____    ______ ____
ROOT
ATOM      1  N   UNL     1     100.522 126.591  82.335  0.00  0.00    +0.000 NA
ATOM      2  C   UNL     1      99.420 127.228  82.610  0.00  0.00    +0.000 C 
ENDROOT
BRANCH   1   7
ATOM      3  C   UNL     1     103.485 124.852  81.785  0.00  0.00    +0.000 C 
ATOM      4  C   UNL     1     103.998 126.078  81.033  0.00  0.00    +0.000 C 
ATOM      5  C   UNL     1     103.081 127.296  81.071  0.00  0.00    +0.000 C 
ATOM      6  C   UNL     1     102.617 127.736  82.464  0.00  0.00    +0.000 C 
ATOM      7  N   UNL     1     101.620 126.856  83.086  0.00  0.00    +0.000 N 
ATOM      8  C   UNL     1     102.209 125.736  83.838  0.00  0.00    +0.000 C 
ATOM      9  C   UNL     1     103.475 125.069  83.293  0.00  0.00    +0.000 C 
ENDBRANCH   1   7
BRANCH   2  10
ATOM     10  C   UNL     1      99.158 128.316  83.578  0.00  0.00    +0.000 A 
ATOM     11  C   UNL     1      99.487 129.649  83.311  0.00  0.00    +0.000 A 
ATOM     12  C   UNL     1      99.189 130.641  84.249  0.00  0.00    +0.000 A 
ATOM     13  C   UNL     1      98.551 130.300  85.441  0.00  0.00    +0.000 A 
ATOM     14  C   UNL     1      98.202 128.976  85.703  0.00  0.00    +0.000 A 
ATOM     15  C   UNL     1      98.498 127.982  84.766  0.00  0.00    +0.000 A 
ATOM     16 CL   UNL     1      98.185 131.523  86.595  0.00  0.00    +0.000 Cl
ENDBRANCH   2  10
TORSDOF 2
ENDMDL
