MODEL 1
REMARK VINA RESULT:      -4.8      0.000      0.000
REMARK  Name = *****
REMARK  5 active torsions:
REMARK  status: ('A' for Active; 'I' for Inactive)
REMARK    1  A    between atoms: C_1  and  O_2
REMARK    2  A    between atoms: O_2  and  C_3
REMARK    3  A    between atoms: C_6  and  C_9
REMARK    4  A    between atoms: C_9  and  C_10
REMARK    5  A    between atoms: C_10  and  C_12
REMARK                            x       y       z     vdW  Elec       q    Type
REMARK                         _______ _______ _______ _____ _____    ______ ____
ROOT
ATOM      1  C   UNL     1     102.714 127.677  82.787  0.00  0.00    +0.000 C 
ENDROOT
BRANCH   1   5
ATOM      2  C   UNL     1      98.388 127.590  82.954  0.00  0.00    +0.000 A 
ATOM      3  C   UNL     1      99.091 128.671  83.485  0.00  0.00    +0.000 A 
ATOM      4  C   UNL     1     100.490 128.695  83.433  0.00  0.00    +0.000 A 
ATOM      5  C   UNL     1     101.205 127.638  82.853  0.00  0.00    +0.000 A 
ATOM      6  C   UNL     1     100.493 126.555  82.324  0.00  0.00    +0.000 A 
ATOM      7  C   UNL     1      99.098 126.536  82.374  0.00  0.00    +0.000 A 
BRANCH   2   9
ATOM      8  C   UNL     1      96.456 126.654  83.971  0.00  0.00    +0.000 C 
ATOM      9  O   UNL     1      97.028 127.443  82.936  0.00  0.00    +0.000 OA
ENDBRANCH   2   9
ENDBRANCH   1   5
BRANCH   1  10
ATOM     10  C   UNL     1     103.314 127.075  81.524  0.00  0.00    +0.000 C 
ATOM     11  O   UNL     1     103.423 127.692  80.465  0.00  0.00    +0.000 OA
BRANCH  10  12
ATOM     12  C   UNL     1     103.788 125.655  81.570  0.00  0.00    +0.000 A 
ATOM     13  C   UNL     1     103.811 124.904  82.754  0.00  0.00    +0.000 A 
ATOM     14  C   UNL     1     104.260 123.580  82.739  0.00  0.00    +0.000 A 
ATOM     15  C   UNL     1     104.687 123.000  81.544  0.00  0.00    +0.000 A 
ATOM     16  C   UNL     1     104.669 123.733  80.362  0.00  0.00    +0.000 A 
ATOM     17  C   UNL     1     104.221 125.057  80.375  0.00  0.00    +0.000 A 
ATOM     18 CL   UNL     1     105.236 121.370  81.534  0.00  0.00    +0.000 Cl
ENDBRANCH  10  12
ENDBRANCH   1  10
TORSDOF 4
ENDMDL
