MODEL 1
REMARK VINA RESULT:      -4.6      0.000      0.000
REMARK  Name = *****
REMARK  4 active torsions:
REMARK  status: ('A' for Active; 'I' for Inactive)
REMARK    1  A    between atoms: C_5  and  S_7
REMARK    2  A    between atoms: S_7  and  C_8
REMARK    3  A    between atoms: C_8  and  C_9
REMARK    4  A    between atoms: C_12  and  C_15
REMARK                            x       y       z     vdW  Elec       q    Type
REMARK                         _______ _______ _______ _____ _____    ______ ____
ROOT
ATOM      1  C   UNL     1     103.801 125.693  81.519  0.00  0.00    +0.000 A 
ATOM      2  C   UNL     1     103.797 124.936  82.699  0.00  0.00    +0.000 A 
ATOM      3  C   UNL     1     104.193 123.596  82.684  0.00  0.00    +0.000 A 
ATOM      4  C   UNL     1     104.609 122.989  81.491  0.00  0.00    +0.000 A 
ATOM      5  C   UNL     1     104.613 123.747  80.311  0.00  0.00    +0.000 A 
ATOM      6  C   UNL     1     104.218 125.087  80.327  0.00  0.00    +0.000 A 
ENDROOT
BRANCH   4   7
ATOM      7  C   UNL     1     105.021 121.537  81.462  0.00  0.00    +0.000 C 
ATOM      8  F   UNL     1     105.256 121.015  82.698  0.00  0.00    +0.000 F 
ATOM      9  F   UNL     1     104.072 120.742  80.895  0.00  0.00    +0.000 F 
ATOM     10  F   UNL     1     106.161 121.324  80.747  0.00  0.00    +0.000 F 
ENDBRANCH   4   7
BRANCH   1  11
ATOM     11  C   UNL     1     103.387 127.145  81.539  0.00  0.00    +0.000 C 
BRANCH  11  12
ATOM     12  S   UNL     1     102.945 127.680  83.223  0.00  0.00    +0.000 S 
BRANCH  12  17
ATOM     13  C   UNL     1      99.102 126.783  82.385  0.00  0.00    +0.000 A 
ATOM     14  C   UNL     1      98.441 127.920  82.833  0.00  0.00    +0.000 A 
ATOM     15  C   UNL     1      99.199 128.940  83.382  0.00  0.00    +0.000 A 
ATOM     16  N   UNL     1     100.545 128.896  83.507  0.00  0.00    +0.000 NA
ATOM     17  C   UNL     1     101.171 127.782  83.067  0.00  0.00    +0.000 A 
ATOM     18  C   UNL     1     100.487 126.710  82.505  0.00  0.00    +0.000 A 
ENDBRANCH  12  17
ENDBRANCH  11  12
ENDBRANCH   1  11
TORSDOF 4
ENDMDL
