MODEL 1
REMARK VINA RESULT:      -4.3      0.000      0.000
REMARK  Name = *****
REMARK  3 active torsions:
REMARK  status: ('A' for Active; 'I' for Inactive)
REMARK    1  A    between atoms: C_7  and  O_8
REMARK    2  A    between atoms: O_8  and  C_9
REMARK    3  A    between atoms: C_9  and  C_11
REMARK                            x       y       z     vdW  Elec       q    Type
REMARK                         _______ _______ _______ _____ _____    ______ ____
ROOT
ATOM      1  O   UNL     1     101.754 126.475  82.936  0.00  0.00    +0.000 OA
ENDROOT
BRANCH   1   8
ATOM      2  C   UNL     1     104.742 125.511  80.074  0.00  0.00    +0.000 C 
ATOM      3  C   UNL     1     104.061 124.373  80.851  0.00  0.00    +0.000 C 
ATOM      4  C   UNL     1     103.550 125.080  82.116  0.00  0.00    +0.000 C 
ATOM      5  C   UNL     1     104.672 126.087  82.382  0.00  0.00    +0.000 C 
ATOM      6  C   UNL     1     104.551 126.725  81.000  0.00  0.00    +0.000 C 
ATOM      7  C   UNL     1     103.072 127.147  80.977  0.00  0.00    +0.000 C 
ATOM      8  C   UNL     1     102.371 125.999  81.731  0.00  0.00    +0.000 C 
ENDBRANCH   1   8
BRANCH   1   9
ATOM      9  C   UNL     1     100.533 127.044  82.776  0.00  0.00    +0.000 C 
ATOM     10  O   UNL     1      99.573 126.532  82.221  0.00  0.00    +0.000 OA
BRANCH   9  11
ATOM     11  C   UNL     1     100.510 128.407  83.370  0.00  0.00    +0.000 A 
ATOM     12  C   UNL     1      99.373 129.228  83.331  0.00  0.00    +0.000 A 
ATOM     13  C   UNL     1      99.406 130.500  83.908  0.00  0.00    +0.000 A 
ATOM     14  C   UNL     1     100.570 130.959  84.524  0.00  0.00    +0.000 A 
ATOM     15  C   UNL     1     101.704 130.149  84.567  0.00  0.00    +0.000 A 
ATOM     16  C   UNL     1     101.676 128.877  83.991  0.00  0.00    +0.000 A 
ENDBRANCH   9  11
ENDBRANCH   1   9
TORSDOF 3
ENDMDL
