MODEL 1
REMARK VINA RESULT:      -5.1      0.000      0.000
REMARK  Name = *****
REMARK  4 active torsions:
REMARK  status: ('A' for Active; 'I' for Inactive)
REMARK    1  A    between atoms: C_1  and  C_2
REMARK    2  A    between atoms: C_4  and  C_8
REMARK    3  A    between atoms: C_8  and  C_10
REMARK    4  A    between atoms: C_10  and  C_11
REMARK                            x       y       z     vdW  Elec       q    Type
REMARK                         _______ _______ _______ _____ _____    ______ ____
ROOT
ATOM      1  C   UNL     1      87.836  70.716  85.873  0.00  0.00    +0.000 C 
ATOM      2  O   UNL     1      87.933  70.694  84.645  0.00  0.00    +0.000 OA
ENDROOT
BRANCH   1   6
ATOM      3  C   UNL     1      83.344  73.040  85.586  0.00  0.00    +0.000 C 
ATOM      4  C   UNL     1      84.436  72.396  86.390  0.00  0.00    +0.000 A 
ATOM      5  C   UNL     1      85.569  71.867  85.753  0.00  0.00    +0.000 A 
ATOM      6  C   UNL     1      86.609  71.299  86.501  0.00  0.00    +0.000 A 
ATOM      7  C   UNL     1      86.512  71.278  87.899  0.00  0.00    +0.000 A 
ATOM      8  C   UNL     1      85.395  71.814  88.539  0.00  0.00    +0.000 A 
ATOM      9  C   UNL     1      84.363  72.375  87.788  0.00  0.00    +0.000 A 
ENDBRANCH   1   6
BRANCH   1  10
ATOM     10  C   UNL     1      88.943  70.153  86.747  0.00  0.00    +0.000 C 
BRANCH  10  11
ATOM     11  C   UNL     1      88.969  68.643  86.804  0.00  0.00    +0.000 A 
ATOM     12  C   UNL     1      90.009  67.930  86.186  0.00  0.00    +0.000 A 
ATOM     13  C   UNL     1      90.033  66.530  86.218  0.00  0.00    +0.000 A 
ATOM     14  C   UNL     1      89.006  65.828  86.857  0.00  0.00    +0.000 A 
ATOM     15  C   UNL     1      87.959  66.530  87.457  0.00  0.00    +0.000 A 
ATOM     16  C   UNL     1      87.937  67.927  87.426  0.00  0.00    +0.000 A 
ATOM     17 CL   UNL     1      88.971  64.104  86.936  0.00  0.00    +0.000 Cl
ATOM     18 CL   UNL     1      91.359  65.736  85.445  0.00  0.00    +0.000 Cl
ENDBRANCH  10  11
ENDBRANCH   1  10
TORSDOF 3
ENDMDL
