REMARK  Name = *****
REMARK  1 active torsions:
REMARK  status: ('A' for Active; 'I' for Inactive)
REMARK    1  A    between atoms: C_5  and  C_6
REMARK                            x       y       z     vdW  Elec       q    Type
REMARK                         _______ _______ _______ _____ _____    ______ ____
ROOT
ATOM      1  C   UNL     1      -2.305  -1.096   0.044  0.00  0.00    +0.000 C 
ATOM      2  C   UNL     1      -2.689  -2.387   0.056  0.00  0.00    +0.000 C 
ATOM      3  S   UNL     1      -1.610  -3.758   0.044  0.00  0.00    +0.000 S 
ATOM      4  C   UNL     1      -2.895  -4.982   0.080  0.00  0.00    +0.000 A 
ATOM      5  C   UNL     1      -2.641  -6.352   0.088  0.00  0.00    +0.000 A 
ATOM      6  C   UNL     1      -3.712  -7.249   0.118  0.00  0.00    +0.000 A 
ATOM      7  C   UNL     1      -5.026  -6.774   0.138  0.00  0.00    +0.000 A 
ATOM      8  C   UNL     1      -5.278  -5.400   0.130  0.00  0.00    +0.000 A 
ATOM      9  C   UNL     1      -4.208  -4.509   0.100  0.00  0.00    +0.000 A 
ATOM     10  S   UNL     1      -4.414  -2.745   0.087  0.00  0.00    +0.000 S 
ENDROOT
BRANCH   1  15
ATOM     11  C   UNL     1       0.346  -1.172   0.007  0.00  0.00    +0.000 C 
ATOM     12  C   UNL     1       1.303  -0.013  -0.012  0.00  0.00    +0.000 C 
ATOM     13  C   UNL     1       0.618   1.139  -0.010  0.00  0.00    +0.000 C 
ATOM     14  C   UNL     1      -0.794   0.849   0.011  0.00  0.00    +0.000 C 
ATOM     15  C   UNL     1      -0.996  -0.481   0.021  0.00  0.00    +0.000 C 
ENDBRANCH   1  15
TORSDOF 1
