MODEL 1
REMARK VINA RESULT:      -4.8      0.000      0.000
REMARK  Name = *****
REMARK  6 active torsions:
REMARK  status: ('A' for Active; 'I' for Inactive)
REMARK    1  A    between atoms: C_1  and  C_2
REMARK    2  A    between atoms: C_4  and  C_18
REMARK    3  A    between atoms: C_5  and  N_9
REMARK    4  A    between atoms: C_6  and  C_8
REMARK    5  A    between atoms: N_9  and  C_10
REMARK    6  A    between atoms: C_10  and  C_12
REMARK                            x       y       z     vdW  Elec       q    Type
REMARK                         _______ _______ _______ _____ _____    ______ ____
ROOT
ATOM      1  N   UNL     1     102.564 127.329  82.895  0.00  0.00    +0.000 N 
ATOM      2  H   UNL     1     103.184 127.965  83.321  0.00  0.00    +0.000 HD
ENDROOT
BRANCH   1   7
ATOM      3  C   UNL     1     104.957 122.685  80.526  0.00  0.00    +0.000 C 
ATOM      4  C   UNL     1     104.371 123.920  81.143  0.00  0.00    +0.000 A 
ATOM      5  C   UNL     1     104.115 125.052  80.365  0.00  0.00    +0.000 A 
ATOM      6  C   UNL     1     103.545 126.212  80.920  0.00  0.00    +0.000 A 
ATOM      7  C   UNL     1     103.151 126.200  82.274  0.00  0.00    +0.000 A 
ATOM      8  C   UNL     1     103.434 125.074  83.077  0.00  0.00    +0.000 A 
ATOM      9  C   UNL     1     104.031 123.942  82.497  0.00  0.00    +0.000 A 
ATOM     10  C   UNL     1     103.073 125.025  84.538  0.00  0.00    +0.000 C 
ATOM     11  C   UNL     1     103.452 127.419  80.026  0.00  0.00    +0.000 C 
ENDBRANCH   1   7
BRANCH   1  12
ATOM     12  C   UNL     1     101.206 127.640  82.972  0.00  0.00    +0.000 C 
ATOM     13  S   UNL     1      99.918 126.655  82.525  0.00  0.00    +0.000 S 
BRANCH  12  14
ATOM     14  C   UNL     1     100.974 128.973  83.607  0.00  0.00    +0.000 A 
ATOM     15  C   UNL     1      99.694 129.545  83.534  0.00  0.00    +0.000 A 
ATOM     16  C   UNL     1      99.458 130.800  84.097  0.00  0.00    +0.000 A 
ATOM     17  C   UNL     1     100.494 131.487  84.730  0.00  0.00    +0.000 A 
ATOM     18  C   UNL     1     101.769 130.923  84.802  0.00  0.00    +0.000 A 
ATOM     19  C   UNL     1     102.011 129.667  84.241  0.00  0.00    +0.000 A 
ENDBRANCH  12  14
ENDBRANCH   1  12
TORSDOF 3
ENDMDL
