MODEL 1
REMARK VINA RESULT:      -4.9      0.000      0.000
REMARK  Name = *****
REMARK  4 active torsions:
REMARK  status: ('A' for Active; 'I' for Inactive)
REMARK    1  A    between atoms: C_6  and  C_7
REMARK    2  A    between atoms: C_7  and  C_8
REMARK    3  A    between atoms: C_8  and  C_9
REMARK    4  A    between atoms: C_9  and  C_11
REMARK                            x       y       z     vdW  Elec       q    Type
REMARK                         _______ _______ _______ _____ _____    ______ ____
ROOT
ATOM      1  C   UNL     1     102.974 127.416  83.098  0.00  0.00    +0.000 C 
ATOM      2  O   UNL     1     103.412 126.666  83.967  0.00  0.00    +0.000 OA
ENDROOT
BRANCH   1   3
ATOM      3  C   UNL     1     101.507 127.701  83.062  0.00  0.00    +0.000 A 
ATOM      4  C   UNL     1     100.966 128.902  83.535  0.00  0.00    +0.000 A 
ATOM      5  C   UNL     1      99.588 129.105  83.473  0.00  0.00    +0.000 A 
ATOM      6  C   UNL     1      98.736 128.142  82.952  0.00  0.00    +0.000 A 
ATOM      7  C   UNL     1      99.281 126.956  82.485  0.00  0.00    +0.000 A 
ATOM      8  C   UNL     1     100.652 126.725  82.533  0.00  0.00    +0.000 A 
ATOM      9  F   UNL     1      98.472 126.016  81.979  0.00  0.00    +0.000 F 
ATOM     10  F   UNL     1      99.079 130.257  83.928  0.00  0.00    +0.000 F 
ENDBRANCH   1   3
BRANCH   1  11
ATOM     11  C   UNL     1     103.870 128.065  82.059  0.00  0.00    +0.000 C 
BRANCH  11  12
ATOM     12  C   UNL     1     103.607 127.507  80.661  0.00  0.00    +0.000 C 
BRANCH  12  18
ATOM     13  C   UNL     1     105.722 126.298  79.989  0.00  0.00    +0.000 A 
ATOM     14  C   UNL     1     106.452 125.126  79.789  0.00  0.00    +0.000 A 
ATOM     15  C   UNL     1     105.850 123.895  80.025  0.00  0.00    +0.000 A 
ATOM     16  C   UNL     1     104.531 123.816  80.457  0.00  0.00    +0.000 A 
ATOM     17  C   UNL     1     103.800 124.987  80.658  0.00  0.00    +0.000 A 
ATOM     18  C   UNL     1     104.389 126.238  80.421  0.00  0.00    +0.000 A 
ATOM     19  F   UNL     1     106.551 122.770  79.834  0.00  0.00    +0.000 F 
ENDBRANCH  12  18
ENDBRANCH  11  12
ENDBRANCH   1  11
TORSDOF 4
ENDMDL
