REMARK  Name = *****
REMARK  4 active torsions:
REMARK  status: ('A' for Active; 'I' for Inactive)
REMARK    1  A    between atoms: C_4  and  S_7
REMARK    2  A    between atoms: S_7  and  C_9
REMARK    3  A    between atoms: C_9  and  C_10
REMARK    4  A    between atoms: C_13  and  C_16
REMARK                            x       y       z     vdW  Elec       q    Type
REMARK                         _______ _______ _______ _____ _____    ______ ____
ROOT
ATOM      1  C   UNL     1      -3.900  -0.739  -0.534  0.00  0.00    +0.000 C 
ENDROOT
BRANCH   1   2
ATOM      2  C   UNL     1      -5.401  -0.616  -0.577  0.00  0.00    +0.000 A 
ATOM      3  C   UNL     1      -6.028   0.038  -1.646  0.00  0.00    +0.000 A 
ATOM      4  C   UNL     1      -7.419   0.161  -1.688  0.00  0.00    +0.000 A 
ATOM      5  C   UNL     1      -8.211  -0.358  -0.656  0.00  0.00    +0.000 A 
ATOM      6  C   UNL     1      -7.584  -1.015   0.411  0.00  0.00    +0.000 A 
ATOM      7  C   UNL     1      -6.193  -1.140   0.453  0.00  0.00    +0.000 A 
BRANCH   5   8
ATOM      8  C   UNL     1      -9.708  -0.231  -0.704  0.00  0.00    +0.000 C 
ATOM      9 CL   UNL     1     -10.437  -1.699  -1.385  0.00  0.00    +0.000 Cl
ENDBRANCH   5   8
ENDBRANCH   1   2
BRANCH   1  10
ATOM     10  S   UNL     1      -3.110   0.811   0.025  0.00  0.00    +0.000 S 
ATOM     11  O   UNL     1      -3.131   1.776  -1.127  0.00  0.00    +0.000 OA
BRANCH  10  15
ATOM     12  C   UNL     1       1.193  -0.821   0.240  0.00  0.00    +0.000 A 
ATOM     13  C   UNL     1       0.797  -0.058  -0.857  0.00  0.00    +0.000 A 
ATOM     14  C   UNL     1      -0.505   0.441  -0.928  0.00  0.00    +0.000 A 
ATOM     15  C   UNL     1      -1.418   0.175   0.097  0.00  0.00    +0.000 A 
ATOM     16  C   UNL     1      -1.012  -0.583   1.202  0.00  0.00    +0.000 A 
ATOM     17  C   UNL     1       0.290  -1.082   1.271  0.00  0.00    +0.000 A 
ENDBRANCH  10  15
ENDBRANCH   1  10
TORSDOF 4
