MODEL 1
REMARK VINA RESULT:      -4.9      0.000      0.000
REMARK  Name = *****
REMARK  6 active torsions:
REMARK  status: ('A' for Active; 'I' for Inactive)
REMARK    1  A    between atoms: C_1  and  C_2
REMARK    2  A    between atoms: C_5  and  C_8
REMARK    3  A    between atoms: C_8  and  C_9
REMARK    4  A    between atoms: C_9  and  C_11
REMARK    5  A    between atoms: C_14  and  O_17
REMARK    6  A    between atoms: O_17  and  C_18
REMARK                            x       y       z     vdW  Elec       q    Type
REMARK                         _______ _______ _______ _____ _____    ______ ____
ROOT
ATOM      1  C   UNL     1      88.846  70.091  86.604  0.00  0.00    +0.000 C 
ATOM      2  O   UNL     1      89.659  70.783  87.218  0.00  0.00    +0.000 OA
ENDROOT
BRANCH   1   3
ATOM      3  C   UNL     1      88.912  68.601  86.732  0.00  0.00    +0.000 A 
ATOM      4  C   UNL     1      89.983  67.840  86.249  0.00  0.00    +0.000 A 
ATOM      5  C   UNL     1      89.979  66.443  86.379  0.00  0.00    +0.000 A 
ATOM      6  C   UNL     1      88.909  65.795  86.994  0.00  0.00    +0.000 A 
ATOM      7  C   UNL     1      87.849  66.553  87.491  0.00  0.00    +0.000 A 
ATOM      8  C   UNL     1      87.846  67.944  87.361  0.00  0.00    +0.000 A 
BRANCH   6   9
ATOM      9  O   UNL     1      88.782  64.446  87.175  0.00  0.00    +0.000 OA
ATOM     10  C   UNL     1      88.506  63.998  88.496  0.00  0.00    +0.000 C 
ENDBRANCH   6   9
ENDBRANCH   1   3
BRANCH   1  11
ATOM     11  C   UNL     1      87.792  70.736  85.721  0.00  0.00    +0.000 C 
BRANCH  11  16
ATOM     12  C   UNL     1      83.171  72.971  88.489  0.00  0.00    +0.000 C 
ATOM     13  C   UNL     1      84.350  72.375  87.780  0.00  0.00    +0.000 A 
ATOM     14  C   UNL     1      85.403  71.812  88.509  0.00  0.00    +0.000 A 
ATOM     15  C   UNL     1      86.518  71.284  87.854  0.00  0.00    +0.000 A 
ATOM     16  C   UNL     1      86.596  71.295  86.455  0.00  0.00    +0.000 A 
ATOM     17  C   UNL     1      85.559  71.899  85.730  0.00  0.00    +0.000 A 
ATOM     18  C   UNL     1      84.447  72.433  86.387  0.00  0.00    +0.000 A 
ENDBRANCH  11  16
ENDBRANCH   1  11
TORSDOF 4
ENDMDL
