MODEL 1
REMARK VINA RESULT:      -4.4      0.000      0.000
REMARK  Name = *****
REMARK  5 active torsions:
REMARK  status: ('A' for Active; 'I' for Inactive)
REMARK    1  A    between atoms: C_1  and  C_2
REMARK    2  A    between atoms: C_2  and  C_3
REMARK    3  A    between atoms: C_2  and  N_9
REMARK    4  A    between atoms: N_9  and  C_10
REMARK    5  A    between atoms: N_9  and  C_11
REMARK                            x       y       z     vdW  Elec       q    Type
REMARK                         _______ _______ _______ _____ _____    ______ ____
ROOT
ATOM      1  C   UNL     1     103.883 128.469  83.088  0.00  0.00    +0.000 C 
ATOM      2  C   UNL     1     102.884 127.359  82.724  0.00  0.00    +0.000 C 
ENDROOT
BRANCH   2   3
ATOM      3  C   UNL     1     101.400 127.823  82.625  0.00  0.00    +0.000 C 
ATOM      4  C   UNL     1     100.962 128.825  83.709  0.00  0.00    +0.000 C 
ATOM      5  C   UNL     1      99.501 129.243  83.541  0.00  0.00    +0.000 C 
ATOM      6  C   UNL     1      98.566 128.039  83.505  0.00  0.00    +0.000 C 
ATOM      7  C   UNL     1      98.987 127.041  82.433  0.00  0.00    +0.000 C 
ATOM      8  C   UNL     1     100.443 126.614  82.608  0.00  0.00    +0.000 C 
ENDBRANCH   2   3
BRANCH   2   9
ATOM      9  N   UNL     1     103.288 126.625  81.498  0.00  0.00    +0.000 N 
ATOM     10  C   UNL     1     103.547 127.370  80.268  0.00  0.00    +0.000 C 
BRANCH   9  11
ATOM     11  C   UNL     1     103.768 125.313  81.602  0.00  0.00    +0.000 A 
ATOM     12  C   UNL     1     104.238 124.603  80.484  0.00  0.00    +0.000 A 
ATOM     13  C   UNL     1     104.733 123.295  80.578  0.00  0.00    +0.000 A 
ATOM     14  C   UNL     1     104.776 122.653  81.809  0.00  0.00    +0.000 A 
ATOM     15  C   UNL     1     104.330 123.326  82.940  0.00  0.00    +0.000 A 
ATOM     16  C   UNL     1     103.839 124.635  82.833  0.00  0.00    +0.000 A 
ENDBRANCH   9  11
ENDBRANCH   2   9
TORSDOF 3
ENDMDL
