MODEL 1
REMARK VINA RESULT:      -4.8      0.000      0.000
REMARK  Name = *****
REMARK  2 active torsions:
REMARK  status: ('A' for Active; 'I' for Inactive)
REMARK    1  A    between atoms: C_4  and  C_7
REMARK    2  A    between atoms: C_8  and  C_9
REMARK                            x       y       z     vdW  Elec       q    Type
REMARK                         _______ _______ _______ _____ _____    ______ ____
ROOT
ATOM      1  C   UNL     1     101.956 125.926  81.951  0.00  0.00    +0.000 C 
ATOM      2  C   UNL     1     103.065 125.462  82.548  0.00  0.00    +0.000 C 
ENDROOT
BRANCH   2   3
ATOM      3  C   UNL     1     103.948 124.453  81.963  0.00  0.00    +0.000 A 
ATOM      4  C   UNL     1     104.544 123.476  82.734  0.00  0.00    +0.000 A 
ATOM      5  C   UNL     1     105.383 122.376  82.556  0.00  0.00    +0.000 A 
ATOM      6  C   UNL     1     105.587 122.379  81.205  0.00  0.00    +0.000 A 
ATOM      7  C   UNL     1     105.065 123.286  80.232  0.00  0.00    +0.000 A 
ATOM      8  C   UNL     1     104.231 124.327  80.622  0.00  0.00    +0.000 A 
ATOM      9  S   UNL     1     104.775 122.904  84.249  0.00  0.00    +0.000 S 
ATOM     10  O   UNL     1     103.655 121.948  84.526  0.00  0.00    +0.000 OA
ENDBRANCH   2   3
BRANCH   1  14
ATOM     11  C   UNL     1      99.310 128.877  83.566  0.00  0.00    +0.000 A 
ATOM     12  C   UNL     1     100.686 129.035  83.716  0.00  0.00    +0.000 A 
ATOM     13  C   UNL     1     101.562 128.076  83.200  0.00  0.00    +0.000 A 
ATOM     14  C   UNL     1     101.070 126.943  82.539  0.00  0.00    +0.000 A 
ATOM     15  C   UNL     1      99.685 126.804  82.382  0.00  0.00    +0.000 A 
ATOM     16  C   UNL     1      98.808 127.763  82.897  0.00  0.00    +0.000 A 
ENDBRANCH   1  14
TORSDOF 2
ENDMDL
