MODEL 1
REMARK VINA RESULT:      -4.3      0.000      0.000
REMARK  Name = *****
REMARK  5 active torsions:
REMARK  status: ('A' for Active; 'I' for Inactive)
REMARK    1  A    between atoms: C_1  and  C_2
REMARK    2  A    between atoms: C_2  and  C_18
REMARK    3  A    between atoms: P_5  and  S_9
REMARK    4  A    between atoms: S_9  and  C_10
REMARK    5  A    between atoms: C_10  and  C_12
REMARK                            x       y       z     vdW  Elec       q    Type
REMARK                         _______ _______ _______ _____ _____    ______ ____
ROOT
ATOM      1  C   UNL     1      88.542  63.830  89.723  0.00  0.00    +0.000 C 
ATOM      2  C   UNL     1      87.756  63.862  88.401  0.00  0.00    +0.000 C 
ATOM      3  C   UNL     1      86.698  64.981  88.485  0.00  0.00    +0.000 C 
ATOM      4  O   UNL     1      86.480  65.545  87.202  0.00  0.00    +0.000 OA
ATOM      5  P   UNL     1      87.702  66.417  86.569  0.00  0.00    +0.000 P 
ATOM      6  S   UNL     1      87.635  66.456  84.622  0.00  0.00    +0.000 S 
ATOM      7  O   UNL     1      88.956  65.513  87.102  0.00  0.00    +0.000 OA
ATOM      8  C   UNL     1      88.711  64.120  87.220  0.00  0.00    +0.000 C 
ATOM      9  C   UNL     1      87.077  62.498  88.199  0.00  0.00    +0.000 C 
ENDROOT
BRANCH   5  10
ATOM     10  S   UNL     1      87.858  68.229  87.604  0.00  0.00    +0.000 S 
BRANCH  10  11
ATOM     11  C   UNL     1      89.196  68.953  86.742  0.00  0.00    +0.000 C 
ATOM     12  O   UNL     1      90.245  68.342  86.600  0.00  0.00    +0.000 OA
BRANCH  11  13
ATOM     13  C   UNL     1      88.914  70.324  86.149  0.00  0.00    +0.000 C 
ATOM     14  C   UNL     1      87.474  70.374  85.624  0.00  0.00    +0.000 C 
ATOM     15  C   UNL     1      87.169  71.707  84.947  0.00  0.00    +0.000 C 
ATOM     16  C   UNL     1      88.174  72.026  83.846  0.00  0.00    +0.000 C 
ATOM     17  C   UNL     1      89.610  71.975  84.362  0.00  0.00    +0.000 C 
ATOM     18  C   UNL     1      89.917  70.638  85.031  0.00  0.00    +0.000 C 
ENDBRANCH  11  13
ENDBRANCH  10  11
ENDBRANCH   5  10
TORSDOF 3
ENDMDL
