MODEL 1
REMARK VINA RESULT:      -4.2      0.000      0.000
REMARK  Name = *****
REMARK  2 active torsions:
REMARK  status: ('A' for Active; 'I' for Inactive)
REMARK    1  A    between atoms: C_5  and  C_6
REMARK    2  A    between atoms: C_7  and  C_8
REMARK                            x       y       z     vdW  Elec       q    Type
REMARK                         _______ _______ _______ _____ _____    ______ ____
ROOT
ATOM      1  C   UNL     1     102.843 125.629  83.243  0.00  0.00    +0.000 C 
ATOM      2  C   UNL     1     101.732 125.861  82.526  0.00  0.00    +0.000 C 
ENDROOT
BRANCH   1   7
ATOM      3  C   UNL     1     106.150 123.858  79.419  0.00  0.00    +0.000 C 
ATOM      4  C   UNL     1     105.280 125.104  79.531  0.00  0.00    +0.000 C 
ATOM      5  S   UNL     1     105.294 125.832  81.191  0.00  0.00    +0.000 S 
ATOM      6  C   UNL     1     104.769 124.464  82.129  0.00  0.00    +0.000 C 
ATOM      7  C   UNL     1     103.725 124.507  82.979  0.00  0.00    +0.000 C 
ATOM      8  S   UNL     1     105.698 122.990  82.031  0.00  0.00    +0.000 S 
ATOM      9  C   UNL     1     105.628 122.687  80.244  0.00  0.00    +0.000 C 
ENDBRANCH   1   7
BRANCH   2  10
ATOM     10  C   UNL     1     100.811 126.982  82.767  0.00  0.00    +0.000 A 
ATOM     11  C   UNL     1      99.447 126.915  82.453  0.00  0.00    +0.000 A 
ATOM     12  C   UNL     1      98.599 127.992  82.730  0.00  0.00    +0.000 A 
ATOM     13  C   UNL     1      99.104 129.142  83.333  0.00  0.00    +0.000 A 
ATOM     14  C   UNL     1     100.455 129.214  83.666  0.00  0.00    +0.000 A 
ATOM     15  C   UNL     1     101.302 128.138  83.389  0.00  0.00    +0.000 A 
ENDBRANCH   2  10
TORSDOF 2
ENDMDL
