MODEL 1
REMARK VINA RESULT:      -4.4      0.000      0.000
REMARK  Name = *****
REMARK  2 active torsions:
REMARK  status: ('A' for Active; 'I' for Inactive)
REMARK    1  A    between atoms: C_6  and  C_7
REMARK    2  A    between atoms: C_8  and  C_9
REMARK                            x       y       z     vdW  Elec       q    Type
REMARK                         _______ _______ _______ _____ _____    ______ ____
ROOT
ATOM      1  C   UNL     1     102.062 127.857  83.234  0.00  0.00    +0.000 A 
ATOM      2  C   UNL     1     101.071 128.762  83.621  0.00  0.00    +0.000 A 
ATOM      3  C   UNL     1      99.739 128.481  83.341  0.00  0.00    +0.000 A 
ATOM      4  C   UNL     1      99.379 127.311  82.687  0.00  0.00    +0.000 A 
ATOM      5  C   UNL     1     100.369 126.405  82.300  0.00  0.00    +0.000 A 
ATOM      6  C   UNL     1     101.721 126.676  82.557  0.00  0.00    +0.000 A 
ATOM      7  F   UNL     1      98.790 129.349  83.713  0.00  0.00    +0.000 F 
ENDROOT
BRANCH   6   8
ATOM      8  C   UNL     1     102.732 125.684  82.162  0.00  0.00    +0.000 C 
ATOM      9  C   UNL     1     103.261 125.610  80.929  0.00  0.00    +0.000 C 
BRANCH   9  10
ATOM     10  C   UNL     1     104.237 124.659  80.505  0.00  0.00    +0.000 A 
ATOM     11  C   UNL     1     105.163 124.889  79.511  0.00  0.00    +0.000 A 
ATOM     12  O   UNL     1     105.955 123.799  79.334  0.00  0.00    +0.000 OA
ATOM     13  C   UNL     1     105.536 122.862  80.222  0.00  0.00    +0.000 A 
ATOM     14  C   UNL     1     104.482 123.340  80.967  0.00  0.00    +0.000 A 
ENDBRANCH   9  10
ENDBRANCH   6   8
TORSDOF 2
ENDMDL
