MODEL 1
REMARK VINA RESULT:      -5.2      0.000      0.000
REMARK  Name = *****
REMARK  2 active torsions:
REMARK  status: ('A' for Active; 'I' for Inactive)
REMARK    1  A    between atoms: C_4  and  C_7
REMARK    2  A    between atoms: C_8  and  C_9
REMARK                            x       y       z     vdW  Elec       q    Type
REMARK                         _______ _______ _______ _____ _____    ______ ____
ROOT
ATOM      1  C   UNL     1     102.902 126.186  81.229  0.00  0.00    +0.000 C 
ATOM      2  C   UNL     1     101.973 125.967  82.174  0.00  0.00    +0.000 C 
ENDROOT
BRANCH   2   3
ATOM      3  C   UNL     1     100.992 126.961  82.606  0.00  0.00    +0.000 A 
ATOM      4  C   UNL     1      99.653 126.898  82.402  0.00  0.00    +0.000 A 
ATOM      5  C   UNL     1      98.490 127.640  82.674  0.00  0.00    +0.000 A 
ATOM      6  C   UNL     1      98.976 128.723  83.338  0.00  0.00    +0.000 A 
ATOM      7  C   UNL     1     100.341 128.998  83.659  0.00  0.00    +0.000 A 
ATOM      8  C   UNL     1     101.350 128.107  83.285  0.00  0.00    +0.000 A 
ATOM      9  O   UNL     1      98.544 126.464  82.021  0.00  0.00    +0.000 OA
ENDBRANCH   2   3
BRANCH   1  13
ATOM     10  C   UNL     1     105.797 123.253  80.071  0.00  0.00    +0.000 A 
ATOM     11  C   UNL     1     105.704 124.443  79.354  0.00  0.00    +0.000 A 
ATOM     12  C   UNL     1     104.757 125.406  79.714  0.00  0.00    +0.000 A 
ATOM     13  C   UNL     1     103.885 125.183  80.788  0.00  0.00    +0.000 A 
ATOM     14  C   UNL     1     104.000 123.988  81.511  0.00  0.00    +0.000 A 
ATOM     15  C   UNL     1     104.947 123.025  81.151  0.00  0.00    +0.000 A 
ENDBRANCH   1  13
TORSDOF 2
ENDMDL
