MODEL 1
REMARK VINA RESULT:      -5.0      0.000      0.000
REMARK  Name = *****
REMARK  1 active torsions:
REMARK  status: ('A' for Active; 'I' for Inactive)
REMARK    1  A    between atoms: C_4  and  C_7
REMARK                            x       y       z     vdW  Elec       q    Type
REMARK                         _______ _______ _______ _____ _____    ______ ____
ROOT
ATOM      1  C   UNL     1     102.156 126.344  82.360  0.00  0.00    +0.000 C 
ATOM      2  C   UNL     1     102.693 126.245  81.127  0.00  0.00    +0.000 C 
ATOM      3  C   UNL     1     103.644 125.147  81.117  0.00  0.00    +0.000 A 
ATOM      4  C   UNL     1     104.435 124.669  80.089  0.00  0.00    +0.000 A 
ATOM      5  C   UNL     1     105.276 123.584  80.351  0.00  0.00    +0.000 A 
ATOM      6  C   UNL     1     105.311 122.997  81.628  0.00  0.00    +0.000 A 
ATOM      7  C   UNL     1     104.507 123.487  82.660  0.00  0.00    +0.000 A 
ATOM      8  C   UNL     1     103.680 124.562  82.386  0.00  0.00    +0.000 A 
ATOM      9  C   UNL     1     102.727 125.279  83.292  0.00  0.00    +0.000 C 
ENDROOT
BRANCH   1  13
ATOM     10  C   UNL     1      99.320 129.492  83.334  0.00  0.00    +0.000 C 
ATOM     11  C   UNL     1     100.554 129.362  84.216  0.00  0.00    +0.000 C 
ATOM     12  C   UNL     1     101.654 128.563  83.510  0.00  0.00    +0.000 C 
ATOM     13  C   UNL     1     101.159 127.318  82.795  0.00  0.00    +0.000 C 
ATOM     14  C   UNL     1      99.841 127.133  82.582  0.00  0.00    +0.000 C 
ATOM     15  C   UNL     1      98.773 128.116  82.969  0.00  0.00    +0.000 C 
ENDBRANCH   1  13
TORSDOF 1
ENDMDL
