MODEL 1
REMARK VINA RESULT:      -4.2      0.000      0.000
REMARK  Name = *****
REMARK  3 active torsions:
REMARK  status: ('A' for Active; 'I' for Inactive)
REMARK    1  A    between atoms: C_1  and  C_2
REMARK    2  A    between atoms: C_5  and  C_8
REMARK    3  A    between atoms: C_9  and  C_10
REMARK                            x       y       z     vdW  Elec       q    Type
REMARK                         _______ _______ _______ _____ _____    ______ ____
ROOT
ATOM      1  C   UNL     1      87.770  63.949  87.819  0.00  0.00    +0.000 C 
ATOM      2  C   UNL     1      88.629  64.593  87.010  0.00  0.00    +0.000 C 
ATOM      3 CL   UNL     1      86.547  62.875  87.249  0.00  0.00    +0.000 Cl
ENDROOT
BRANCH   1   8
ATOM      4  C   UNL     1      88.059  64.633  93.556  0.00  0.00    +0.000 C 
ATOM      5  C   UNL     1      87.977  64.428  92.072  0.00  0.00    +0.000 A 
ATOM      6  C   UNL     1      89.096  63.995  91.353  0.00  0.00    +0.000 A 
ATOM      7  C   UNL     1      89.029  63.839  89.965  0.00  0.00    +0.000 A 
ATOM      8  C   UNL     1      87.844  64.125  89.275  0.00  0.00    +0.000 A 
ATOM      9  C   UNL     1      86.730  64.574  89.994  0.00  0.00    +0.000 A 
ATOM     10  C   UNL     1      86.798  64.729  91.381  0.00  0.00    +0.000 A 
ENDBRANCH   1   8
BRANCH   2  11
ATOM     11  C   UNL     1      88.686  64.525  85.513  0.00  0.00    +0.000 C 
ATOM     12  S   UNL     1      89.387  66.043  84.808  0.00  0.00    +0.000 S 
ATOM     13  C   UNL     1      91.123  65.901  85.312  0.00  0.00    +0.000 C 
ATOM     14  C   UNL     1      91.793  64.630  84.816  0.00  0.00    +0.000 C 
ATOM     15  C   UNL     1      91.234  63.361  85.442  0.00  0.00    +0.000 C 
ATOM     16  S   UNL     1      89.523  63.021  84.949  0.00  0.00    +0.000 S 
ENDBRANCH   2  11
TORSDOF 2
ENDMDL
