REMARK  Name = *****
REMARK  4 active torsions:
REMARK  status: ('A' for Active; 'I' for Inactive)
REMARK    1  A    between atoms: C_1  and  N_2
REMARK    2  A    between atoms: N_2  and  C_3
REMARK    3  A    between atoms: N_2  and  C_9
REMARK    4  A    between atoms: C_3  and  C_4
REMARK                            x       y       z     vdW  Elec       q    Type
REMARK                         _______ _______ _______ _____ _____    ______ ____
ROOT
ATOM      1  C   UNL     1       1.007   0.299   0.395  0.00  0.00    +0.000 C 
ATOM      2  N   UNL     1       2.444   0.040   0.387  0.00  0.00    +0.000 N 
ENDROOT
BRANCH   2   3
ATOM      3  C   UNL     1       3.288   0.847   1.149  0.00  0.00    +0.000 A 
ATOM      4  C   UNL     1       4.596   0.441   1.466  0.00  0.00    +0.000 A 
ATOM      5  C   UNL     1       5.458   1.236   2.233  0.00  0.00    +0.000 A 
ATOM      6  C   UNL     1       5.021   2.464   2.709  0.00  0.00    +0.000 A 
ATOM      7  C   UNL     1       3.731   2.894   2.432  0.00  0.00    +0.000 A 
ATOM      8  C   UNL     1       2.877   2.089   1.667  0.00  0.00    +0.000 A 
ATOM      9 CL   UNL     1       6.074   3.447   3.649  0.00  0.00    +0.000 Cl
ENDBRANCH   2   3
BRANCH   2  10
ATOM     10  C   UNL     1       2.979  -0.673  -0.796  0.00  0.00    +0.000 C 
BRANCH  10  11
ATOM     11  C   UNL     1       3.129   0.159  -2.096  0.00  0.00    +0.000 C 
ATOM     12  C   UNL     1       3.866   1.470  -1.976  0.00  0.00    +0.000 C 
ATOM     13  C   UNL     1       3.107   2.468  -2.456  0.00  0.00    +0.000 C 
ATOM     14  C   UNL     1       1.853   1.935  -2.924  0.00  0.00    +0.000 C 
ATOM     15  C   UNL     1       1.830   0.609  -2.728  0.00  0.00    +0.000 C 
ENDBRANCH  10  11
ENDBRANCH   2  10
TORSDOF 3
