MODEL 1
REMARK VINA RESULT:      -5.0      0.000      0.000
REMARK  Name = *****
REMARK  4 active torsions:
REMARK  status: ('A' for Active; 'I' for Inactive)
REMARK    1  A    between atoms: C_4  and  C_17
REMARK    2  A    between atoms: C_5  and  C_7
REMARK    3  A    between atoms: C_8  and  C_9
REMARK    4  A    between atoms: C_13  and  C_15
REMARK                            x       y       z     vdW  Elec       q    Type
REMARK                         _______ _______ _______ _____ _____    ______ ____
ROOT
ATOM      1  C   UNL     1     102.167 126.192  82.020  0.00  0.00    +0.000 C 
ATOM      2  C   UNL     1     103.024 125.486  81.559  0.00  0.00    +0.000 C 
ENDROOT
BRANCH   1   7
ATOM      3  C   UNL     1      98.782 127.558  82.733  0.00  0.00    +0.000 A 
ATOM      4  C   UNL     1      99.076 128.701  83.473  0.00  0.00    +0.000 A 
ATOM      5  C   UNL     1     100.402 129.015  83.768  0.00  0.00    +0.000 A 
ATOM      6  C   UNL     1     101.442 128.178  83.331  0.00  0.00    +0.000 A 
ATOM      7  C   UNL     1     101.152 127.039  82.568  0.00  0.00    +0.000 A 
ATOM      8  C   UNL     1      99.815 126.734  82.278  0.00  0.00    +0.000 A 
BRANCH   6   9
ATOM      9  C   UNL     1     102.827 128.570  83.704  0.00  0.00    +0.000 C 
ATOM     10  O   UNL     1     103.124 128.473  84.894  0.00  0.00    +0.000 OA
ATOM     11 CL   UNL     1     103.953 129.030  82.449  0.00  0.00    +0.000 Cl
ENDBRANCH   6   9
ENDBRANCH   1   7
BRANCH   2  12
ATOM     12  C   UNL     1     104.043 124.637  81.026  0.00  0.00    +0.000 A 
ATOM     13  C   UNL     1     104.282 123.386  81.603  0.00  0.00    +0.000 A 
ATOM     14  C   UNL     1     105.277 122.552  81.089  0.00  0.00    +0.000 A 
ATOM     15  C   UNL     1     106.037 122.965  79.994  0.00  0.00    +0.000 A 
ATOM     16  C   UNL     1     105.795 124.217  79.419  0.00  0.00    +0.000 A 
ATOM     17  C   UNL     1     104.800 125.056  79.931  0.00  0.00    +0.000 A 
BRANCH  16  18
ATOM     18  C   UNL     1     106.602 124.647  78.260  0.00  0.00    +0.000 C 
ATOM     19  O   UNL     1     106.211 124.510  77.108  0.00  0.00    +0.000 OA
ENDBRANCH  16  18
ENDBRANCH   2  12
TORSDOF 4
ENDMDL
