MODEL 1
REMARK VINA RESULT:      -4.7      0.000      0.000
REMARK  Name = *****
REMARK  3 active torsions:
REMARK  status: ('A' for Active; 'I' for Inactive)
REMARK    1  A    between atoms: C_1  and  O_2
REMARK    2  A    between atoms: O_2  and  C_3
REMARK    3  A    between atoms: C_9  and  C_13
REMARK                            x       y       z     vdW  Elec       q    Type
REMARK                         _______ _______ _______ _____ _____    ______ ____
ROOT
ATOM      1  C   UNL     1     106.015 121.984  82.162  0.00  0.00    +0.000 C 
ATOM      2  C   UNL     1     106.211 122.259  80.712  0.00  0.00    +0.000 C 
ATOM      3  C   UNL     1     105.561 123.250  80.091  0.00  0.00    +0.000 C 
ATOM      4  C   UNL     1     104.631 124.101  80.819  0.00  0.00    +0.000 C 
ATOM      5  C   UNL     1     103.997 125.077  80.148  0.00  0.00    +0.000 C 
ATOM      6  C   UNL     1     103.051 125.982  80.751  0.00  0.00    +0.000 C 
ATOM      7  C   UNL     1     102.709 125.956  82.046  0.00  0.00    +0.000 C 
ATOM      8  S   UNL     1     103.332 124.844  83.214  0.00  0.00    +0.000 S 
ATOM      9  C   UNL     1     104.412 123.875  82.251  0.00  0.00    +0.000 C 
ATOM     10  C   UNL     1     105.064 122.879  82.880  0.00  0.00    +0.000 C 
ENDROOT
BRANCH   7  11
ATOM     11  C   UNL     1     101.734 126.928  82.560  0.00  0.00    +0.000 A 
ATOM     12  C   UNL     1     102.168 128.100  83.195  0.00  0.00    +0.000 A 
ATOM     13  C   UNL     1     101.240 129.014  83.701  0.00  0.00    +0.000 A 
ATOM     14  C   UNL     1      99.875 128.760  83.579  0.00  0.00    +0.000 A 
ATOM     15  C   UNL     1      99.433 127.594  82.954  0.00  0.00    +0.000 A 
ATOM     16  C   UNL     1     100.360 126.679  82.447  0.00  0.00    +0.000 A 
ENDBRANCH   7  11
BRANCH   1  18
ATOM     17  C   UNL     1     106.572 119.741  82.106  0.00  0.00    +0.000 C 
ATOM     18  O   UNL     1     106.694 120.991  82.653  0.00  0.00    +0.000 OA
ENDBRANCH   1  18
TORSDOF 2
ENDMDL
