MODEL 1
REMARK VINA RESULT:      -4.5      0.000      0.000
REMARK  Name = *****
REMARK  4 active torsions:
REMARK  status: ('A' for Active; 'I' for Inactive)
REMARK    1  A    between atoms: C_1  and  C_2
REMARK    2  A    between atoms: C_5  and  C_8
REMARK    3  A    between atoms: C_9  and  S_10
REMARK    4  A    between atoms: S_10  and  C_11
REMARK                            x       y       z     vdW  Elec       q    Type
REMARK                         _______ _______ _______ _____ _____    ______ ____
ROOT
ATOM      1  C   UNL     1      89.841  66.743  86.431  0.00  0.00    +0.000 C 
ATOM      2  C   UNL     1      88.913  65.810  86.171  0.00  0.00    +0.000 C 
ENDROOT
BRANCH   1   7
ATOM      3  C   UNL     1      89.717  72.138  84.336  0.00  0.00    +0.000 C 
ATOM      4  C   UNL     1      89.714  70.741  84.884  0.00  0.00    +0.000 A 
ATOM      5  C   UNL     1      89.565  70.519  86.257  0.00  0.00    +0.000 A 
ATOM      6  C   UNL     1      89.595  69.220  86.773  0.00  0.00    +0.000 A 
ATOM      7  C   UNL     1      89.775  68.121  85.926  0.00  0.00    +0.000 A 
ATOM      8  C   UNL     1      89.955  68.348  84.557  0.00  0.00    +0.000 A 
ATOM      9  C   UNL     1      89.925  69.646  84.039  0.00  0.00    +0.000 A 
ENDBRANCH   1   7
BRANCH   2  10
ATOM     10  S   UNL     1      89.026  64.189  86.778  0.00  0.00    +0.000 S 
BRANCH  10  11
ATOM     11  C   UNL     1      88.243  64.410  88.369  0.00  0.00    +0.000 A 
ATOM     12  C   UNL     1      87.109  65.221  88.471  0.00  0.00    +0.000 A 
ATOM     13  C   UNL     1      86.477  65.397  89.704  0.00  0.00    +0.000 A 
ATOM     14  C   UNL     1      86.971  64.756  90.840  0.00  0.00    +0.000 A 
ATOM     15  C   UNL     1      88.095  63.937  90.744  0.00  0.00    +0.000 A 
ATOM     16  C   UNL     1      88.727  63.761  89.511  0.00  0.00    +0.000 A 
ENDBRANCH  10  11
ENDBRANCH   2  10
TORSDOF 3
ENDMDL
