MODEL 1
REMARK VINA RESULT:      -4.7      0.000      0.000
REMARK  Name = *****
REMARK  2 active torsions:
REMARK  status: ('A' for Active; 'I' for Inactive)
REMARK    1  A    between atoms: C_4  and  C_7
REMARK    2  A    between atoms: N_8  and  C_9
REMARK                            x       y       z     vdW  Elec       q    Type
REMARK                         _______ _______ _______ _____ _____    ______ ____
ROOT
ATOM      1  C   UNL     1     101.649 125.926  82.429  0.00  0.00    +0.000 C 
ATOM      2  N   UNL     1     102.941 125.968  82.510  0.00  0.00    +0.000 NA
ENDROOT
BRANCH   2   3
ATOM      3  C   UNL     1     103.650 124.803  82.142  0.00  0.00    +0.000 A 
ATOM      4  C   UNL     1     104.036 124.535  80.821  0.00  0.00    +0.000 A 
ATOM      5  C   UNL     1     104.767 123.394  80.486  0.00  0.00    +0.000 A 
ATOM      6  C   UNL     1     105.142 122.493  81.481  0.00  0.00    +0.000 A 
ATOM      7  C   UNL     1     104.781 122.743  82.804  0.00  0.00    +0.000 A 
ATOM      8  C   UNL     1     104.048 123.888  83.123  0.00  0.00    +0.000 A 
ATOM      9  F   UNL     1     103.721 124.093  84.408  0.00  0.00    +0.000 F 
ATOM     10  F   UNL     1     103.692 125.379  79.834  0.00  0.00    +0.000 F 
ENDBRANCH   2   3
BRANCH   1  14
ATOM     11  C   UNL     1      99.180 129.252  83.444  0.00  0.00    +0.000 A 
ATOM     12  C   UNL     1     100.544 129.292  83.733  0.00  0.00    +0.000 A 
ATOM     13  C   UNL     1     101.361 128.210  83.404  0.00  0.00    +0.000 A 
ATOM     14  C   UNL     1     100.807 127.086  82.785  0.00  0.00    +0.000 A 
ATOM     15  C   UNL     1      99.440 127.042  82.495  0.00  0.00    +0.000 A 
ATOM     16  C   UNL     1      98.629 128.129  82.825  0.00  0.00    +0.000 A 
ENDBRANCH   1  14
TORSDOF 2
ENDMDL
