MODEL 1
REMARK VINA RESULT:      -5.0      0.000      0.000
REMARK  Name = *****
REMARK  5 active torsions:
REMARK  status: ('A' for Active; 'I' for Inactive)
REMARK    1  A    between atoms: C_1  and  C_2
REMARK    2  A    between atoms: C_4  and  C_17
REMARK    3  A    between atoms: C_5  and  C_8
REMARK    4  A    between atoms: C_8  and  N_10
REMARK    5  A    between atoms: N_10  and  C_11
REMARK                            x       y       z     vdW  Elec       q    Type
REMARK                         _______ _______ _______ _____ _____    ______ ____
ROOT
ATOM      1  C   UNL     1      88.784  64.382  86.532  0.00  0.00    +0.000 C 
ATOM      2  S   UNL     1      88.469  63.696  85.037  0.00  0.00    +0.000 S 
ENDROOT
BRANCH   1   7
ATOM      3  C   UNL     1      89.279  70.141  86.839  0.00  0.00    +0.000 C 
ATOM      4  C   UNL     1      89.178  68.645  86.779  0.00  0.00    +0.000 A 
ATOM      5  C   UNL     1      90.198  67.891  86.179  0.00  0.00    +0.000 A 
ATOM      6  C   UNL     1      90.108  66.492  86.083  0.00  0.00    +0.000 A 
ATOM      7  C   UNL     1      88.974  65.859  86.620  0.00  0.00    +0.000 A 
ATOM      8  C   UNL     1      87.939  66.606  87.198  0.00  0.00    +0.000 A 
ATOM      9  C   UNL     1      88.041  67.994  87.273  0.00  0.00    +0.000 A 
ATOM     10  C   UNL     1      91.236  65.719  85.458  0.00  0.00    +0.000 C 
ENDBRANCH   1   7
BRANCH   1  11
ATOM     11  N   UNL     1      88.908  63.793  87.783  0.00  0.00    +0.000 N 
ATOM     12  H   UNL     1      89.839  63.602  88.036  0.00  0.00    +0.000 HD
BRANCH  11  13
ATOM     13  C   UNL     1      87.968  63.410  88.769  0.00  0.00    +0.000 A 
ATOM     14  C   UNL     1      87.837  63.975  90.036  0.00  0.00    +0.000 A 
ATOM     15  C   UNL     1      86.853  63.523  90.925  0.00  0.00    +0.000 A 
ATOM     16  C   UNL     1      85.985  62.499  90.555  0.00  0.00    +0.000 A 
ATOM     17  C   UNL     1      86.098  61.928  89.294  0.00  0.00    +0.000 A 
ATOM     18  C   UNL     1      87.081  62.382  88.408  0.00  0.00    +0.000 A 
ENDBRANCH  11  13
ENDBRANCH   1  11
TORSDOF 3
ENDMDL
