MODEL 1
REMARK VINA RESULT:      -4.8      0.000      0.000
REMARK  Name = *****
REMARK  5 active torsions:
REMARK  status: ('A' for Active; 'I' for Inactive)
REMARK    1  A    between atoms: C_1  and  C_2
REMARK    2  A    between atoms: C_5  and  C_8
REMARK    3  A    between atoms: C_9  and  C_10
REMARK    4  A    between atoms: C_11  and  C_17
REMARK    5  A    between atoms: C_17  and  C_19
REMARK                            x       y       z     vdW  Elec       q    Type
REMARK                         _______ _______ _______ _____ _____    ______ ____
ROOT
ATOM      1  C   UNL     1     101.319 126.957  82.812  0.00  0.00    +0.000 A 
ATOM      2  C   UNL     1     101.685 128.149  83.459  0.00  0.00    +0.000 A 
ATOM      3  C   UNL     1     100.717 129.121  83.757  0.00  0.00    +0.000 A 
ATOM      4  C   UNL     1      99.384 128.902  83.408  0.00  0.00    +0.000 A 
ATOM      5  C   UNL     1      99.028 127.719  82.768  0.00  0.00    +0.000 A 
ATOM      6  C   UNL     1      99.979 126.749  82.468  0.00  0.00    +0.000 A 
ATOM      7  F   UNL     1      97.748 127.513  82.434  0.00  0.00    +0.000 F 
ENDROOT
BRANCH   2   8
ATOM      8  C   UNL     1     103.091 128.409  83.858  0.00  0.00    +0.000 C 
ATOM      9  O   UNL     1     103.484 128.095  84.976  0.00  0.00    +0.000 OA
ATOM     10  C   UNL     1     103.979 129.112  82.866  0.00  0.00    +0.000 C 
ENDBRANCH   2   8
BRANCH   1  12
ATOM     11  C   UNL     1     103.094 125.119  82.177  0.00  0.00    +0.000 C 
ATOM     12  C   UNL     1     102.276 125.954  82.458  0.00  0.00    +0.000 C 
BRANCH  11  17
ATOM     13  C   UNL     1     107.095 121.196  80.961  0.00  0.00    +0.000 C 
ATOM     14  C   UNL     1     106.027 122.201  81.278  0.00  0.00    +0.000 A 
ATOM     15  C   UNL     1     105.479 122.993  80.264  0.00  0.00    +0.000 A 
ATOM     16  C   UNL     1     104.508 123.954  80.562  0.00  0.00    +0.000 A 
ATOM     17  C   UNL     1     104.087 124.136  81.880  0.00  0.00    +0.000 A 
ATOM     18  C   UNL     1     104.640 123.361  82.900  0.00  0.00    +0.000 A 
ATOM     19  C   UNL     1     105.611 122.401  82.601  0.00  0.00    +0.000 A 
ENDBRANCH  11  17
ENDBRANCH   1  12
TORSDOF 3
ENDMDL
