REMARK  Name = *****
REMARK  4 active torsions:
REMARK  status: ('A' for Active; 'I' for Inactive)
REMARK    1  A    between atoms: C_1  and  C_2
REMARK    2  A    between atoms: C_5  and  C_7
REMARK    3  A    between atoms: C_8  and  C_9
REMARK    4  A    between atoms: C_12  and  C_14
REMARK                            x       y       z     vdW  Elec       q    Type
REMARK                         _______ _______ _______ _____ _____    ______ ____
ROOT
ATOM      1  C   UNL     1      -2.996   0.661   0.032  0.00  0.00    +0.000 C 
ATOM      2  C   UNL     1      -4.142  -0.039   0.041  0.00  0.00    +0.000 C 
ENDROOT
BRANCH   1   7
ATOM      3  C   UNL     1       2.230  -0.084  -0.003  0.00  0.00    +0.000 C 
ATOM      4  C   UNL     1       0.757  -0.305   0.006  0.00  0.00    +0.000 A 
ATOM      5  C   UNL     1       0.070  -1.498   0.008  0.00  0.00    +0.000 A 
ATOM      6  C   UNL     1      -1.343  -1.305   0.018  0.00  0.00    +0.000 A 
ATOM      7  C   UNL     1      -1.714   0.030   0.023  0.00  0.00    +0.000 A 
ATOM      8  S   UNL     1      -0.305   1.031   0.016  0.00  0.00    +0.000 S 
ENDBRANCH   1   7
BRANCH   2   9
ATOM      9  C   UNL     1      -5.426   0.589   0.050  0.00  0.00    +0.000 A 
ATOM     10  C   UNL     1      -5.793   1.926   0.055  0.00  0.00    +0.000 A 
ATOM     11  C   UNL     1      -7.206   2.123   0.063  0.00  0.00    +0.000 A 
ATOM     12  C   UNL     1      -7.893   0.931   0.064  0.00  0.00    +0.000 A 
ATOM     13  S   UNL     1      -6.839  -0.406   0.055  0.00  0.00    +0.000 S 
BRANCH  12  14
ATOM     14  C   UNL     1      -9.322   0.724   0.071  0.00  0.00    +0.000 C 
ATOM     15  O   UNL     1     -10.159   1.625   0.077  0.00  0.00    +0.000 OA
ENDBRANCH  12  14
ENDBRANCH   2   9
TORSDOF 3
