REMARK  Name = *****
REMARK  3 active torsions:
REMARK  status: ('A' for Active; 'I' for Inactive)
REMARK    1  A    between atoms: P_3  and  C_6
REMARK    2  A    between atoms: C_6  and  C_7
REMARK    3  A    between atoms: C_7  and  C_8
REMARK                            x       y       z     vdW  Elec       q    Type
REMARK                         _______ _______ _______ _____ _____    ______ ____
ROOT
ATOM      1  C   UNL     1       2.219  -2.931  -1.343  0.00  0.00    +0.000 C 
ENDROOT
BRANCH   1   2
ATOM      2  C   UNL     1       2.701  -3.283  -2.731  0.00  0.00    +0.000 A 
ATOM      3  C   UNL     1       4.015  -2.985  -3.121  0.00  0.00    +0.000 A 
ATOM      4  C   UNL     1       4.456  -3.293  -4.410  0.00  0.00    +0.000 A 
ATOM      5  C   UNL     1       3.585  -3.896  -5.314  0.00  0.00    +0.000 A 
ATOM      6  C   UNL     1       2.275  -4.193  -4.942  0.00  0.00    +0.000 A 
ATOM      7  C   UNL     1       1.833  -3.884  -3.654  0.00  0.00    +0.000 A 
ATOM      8 CL   UNL     1       4.128  -4.275  -6.902  0.00  0.00    +0.000 Cl
ENDBRANCH   1   2
BRANCH   1   9
ATOM      9  C   UNL     1       1.723  -1.485  -1.271  0.00  0.00    +0.000 C 
BRANCH   9  12
ATOM     10  C   UNL     1       1.835   1.406   0.870  0.00  0.00    +0.000 A 
ATOM     11  C   UNL     1       0.859   0.743   0.232  0.00  0.00    +0.000 A 
ATOM     12  P   UNL     1       1.086  -1.058   0.414  0.00  0.00    +0.000 P 
ATOM     13  C   UNL     1       2.651  -0.755   1.313  0.00  0.00    +0.000 A 
ATOM     14  C   UNL     1       2.838   0.563   1.476  0.00  0.00    +0.000 A 
ENDBRANCH   9  12
ENDBRANCH   1   9
TORSDOF 3
