REMARK  Name = *****
REMARK  1 active torsions:
REMARK  status: ('A' for Active; 'I' for Inactive)
REMARK    1  A    between atoms: C_8  and  C_10
REMARK                            x       y       z     vdW  Elec       q    Type
REMARK                         _______ _______ _______ _____ _____    ______ ____
ROOT
ATOM      1  C   UNL     1       2.203   0.637  -0.050  0.00  0.00    +0.000 A 
ATOM      2  C   UNL     1       2.124  -0.761   0.004  0.00  0.00    +0.000 A 
ATOM      3  C   UNL     1       0.890  -1.422   0.051  0.00  0.00    +0.000 A 
ATOM      4  C   UNL     1      -0.231  -0.601   0.041  0.00  0.00    +0.000 A 
ATOM      5  C   UNL     1      -0.198   0.782  -0.012  0.00  0.00    +0.000 A 
ATOM      6  C   UNL     1       1.044   1.429  -0.058  0.00  0.00    +0.000 A 
ATOM      7  N   UNL     1      -1.476   1.279  -0.007  0.00  0.00    +0.000 NA
ATOM      8  C   UNL     1      -2.234   0.198   0.048  0.00  0.00    +0.000 A 
ATOM      9  O   UNL     1      -1.538  -0.986   0.080  0.00  0.00    +0.000 OA
ENDROOT
BRANCH   8  10
ATOM     10  C   UNL     1      -3.692   0.102   0.079  0.00  0.00    +0.000 A 
ATOM     11  C   UNL     1      -4.353  -1.133   0.149  0.00  0.00    +0.000 A 
ATOM     12  C   UNL     1      -5.748  -1.183   0.178  0.00  0.00    +0.000 A 
ATOM     13  C   UNL     1      -6.503  -0.013   0.139  0.00  0.00    +0.000 A 
ATOM     14  C   UNL     1      -5.859   1.220   0.069  0.00  0.00    +0.000 A 
ATOM     15  C   UNL     1      -4.463   1.276   0.040  0.00  0.00    +0.000 A 
ATOM     16 CL   UNL     1      -6.544  -2.707   0.265  0.00  0.00    +0.000 Cl
ENDBRANCH   8  10
TORSDOF 1
