MODEL 1
REMARK VINA RESULT:      -4.8      0.000      0.000
REMARK  Name = *****
REMARK  3 active torsions:
REMARK  status: ('A' for Active; 'I' for Inactive)
REMARK    1  A    between atoms: C_4  and  C_7
REMARK    2  A    between atoms: C_8  and  C_9
REMARK    3  A    between atoms: C_8  and  C_11
REMARK                            x       y       z     vdW  Elec       q    Type
REMARK                         _______ _______ _______ _____ _____    ______ ____
ROOT
ATOM      1  C   UNL     1     101.629 127.810  83.209  0.00  0.00    +0.000 C 
ATOM      2  C   UNL     1     100.282 127.876  83.244  0.00  0.00    +0.000 C 
ENDROOT
BRANCH   1   6
ATOM      3  C   UNL     1     103.921 124.964  81.022  0.00  0.00    +0.000 A 
ATOM      4  C   UNL     1     103.596 126.190  80.443  0.00  0.00    +0.000 A 
ATOM      5  C   UNL     1     102.850 127.126  81.160  0.00  0.00    +0.000 A 
ATOM      6  C   UNL     1     102.427 126.837  82.461  0.00  0.00    +0.000 A 
ATOM      7  C   UNL     1     102.757 125.607  83.041  0.00  0.00    +0.000 A 
ATOM      8  C   UNL     1     103.503 124.672  82.320  0.00  0.00    +0.000 A 
ENDBRANCH   1   6
BRANCH   2   9
ATOM      9  C   UNL     1      99.644 128.924  84.069  0.00  0.00    +0.000 A 
ATOM     10  C   UNL     1      99.837 130.284  83.782  0.00  0.00    +0.000 A 
ATOM     11  C   UNL     1      99.241 131.270  84.572  0.00  0.00    +0.000 A 
ATOM     12  C   UNL     1      98.442 130.908  85.655  0.00  0.00    +0.000 A 
ATOM     13  C   UNL     1      98.236 129.561  85.946  0.00  0.00    +0.000 A 
ATOM     14  C   UNL     1      98.832 128.574  85.157  0.00  0.00    +0.000 A 
ENDBRANCH   2   9
BRANCH   2  15
ATOM     15  C   UNL     1      99.447 126.888  82.490  0.00  0.00    +0.000 C 
ATOM     16  O   UNL     1      98.351 127.158  82.010  0.00  0.00    +0.000 OA
ENDBRANCH   2  15
TORSDOF 3
ENDMDL
