MODEL 1
REMARK VINA RESULT:      -4.5      0.000      0.000
REMARK  Name = *****
REMARK  5 active torsions:
REMARK  status: ('A' for Active; 'I' for Inactive)
REMARK    1  A    between atoms: C_1  and  C_2
REMARK    2  A    between atoms: C_2  and  C_3
REMARK    3  A    between atoms: C_2  and  C_4
REMARK    4  A    between atoms: C_2  and  C_10
REMARK    5  A    between atoms: C_10  and  C_11
REMARK                            x       y       z     vdW  Elec       q    Type
REMARK                         _______ _______ _______ _____ _____    ______ ____
ROOT
ATOM      1  C   UNL     1      87.549  68.495  85.472  0.00  0.00    +0.000 C 
ATOM      2  C   UNL     1      88.815  69.298  85.865  0.00  0.00    +0.000 C 
ATOM      3  C   UNL     1      89.695  68.299  86.673  0.00  0.00    +0.000 C 
ENDROOT
BRANCH   2   4
ATOM      4  C   UNL     1      89.626  69.760  84.634  0.00  0.00    +0.000 A 
ATOM      5  C   UNL     1      89.612  69.079  83.415  0.00  0.00    +0.000 A 
ATOM      6  N   UNL     1      90.298  69.456  82.308  0.00  0.00    +0.000 NA
ATOM      7  C   UNL     1      91.033  70.580  82.397  0.00  0.00    +0.000 A 
ATOM      8  C   UNL     1      91.113  71.348  83.542  0.00  0.00    +0.000 A 
ATOM      9  C   UNL     1      90.400  70.932  84.666  0.00  0.00    +0.000 A 
ENDBRANCH   2   4
BRANCH   2  10
ATOM     10  C   UNL     1      88.464  70.551  86.758  0.00  0.00    +0.000 C 
ATOM     11 CL   UNL     1      88.711  70.249  88.524  0.00  0.00    +0.000 Cl
BRANCH  10  12
ATOM     12  C   UNL     1      87.086  71.164  86.532  0.00  0.00    +0.000 A 
ATOM     13  C   UNL     1      86.642  71.584  85.266  0.00  0.00    +0.000 A 
ATOM     14  C   UNL     1      85.380  72.163  85.104  0.00  0.00    +0.000 A 
ATOM     15  C   UNL     1      84.543  72.333  86.202  0.00  0.00    +0.000 A 
ATOM     16  C   UNL     1      84.963  71.923  87.463  0.00  0.00    +0.000 A 
ATOM     17  C   UNL     1      86.223  71.344  87.627  0.00  0.00    +0.000 A 
ENDBRANCH  10  12
ENDBRANCH   2  10
TORSDOF 3
ENDMDL
