REMARK  Name = *****
REMARK  2 active torsions:
REMARK  status: ('A' for Active; 'I' for Inactive)
REMARK    1  A    between atoms: C_4  and  C_6
REMARK    2  A    between atoms: N_7  and  C_8
REMARK                            x       y       z     vdW  Elec       q    Type
REMARK                         _______ _______ _______ _____ _____    ______ ____
ROOT
ATOM      1  C   UNL     1      -0.304  -2.548   0.352  0.00  0.00    +0.000 C 
ATOM      2  N   UNL     1      -1.518  -2.987   0.212  0.00  0.00    +0.000 NA
ATOM      3 CL   UNL     1       0.876  -3.784   0.640  0.00  0.00    +0.000 Cl
ENDROOT
BRANCH   2   4
ATOM      4  C   UNL     1      -2.593  -2.112   0.024  0.00  0.00    +0.000 A 
ATOM      5  C   UNL     1      -3.253  -2.093  -1.208  0.00  0.00    +0.000 A 
ATOM      6  C   UNL     1      -4.346  -1.247  -1.415  0.00  0.00    +0.000 A 
ATOM      7  C   UNL     1      -4.791  -0.431  -0.377  0.00  0.00    +0.000 A 
ATOM      8  C   UNL     1      -4.161  -0.461   0.865  0.00  0.00    +0.000 A 
ATOM      9  C   UNL     1      -3.069  -1.309   1.067  0.00  0.00    +0.000 A 
ATOM     10 CL   UNL     1      -6.135   0.613  -0.629  0.00  0.00    +0.000 Cl
ENDBRANCH   2   4
BRANCH   1  14
ATOM     11  C   UNL     1       0.499   1.033  -0.432  0.00  0.00    +0.000 A 
ATOM     12  C   UNL     1       1.263   0.991   0.711  0.00  0.00    +0.000 A 
ATOM     13  S   UNL     1       1.212  -0.543   1.460  0.00  0.00    +0.000 S 
ATOM     14  C   UNL     1       0.158  -1.174   0.260  0.00  0.00    +0.000 A 
ATOM     15  C   UNL     1      -0.137  -0.216  -0.693  0.00  0.00    +0.000 A 
ENDBRANCH   1  14
TORSDOF 2
