MODEL 1
REMARK VINA RESULT:      -4.4      0.000      0.000
REMARK  Name = *****
REMARK  3 active torsions:
REMARK  status: ('A' for Active; 'I' for Inactive)
REMARK    1  A    between atoms: C_4  and  C_7
REMARK    2  A    between atoms: C_8  and  C_9
REMARK    3  A    between atoms: C_10  and  C_14
REMARK                            x       y       z     vdW  Elec       q    Type
REMARK                         _______ _______ _______ _____ _____    ______ ____
ROOT
ATOM      1  C   UNL     1     102.085 126.117  82.266  0.00  0.00    +0.000 C 
ATOM      2  C   UNL     1     102.957 125.368  81.921  0.00  0.00    +0.000 C 
ENDROOT
BRANCH   1   6
ATOM      3  C   UNL     1      99.030 128.809  83.384  0.00  0.00    +0.000 A 
ATOM      4  C   UNL     1     100.364 129.108  83.666  0.00  0.00    +0.000 A 
ATOM      5  C   UNL     1     101.372 128.217  83.297  0.00  0.00    +0.000 A 
ATOM      6  C   UNL     1     101.047 127.025  82.644  0.00  0.00    +0.000 A 
ATOM      7  C   UNL     1      99.712 126.726  82.362  0.00  0.00    +0.000 A 
ATOM      8  C   UNL     1      98.705 127.620  82.733  0.00  0.00    +0.000 A 
ENDBRANCH   1   6
BRANCH   2   9
ATOM      9  C   UNL     1     103.997 124.485  81.487  0.00  0.00    +0.000 A 
ATOM     10  C   UNL     1     104.595 123.533  82.288  0.00  0.00    +0.000 A 
ATOM     11  S   UNL     1     105.800 122.660  81.435  0.00  0.00    +0.000 S 
ATOM     12  C   UNL     1     105.524 123.549  80.001  0.00  0.00    +0.000 A 
ATOM     13  C   UNL     1     104.535 124.493  80.166  0.00  0.00    +0.000 A 
BRANCH  10  14
ATOM     14  C   UNL     1     104.353 123.196  83.675  0.00  0.00    +0.000 C 
ATOM     15  O   UNL     1     103.836 122.157  84.086  0.00  0.00    +0.000 OA
ENDBRANCH  10  14
ENDBRANCH   2   9
TORSDOF 3
ENDMDL
