REMARK  Name = *****
REMARK  4 active torsions:
REMARK  status: ('A' for Active; 'I' for Inactive)
REMARK    1  A    between atoms: C_3  and  C_4
REMARK    2  A    between atoms: C_7  and  O_10
REMARK    3  A    between atoms: O_10  and  C_11
REMARK    4  A    between atoms: C_11  and  C_12
REMARK                            x       y       z     vdW  Elec       q    Type
REMARK                         _______ _______ _______ _____ _____    ______ ____
ROOT
ATOM      1  C   UNL     1      -1.435  -0.888  -1.100  0.00  0.00    +0.000 A 
ATOM      2  C   UNL     1      -0.719  -1.227  -2.257  0.00  0.00    +0.000 A 
ATOM      3  C   UNL     1      -1.335  -1.879  -3.329  0.00  0.00    +0.000 A 
ATOM      4  C   UNL     1      -2.686  -2.219  -3.273  0.00  0.00    +0.000 A 
ATOM      5  C   UNL     1      -3.418  -1.889  -2.135  0.00  0.00    +0.000 A 
ATOM      6  C   UNL     1      -2.795  -1.237  -1.063  0.00  0.00    +0.000 A 
ENDROOT
BRANCH   1   9
ATOM      7  C   UNL     1      -1.327   1.071   0.635  0.00  0.00    +0.000 C 
ATOM      8  C   UNL     1      -0.038   1.098  -0.127  0.00  0.00    +0.000 C 
ATOM      9  C   UNL     1      -0.763  -0.213   0.070  0.00  0.00    +0.000 C 
ENDBRANCH   1   9
BRANCH   4  10
ATOM     10  O   UNL     1      -3.160  -2.864  -4.381  0.00  0.00    +0.000 OA
BRANCH  10  11
ATOM     11  C   UNL     1      -4.505  -3.332  -4.332  0.00  0.00    +0.000 C 
BRANCH  11  12
ATOM     12  C   UNL     1      -4.777  -4.116  -5.593  0.00  0.00    +0.000 A 
ATOM     13  C   UNL     1      -4.693  -5.515  -5.596  0.00  0.00    +0.000 A 
ATOM     14  C   UNL     1      -4.933  -6.237  -6.767  0.00  0.00    +0.000 A 
ATOM     15  C   UNL     1      -5.250  -5.567  -7.947  0.00  0.00    +0.000 A 
ATOM     16  C   UNL     1      -5.323  -4.175  -7.959  0.00  0.00    +0.000 A 
ATOM     17  C   UNL     1      -5.084  -3.452  -6.790  0.00  0.00    +0.000 A 
ENDBRANCH  11  12
ENDBRANCH  10  11
ENDBRANCH   4  10
TORSDOF 4
