MODEL 1
REMARK VINA RESULT:      -5.4      0.000      0.000
REMARK  Name = *****
REMARK  2 active torsions:
REMARK  status: ('A' for Active; 'I' for Inactive)
REMARK    1  A    between atoms: C_1  and  C_2
REMARK    2  A    between atoms: C_9  and  C_10
REMARK                            x       y       z     vdW  Elec       q    Type
REMARK                         _______ _______ _______ _____ _____    ______ ____
ROOT
ATOM      1  C   UNL     1     105.339 121.723  80.924  0.00  0.00    +0.000 C 
ATOM      2  C   UNL     1     105.125 123.181  80.638  0.00  0.00    +0.000 A 
ATOM      3  C   UNL     1     104.064 123.873  81.239  0.00  0.00    +0.000 A 
ATOM      4  C   UNL     1     103.874 125.211  80.928  0.00  0.00    +0.000 A 
ATOM      5  C   UNL     1     104.706 125.857  80.029  0.00  0.00    +0.000 A 
ATOM      6  C   UNL     1     104.280 127.273  79.879  0.00  0.00    +0.000 C 
ATOM      7  O   UNL     1     103.124 127.423  80.738  0.00  0.00    +0.000 OA
ATOM      8  C   UNL     1     102.901 126.199  81.365  0.00  0.00    +0.000 C 
ATOM      9  C   UNL     1     101.930 125.993  82.268  0.00  0.00    +0.000 C 
ATOM     10  C   UNL     1     105.755 125.195  79.410  0.00  0.00    +0.000 A 
ATOM     11  C   UNL     1     105.957 123.847  79.716  0.00  0.00    +0.000 A 
ENDROOT
BRANCH   9  12
ATOM     12  C   UNL     1     100.951 126.992  82.723  0.00  0.00    +0.000 A 
ATOM     13  C   UNL     1     101.326 128.136  83.437  0.00  0.00    +0.000 A 
ATOM     14  C   UNL     1     100.371 129.085  83.815  0.00  0.00    +0.000 A 
ATOM     15  C   UNL     1      99.034 128.904  83.470  0.00  0.00    +0.000 A 
ATOM     16  C   UNL     1      98.649 127.778  82.746  0.00  0.00    +0.000 A 
ATOM     17  C   UNL     1      99.605 126.830  82.368  0.00  0.00    +0.000 A 
ENDBRANCH   9  12
TORSDOF 1
ENDMDL
