MODEL 1
REMARK VINA RESULT:      -4.0      0.000      0.000
REMARK  Name = *****
REMARK  3 active torsions:
REMARK  status: ('A' for Active; 'I' for Inactive)
REMARK    1  A    between atoms: C_1  and  C_2
REMARK    2  A    between atoms: C_3  and  N_9
REMARK    3  A    between atoms: C_10  and  C_11
REMARK                            x       y       z     vdW  Elec       q    Type
REMARK                         _______ _______ _______ _____ _____    ______ ____
ROOT
ATOM      1  C   UNL     1     103.776 128.953  83.250  0.00  0.00    +0.000 C 
ATOM      2  C   UNL     1     102.432 128.291  83.130  0.00  0.00    +0.000 A 
ATOM      3  C   UNL     1     102.279 127.095  82.404  0.00  0.00    +0.000 A 
ATOM      4  C   UNL     1     101.020 126.486  82.331  0.00  0.00    +0.000 A 
ATOM      5  C   UNL     1      99.908 127.072  82.939  0.00  0.00    +0.000 A 
ATOM      6  C   UNL     1     100.056 128.269  83.634  0.00  0.00    +0.000 A 
ATOM      7  C   UNL     1     101.307 128.879  83.732  0.00  0.00    +0.000 A 
ATOM      8 CL   UNL     1      98.688 128.998  84.380  0.00  0.00    +0.000 Cl
ENDROOT
BRANCH   3   9
ATOM      9  N   UNL     1     103.373 126.473  81.786  0.00  0.00    +0.000 NA
ATOM     10  C   UNL     1     103.205 125.228  81.462  0.00  0.00    +0.000 C 
BRANCH  10  11
ATOM     11  C   UNL     1     104.262 124.489  80.818  0.00  0.00    +0.000 A 
ATOM     12  C   UNL     1     104.611 123.162  80.971  0.00  0.00    +0.000 A 
ATOM     13  C   UNL     1     105.721 122.798  80.155  0.00  0.00    +0.000 A 
ATOM     14  C   UNL     1     106.181 123.860  79.410  0.00  0.00    +0.000 A 
ATOM     15  S   UNL     1     105.275 125.284  79.694  0.00  0.00    +0.000 S 
ENDBRANCH  10  11
ENDBRANCH   3   9
TORSDOF 2
ENDMDL
