MODEL 1
REMARK VINA RESULT:      -4.8      0.000      0.000
REMARK  Name = *****
REMARK  3 active torsions:
REMARK  status: ('A' for Active; 'I' for Inactive)
REMARK    1  A    between atoms: C_1  and  C_2
REMARK    2  A    between atoms: C_3  and  C_8
REMARK    3  A    between atoms: C_9  and  C_10
REMARK                            x       y       z     vdW  Elec       q    Type
REMARK                         _______ _______ _______ _____ _____    ______ ____
ROOT
ATOM      1  C   UNL     1     102.969 125.971  82.962  0.00  0.00    +0.000 C 
ATOM      2  C   UNL     1     101.647 126.200  82.862  0.00  0.00    +0.000 C 
ENDROOT
BRANCH   2   3
ATOM      3  C   UNL     1     101.020 127.483  83.219  0.00  0.00    +0.000 A 
ATOM      4  C   UNL     1      99.646 127.722  83.029  0.00  0.00    +0.000 A 
ATOM      5  C   UNL     1      99.077 128.944  83.405  0.00  0.00    +0.000 A 
ATOM      6  C   UNL     1      99.868 129.939  83.983  0.00  0.00    +0.000 A 
ATOM      7  C   UNL     1     101.226 129.706  84.187  0.00  0.00    +0.000 A 
ATOM      8  C   UNL     1     101.800 128.489  83.815  0.00  0.00    +0.000 A 
ATOM      9 CL   UNL     1     102.201 130.926  84.907  0.00  0.00    +0.000 Cl
ATOM     10 CL   UNL     1      98.598 126.547  82.311  0.00  0.00    +0.000 Cl
ENDBRANCH   2   3
BRANCH   1  13
ATOM     11  C   UNL     1     103.831 125.342  80.146  0.00  0.00    +0.000 C 
ATOM     12  C   UNL     1     104.018 124.395  81.295  0.00  0.00    +0.000 A 
ATOM     13  C   UNL     1     103.612 124.691  82.604  0.00  0.00    +0.000 A 
ATOM     14  N   UNL     1     103.790 123.820  83.631  0.00  0.00    +0.000 NA
ATOM     15  C   UNL     1     104.375 122.634  83.365  0.00  0.00    +0.000 A 
ATOM     16  C   UNL     1     104.806 122.257  82.109  0.00  0.00    +0.000 A 
ATOM     17  C   UNL     1     104.623 123.152  81.063  0.00  0.00    +0.000 A 
ENDBRANCH   1  13
TORSDOF 2
ENDMDL
