REMARK  Name = *****
REMARK  4 active torsions:
REMARK  status: ('A' for Active; 'I' for Inactive)
REMARK    1  A    between atoms: C_1  and  C_2
REMARK    2  A    between atoms: C_2  and  C_4
REMARK    3  A    between atoms: C_7  and  C_10
REMARK    4  A    between atoms: C_11  and  C_12
REMARK                            x       y       z     vdW  Elec       q    Type
REMARK                         _______ _______ _______ _____ _____    ______ ____
ROOT
ATOM      1  C   UNL     1       3.123   1.069  -0.740  0.00  0.00    +0.000 A 
ATOM      2  C   UNL     1       2.519   2.330  -0.774  0.00  0.00    +0.000 A 
ATOM      3  C   UNL     1       3.093   3.366  -1.522  0.00  0.00    +0.000 A 
ATOM      4  C   UNL     1       4.281   3.163  -2.236  0.00  0.00    +0.000 A 
ATOM      5  C   UNL     1       4.872   1.895  -2.212  0.00  0.00    +0.000 A 
ATOM      6  C   UNL     1       4.302   0.858  -1.466  0.00  0.00    +0.000 A 
ENDROOT
BRANCH   1   8
ATOM      7  C   UNL     1       1.299   0.153   0.845  0.00  0.00    +0.000 C 
ATOM      8  C   UNL     1       2.552  -0.069   0.040  0.00  0.00    +0.000 C 
ATOM      9  O   UNL     1       3.105  -1.167   0.016  0.00  0.00    +0.000 OA
ENDBRANCH   1   8
BRANCH   4  10
ATOM     10  C   UNL     1       4.893   4.217  -3.057  0.00  0.00    +0.000 C 
ATOM     11  C   UNL     1       4.936   5.512  -2.702  0.00  0.00    +0.000 C 
BRANCH  11  12
ATOM     12  C   UNL     1       5.565   6.561  -3.517  0.00  0.00    +0.000 A 
ATOM     13  C   UNL     1       5.452   6.591  -4.914  0.00  0.00    +0.000 A 
ATOM     14  C   UNL     1       6.037   7.623  -5.652  0.00  0.00    +0.000 A 
ATOM     15  C   UNL     1       6.731   8.641  -5.001  0.00  0.00    +0.000 A 
ATOM     16  C   UNL     1       6.836   8.631  -3.612  0.00  0.00    +0.000 A 
ATOM     17  C   UNL     1       6.251   7.599  -2.874  0.00  0.00    +0.000 A 
ENDBRANCH  11  12
ENDBRANCH   4  10
TORSDOF 3
