MODEL 1
REMARK VINA RESULT:      -5.1      0.000      0.000
REMARK  Name = *****
REMARK  2 active torsions:
REMARK  status: ('A' for Active; 'I' for Inactive)
REMARK    1  A    between atoms: C_8  and  C_10
REMARK    2  A    between atoms: C_12  and  S_16
REMARK                            x       y       z     vdW  Elec       q    Type
REMARK                         _______ _______ _______ _____ _____    ______ ____
ROOT
ATOM      1  C   UNL     1     103.117 125.797  81.970  0.00  0.00    +0.000 A 
ATOM      2  C   UNL     1     103.518 124.688  82.728  0.00  0.00    +0.000 A 
ATOM      3  C   UNL     1     104.302 123.685  82.146  0.00  0.00    +0.000 A 
ATOM      4  C   UNL     1     104.674 123.756  80.801  0.00  0.00    +0.000 A 
ATOM      5  C   UNL     1     104.274 124.852  80.041  0.00  0.00    +0.000 A 
ATOM      6  C   UNL     1     103.503 125.864  80.622  0.00  0.00    +0.000 A 
ENDROOT
BRANCH   1  14
ATOM      7  C   UNL     1     100.403 130.656  84.741  0.00  0.00    +0.000 A 
ATOM      8  C   UNL     1      99.192 130.061  84.415  0.00  0.00    +0.000 A 
ATOM      9  C   UNL     1      99.160 128.845  83.730  0.00  0.00    +0.000 A 
ATOM     10  C   UNL     1     100.376 128.231  83.374  0.00  0.00    +0.000 A 
ATOM     11  C   UNL     1     101.605 128.809  83.690  0.00  0.00    +0.000 A 
ATOM     12  C   UNL     1     101.608 130.043  84.384  0.00  0.00    +0.000 A 
ATOM     13  C   UNL     1     102.694 127.999  83.224  0.00  0.00    +0.000 A 
ATOM     14  C   UNL     1     102.288 126.842  82.586  0.00  0.00    +0.000 A 
ATOM     15  S   UNL     1     100.581 126.745  82.532  0.00  0.00    +0.000 S 
ENDBRANCH   1  14
BRANCH   3  16
ATOM     16  S   UNL     1     104.777 122.283  83.113  0.00  0.00    +0.000 S 
ATOM     17  O   UNL     1     106.209 122.317  83.322  0.00  0.00    +0.000 OA
ATOM     18  O   UNL     1     103.831 122.110  84.195  0.00  0.00    +0.000 OA
ATOM     19 CL   UNL     1     104.430 120.749  81.809  0.00  0.00    +0.000 Cl
ENDBRANCH   3  16
TORSDOF 2
ENDMDL
