MODEL 1
REMARK VINA RESULT:      -4.1      0.000      0.000
REMARK  Name = *****
REMARK  4 active torsions:
REMARK  status: ('A' for Active; 'I' for Inactive)
REMARK    1  A    between atoms: C_4  and  O_7
REMARK    2  A    between atoms: O_7  and  C_8
REMARK    3  A    between atoms: C_8  and  O_10
REMARK    4  A    between atoms: O_10  and  C_11
REMARK                            x       y       z     vdW  Elec       q    Type
REMARK                         _______ _______ _______ _____ _____    ______ ____
ROOT
ATOM      1  C   UNL     1     103.446 128.146  82.420  0.00  0.00    +0.000 C 
ATOM      2  S   UNL     1     104.433 129.348  82.996  0.00  0.00    +0.000 S 
ENDROOT
BRANCH   1   3
ATOM      3  O   UNL     1     103.367 127.685  81.106  0.00  0.00    +0.000 OA
BRANCH   3   7
ATOM      4  C   UNL     1     105.621 124.392  79.883  0.00  0.00    +0.000 A 
ATOM      5  C   UNL     1     106.161 125.678  79.791  0.00  0.00    +0.000 A 
ATOM      6  C   UNL     1     105.407 126.781  80.189  0.00  0.00    +0.000 A 
ATOM      7  C   UNL     1     104.113 126.577  80.661  0.00  0.00    +0.000 A 
ATOM      8  C   UNL     1     103.569 125.301  80.782  0.00  0.00    +0.000 A 
ATOM      9  C   UNL     1     104.329 124.204  80.380  0.00  0.00    +0.000 A 
ENDBRANCH   3   7
ENDBRANCH   1   3
BRANCH   1  10
ATOM     10  O   UNL     1     102.592 127.516  83.316  0.00  0.00    +0.000 OA
BRANCH  10  11
ATOM     11  C   UNL     1     101.214 127.689  83.121  0.00  0.00    +0.000 A 
ATOM     12  C   UNL     1     100.474 126.660  82.543  0.00  0.00    +0.000 A 
ATOM     13  C   UNL     1      99.100 126.826  82.379  0.00  0.00    +0.000 A 
ATOM     14  C   UNL     1      98.483 128.006  82.804  0.00  0.00    +0.000 A 
ATOM     15  C   UNL     1      99.236 129.021  83.401  0.00  0.00    +0.000 A 
ATOM     16  C   UNL     1     100.611 128.861  83.568  0.00  0.00    +0.000 A 
ENDBRANCH  10  11
ENDBRANCH   1  10
TORSDOF 4
ENDMDL
