MODEL 1
REMARK VINA RESULT:      -4.8      0.000      0.000
REMARK  Name = *****
REMARK  4 active torsions:
REMARK  status: ('A' for Active; 'I' for Inactive)
REMARK    1  A    between atoms: C_1  and  C_2
REMARK    2  A    between atoms: C_2  and  C_4
REMARK    3  A    between atoms: C_7  and  C_10
REMARK    4  A    between atoms: C_11  and  C_12
REMARK                            x       y       z     vdW  Elec       q    Type
REMARK                         _______ _______ _______ _____ _____    ______ ____
ROOT
ATOM      1  C   UNL     1      83.682  57.907  91.304  0.00  0.00    +0.000 A 
ATOM      2  C   UNL     1      82.931  59.051  91.020  0.00  0.00    +0.000 A 
ATOM      3  C   UNL     1      83.571  60.231  90.619  0.00  0.00    +0.000 A 
ATOM      4  C   UNL     1      84.965  60.293  90.507  0.00  0.00    +0.000 A 
ATOM      5  C   UNL     1      85.711  59.140  90.784  0.00  0.00    +0.000 A 
ATOM      6  C   UNL     1      85.076  57.958  91.183  0.00  0.00    +0.000 A 
ENDROOT
BRANCH   1   8
ATOM      7  C   UNL     1      82.852  56.342  93.186  0.00  0.00    +0.000 C 
ATOM      8  C   UNL     1      83.047  56.620  91.718  0.00  0.00    +0.000 C 
ATOM      9  O   UNL     1      82.690  55.809  90.865  0.00  0.00    +0.000 OA
ENDBRANCH   1   8
BRANCH   4  10
ATOM     10  C   UNL     1      85.664  61.497  90.027  0.00  0.00    +0.000 C 
ATOM     11  C   UNL     1      86.334  61.568  88.864  0.00  0.00    +0.000 C 
BRANCH  11  12
ATOM     12  C   UNL     1      87.077  62.750  88.395  0.00  0.00    +0.000 A 
ATOM     13  C   UNL     1      87.823  63.564  89.260  0.00  0.00    +0.000 A 
ATOM     14  C   UNL     1      88.567  64.641  88.764  0.00  0.00    +0.000 A 
ATOM     15  C   UNL     1      88.577  64.903  87.397  0.00  0.00    +0.000 A 
ATOM     16  C   UNL     1      87.852  64.099  86.522  0.00  0.00    +0.000 A 
ATOM     17  C   UNL     1      87.108  63.025  87.021  0.00  0.00    +0.000 A 
ATOM     18 CL   UNL     1      89.504  66.217  86.785  0.00  0.00    +0.000 Cl
ENDBRANCH  11  12
ENDBRANCH   4  10
TORSDOF 3
ENDMDL
