MODEL 1
REMARK VINA RESULT:      -4.1      0.000      0.000
REMARK  Name = *****
REMARK  3 active torsions:
REMARK  status: ('A' for Active; 'I' for Inactive)
REMARK    1  A    between atoms: C_6  and  C_7
REMARK    2  A    between atoms: C_7  and  S_9
REMARK    3  A    between atoms: S_9  and  C_10
REMARK                            x       y       z     vdW  Elec       q    Type
REMARK                         _______ _______ _______ _____ _____    ______ ____
ROOT
ATOM      1  C   UNL     1      97.070 116.709  82.661  0.00  0.00    +0.000 C 
ATOM      2  O   UNL     1      97.772 116.301  83.579  0.00  0.00    +0.000 OA
ENDROOT
BRANCH   1   8
ATOM      3  C   UNL     1      98.281 118.690  81.579  0.00  0.00    +0.000 A 
ATOM      4  C   UNL     1      98.288 120.038  81.204  0.00  0.00    +0.000 A 
ATOM      5  C   UNL     1      97.185 120.837  81.478  0.00  0.00    +0.000 A 
ATOM      6  C   UNL     1      96.071 120.317  82.122  0.00  0.00    +0.000 A 
ATOM      7  C   UNL     1      96.060 118.970  82.499  0.00  0.00    +0.000 A 
ATOM      8  C   UNL     1      97.163 118.139  82.228  0.00  0.00    +0.000 A 
ATOM      9  F   UNL     1      97.197 122.126  81.116  0.00  0.00    +0.000 F 
ENDBRANCH   1   8
BRANCH   1  10
ATOM     10  S   UNL     1      95.924 115.662  81.826  0.00  0.00    +0.000 S 
BRANCH  10  11
ATOM     11  C   UNL     1      96.186 116.082  80.114  0.00  0.00    +0.000 A 
ATOM     12  C   UNL     1      95.256 116.854  79.406  0.00  0.00    +0.000 A 
ATOM     13  C   UNL     1      95.496 117.200  78.074  0.00  0.00    +0.000 A 
ATOM     14  C   UNL     1      96.670 116.784  77.459  0.00  0.00    +0.000 A 
ATOM     15  C   UNL     1      97.611 116.029  78.151  0.00  0.00    +0.000 A 
ATOM     16  C   UNL     1      97.369 115.680  79.481  0.00  0.00    +0.000 A 
ATOM     17  F   UNL     1      96.903 117.119  76.184  0.00  0.00    +0.000 F 
ENDBRANCH  10  11
ENDBRANCH   1  10
TORSDOF 3
ENDMDL
