MODEL 1
REMARK VINA RESULT:      -4.8      0.000      0.000
REMARK  Name = *****
REMARK  3 active torsions:
REMARK  status: ('A' for Active; 'I' for Inactive)
REMARK    1  A    between atoms: C_4  and  C_7
REMARK    2  A    between atoms: C_7  and  C_8
REMARK    3  A    between atoms: C_8  and  C_9
REMARK                            x       y       z     vdW  Elec       q    Type
REMARK                         _______ _______ _______ _____ _____    ______ ____
ROOT
ATOM      1  C   UNL     1      88.892  70.039  86.780  0.00  0.00    +0.000 C 
ENDROOT
BRANCH   1   2
ATOM      2  C   UNL     1      88.968  68.531  86.785  0.00  0.00    +0.000 A 
ATOM      3  C   UNL     1      90.048  67.874  86.173  0.00  0.00    +0.000 A 
ATOM      4  C   UNL     1      90.108  66.479  86.163  0.00  0.00    +0.000 A 
ATOM      5  C   UNL     1      89.090  65.737  86.758  0.00  0.00    +0.000 A 
ATOM      6  C   UNL     1      88.011  66.375  87.362  0.00  0.00    +0.000 A 
ATOM      7  C   UNL     1      87.948  67.769  87.374  0.00  0.00    +0.000 A 
ATOM      8  F   UNL     1      89.128  64.397  86.758  0.00  0.00    +0.000 F 
ATOM      9 CL   UNL     1      91.441  65.695  85.409  0.00  0.00    +0.000 Cl
ENDBRANCH   1   2
BRANCH   1  10
ATOM     10  C   UNL     1      87.971  70.562  87.885  0.00  0.00    +0.000 C 
BRANCH  10  14
ATOM     11  C   UNL     1      84.435  72.421  86.261  0.00  0.00    +0.000 A 
ATOM     12  C   UNL     1      85.432  71.952  85.407  0.00  0.00    +0.000 A 
ATOM     13  C   UNL     1      86.574  71.346  85.931  0.00  0.00    +0.000 A 
ATOM     14  C   UNL     1      86.726  71.198  87.317  0.00  0.00    +0.000 A 
ATOM     15  C   UNL     1      85.721  71.678  88.166  0.00  0.00    +0.000 A 
ATOM     16  C   UNL     1      84.580  72.284  87.639  0.00  0.00    +0.000 A 
ENDBRANCH  10  14
ENDBRANCH   1  10
TORSDOF 3
ENDMDL
