MODEL 1
REMARK VINA RESULT:      -4.2      0.000      0.000
REMARK  Name = *****
REMARK  3 active torsions:
REMARK  status: ('A' for Active; 'I' for Inactive)
REMARK    1  A    between atoms: C_4  and  C_6
REMARK    2  A    between atoms: C_7  and  C_8
REMARK    3  A    between atoms: C_7  and  C_10
REMARK                            x       y       z     vdW  Elec       q    Type
REMARK                         _______ _______ _______ _____ _____    ______ ____
ROOT
ATOM      1  C   UNL     1     102.034 125.944  82.760  0.00  0.00    +0.000 C 
ATOM      2  C   UNL     1     103.005 125.889  81.828  0.00  0.00    +0.000 C 
ENDROOT
BRANCH   2   3
ATOM      3  C   UNL     1     103.787 124.641  81.738  0.00  0.00    +0.000 A 
ATOM      4  C   UNL     1     104.295 124.211  80.503  0.00  0.00    +0.000 A 
ATOM      5  C   UNL     1     105.028 123.024  80.420  0.00  0.00    +0.000 A 
ATOM      6  C   UNL     1     105.247 122.273  81.569  0.00  0.00    +0.000 A 
ATOM      7  C   UNL     1     104.749 122.683  82.800  0.00  0.00    +0.000 A 
ATOM      8  C   UNL     1     104.016 123.868  82.887  0.00  0.00    +0.000 A 
ATOM      9  F   UNL     1     105.949 121.135  81.487  0.00  0.00    +0.000 F 
ENDBRANCH   2   3
BRANCH   1  13
ATOM     10  C   UNL     1     100.224 129.119  83.600  0.00  0.00    +0.000 A 
ATOM     11  C   UNL     1      99.126 128.471  83.088  0.00  0.00    +0.000 A 
ATOM     12  S   UNL     1      99.502 126.891  82.566  0.00  0.00    +0.000 S 
ATOM     13  C   UNL     1     101.169 127.057  82.994  0.00  0.00    +0.000 A 
ATOM     14  C   UNL     1     101.393 128.303  83.555  0.00  0.00    +0.000 A 
ENDBRANCH   1  13
BRANCH   2  15
ATOM     15  C   UNL     1     103.309 126.933  80.903  0.00  0.00    +0.000 C 
ATOM     16  N   UNL     1     103.544 127.776  80.140  0.00  0.00    +0.000 NA
ENDBRANCH   2  15
TORSDOF 3
ENDMDL
