MODEL 1
REMARK VINA RESULT:      -4.3      0.000      0.000
REMARK  Name = *****
REMARK  3 active torsions:
REMARK  status: ('A' for Active; 'I' for Inactive)
REMARK    1  A    between atoms: C_5  and  O_7
REMARK    2  A    between atoms: O_7  and  C_8
REMARK    3  A    between atoms: C_8  and  C_9
REMARK                            x       y       z     vdW  Elec       q    Type
REMARK                         _______ _______ _______ _____ _____    ______ ____
ROOT
ATOM      1  O   UNL     1      90.313  68.126  86.571  0.00  0.00    +0.000 OA
ENDROOT
BRANCH   1   6
ATOM      2  C   UNL     1      90.895  64.814  85.275  0.00  0.00    +0.000 A 
ATOM      3  C   UNL     1      89.820  64.066  85.734  0.00  0.00    +0.000 A 
ATOM      4  C   UNL     1      88.844  64.677  86.518  0.00  0.00    +0.000 A 
ATOM      5  C   UNL     1      88.927  66.040  86.853  0.00  0.00    +0.000 A 
ATOM      6  C   UNL     1      90.008  66.806  86.390  0.00  0.00    +0.000 A 
ATOM      7  C   UNL     1      90.983  66.168  85.602  0.00  0.00    +0.000 A 
ATOM      8 CL   UNL     1      87.634  66.623  87.840  0.00  0.00    +0.000 Cl
ENDBRANCH   1   6
BRANCH   1   9
ATOM      9  C   UNL     1      89.684  69.136  85.794  0.00  0.00    +0.000 C 
BRANCH   9  10
ATOM     10  C   UNL     1      88.677  69.891  86.641  0.00  0.00    +0.000 A 
ATOM     11  C   UNL     1      87.495  70.368  86.052  0.00  0.00    +0.000 A 
ATOM     12  C   UNL     1      86.534  71.030  86.820  0.00  0.00    +0.000 A 
ATOM     13  C   UNL     1      86.743  71.211  88.185  0.00  0.00    +0.000 A 
ATOM     14  C   UNL     1      87.903  70.731  88.789  0.00  0.00    +0.000 A 
ATOM     15  C   UNL     1      88.862  70.067  88.021  0.00  0.00    +0.000 A 
ATOM     16 CL   UNL     1      85.559  72.025  89.131  0.00  0.00    +0.000 Cl
ENDBRANCH   9  10
ENDBRANCH   1   9
TORSDOF 3
ENDMDL
