REMARK  Name = *****
REMARK  5 active torsions:
REMARK  status: ('A' for Active; 'I' for Inactive)
REMARK    1  A    between atoms: C_1  and  C_2
REMARK    2  A    between atoms: C_5  and  N_8
REMARK    3  A    between atoms: N_8  and  N_9
REMARK    4  A    between atoms: N_9  and  C_10
REMARK    5  A    between atoms: C_10  and  C_11
REMARK                            x       y       z     vdW  Elec       q    Type
REMARK                         _______ _______ _______ _____ _____    ______ ____
ROOT
ATOM      1  N   UNL     1      -3.297   0.042   0.033  0.00  0.00    +0.000 NA
ENDROOT
BRANCH   1   6
ATOM      2  C   UNL     1       2.407   0.032  -0.036  0.00  0.00    +0.000 C 
ATOM      3  C   UNL     1       0.912   0.058   0.010  0.00  0.00    +0.000 A 
ATOM      4  C   UNL     1       0.215   1.265  -0.071  0.00  0.00    +0.000 A 
ATOM      5  C   UNL     1      -1.187   1.282  -0.061  0.00  0.00    +0.000 A 
ATOM      6  C   UNL     1      -1.944   0.104   0.019  0.00  0.00    +0.000 A 
ATOM      7  C   UNL     1      -1.222  -1.098   0.082  0.00  0.00    +0.000 A 
ATOM      8  C   UNL     1       0.179  -1.128   0.073  0.00  0.00    +0.000 A 
ENDBRANCH   1   6
BRANCH   1   9
ATOM      9  N   UNL     1      -3.973   1.336   0.013  0.00  0.00    +0.000 NA
BRANCH   9  10
ATOM     10  C   UNL     1      -4.528   2.303   0.001  0.00  0.00    +0.000 C 
BRANCH  10  11
ATOM     11  C   UNL     1      -5.234   3.546  -0.013  0.00  0.00    +0.000 A 
ATOM     12  C   UNL     1      -4.533   4.750   0.081  0.00  0.00    +0.000 A 
ATOM     13  C   UNL     1      -5.221   5.965   0.069  0.00  0.00    +0.000 A 
ATOM     14  C   UNL     1      -6.613   5.976  -0.038  0.00  0.00    +0.000 A 
ATOM     15  C   UNL     1      -7.316   4.774  -0.131  0.00  0.00    +0.000 A 
ATOM     16  C   UNL     1      -6.626   3.560  -0.119  0.00  0.00    +0.000 A 
ENDBRANCH  10  11
ENDBRANCH   9  10
ENDBRANCH   1   9
TORSDOF 4
