MODEL 1
REMARK VINA RESULT:      -4.6      0.000      0.000
REMARK  Name = *****
REMARK  6 active torsions:
REMARK  status: ('A' for Active; 'I' for Inactive)
REMARK    1  A    between atoms: C_1  and  C_2
REMARK    2  A    between atoms: C_4  and  C_19
REMARK    3  A    between atoms: C_5  and  C_8
REMARK    4  A    between atoms: C_8  and  C_9
REMARK    5  A    between atoms: C_9  and  C_10
REMARK    6  A    between atoms: C_10  and  C_12
REMARK                            x       y       z     vdW  Elec       q    Type
REMARK                         _______ _______ _______ _____ _____    ______ ____
ROOT
ATOM      1  C   UNL     1      89.739  68.565  86.451  0.00  0.00    +0.000 C 
ENDROOT
BRANCH   1   2
ATOM      2  C   UNL     1      88.547  67.669  86.180  0.00  0.00    +0.000 C 
ATOM      3  O   UNL     1      87.941  67.697  85.107  0.00  0.00    +0.000 OA
BRANCH   2   4
ATOM      4  C   UNL     1      88.079  66.727  87.237  0.00  0.00    +0.000 A 
ATOM      5  C   UNL     1      88.753  65.504  87.383  0.00  0.00    +0.000 A 
ATOM      6  C   UNL     1      88.355  64.582  88.354  0.00  0.00    +0.000 A 
ATOM      7  C   UNL     1      87.280  64.872  89.192  0.00  0.00    +0.000 A 
ATOM      8  C   UNL     1      86.606  66.084  89.058  0.00  0.00    +0.000 A 
ATOM      9  C   UNL     1      87.007  67.002  88.087  0.00  0.00    +0.000 A 
ATOM     10  F   UNL     1      86.330  68.157  88.013  0.00  0.00    +0.000 F 
ENDBRANCH   2   4
ENDBRANCH   1   2
BRANCH   1  11
ATOM     11  C   UNL     1      89.412  70.036  86.183  0.00  0.00    +0.000 C 
BRANCH  11  16
ATOM     12  C   UNL     1      85.518  71.954  90.083  0.00  0.00    +0.000 C 
ATOM     13  C   UNL     1      86.522  71.493  89.069  0.00  0.00    +0.000 A 
ATOM     14  C   UNL     1      86.207  71.501  87.704  0.00  0.00    +0.000 A 
ATOM     15  C   UNL     1      87.120  71.039  86.739  0.00  0.00    +0.000 A 
ATOM     16  C   UNL     1      88.379  70.562  87.156  0.00  0.00    +0.000 A 
ATOM     17  C   UNL     1      88.679  70.537  88.528  0.00  0.00    +0.000 A 
ATOM     18  C   UNL     1      87.760  70.993  89.474  0.00  0.00    +0.000 A 
ATOM     19  C   UNL     1      86.731  71.097  85.287  0.00  0.00    +0.000 C 
ENDBRANCH  11  16
ENDBRANCH   1  11
TORSDOF 4
ENDMDL
