REMARK  Name = *****
REMARK  0 active torsions:
REMARK  status: ('A' for Active; 'I' for Inactive)
REMARK                            x       y       z     vdW  Elec       q    Type
REMARK                         _______ _______ _______ _____ _____    ______ ____
ROOT
ATOM      1  C   UNL     1       0.131  -0.935  -0.303  0.00  0.00    +0.000 A 
ATOM      2  C   UNL     1      -1.013  -0.259   0.103  0.00  0.00    +0.000 A 
ATOM      3  C   UNL     1      -0.965   1.118   0.294  0.00  0.00    +0.000 A 
ATOM      4  C   UNL     1       0.231   1.813   0.077  0.00  0.00    +0.000 A 
ATOM      5  C   UNL     1       0.268   3.211   0.269  0.00  0.00    +0.000 C 
ATOM      6  C   UNL     1       0.808   4.271   0.187  0.00  0.00    +0.000 C 
ATOM      7  C   UNL     1       1.895   5.087  -0.193  0.00  0.00    +0.000 A 
ATOM      8  C   UNL     1       1.767   6.480  -0.131  0.00  0.00    +0.000 A 
ATOM      9  C   UNL     1       2.818   7.293  -0.542  0.00  0.00    +0.000 A 
ATOM     10  C   UNL     1       3.987   6.713  -1.021  0.00  0.00    +0.000 A 
ATOM     11  C   UNL     1       4.109   5.319  -1.077  0.00  0.00    +0.000 A 
ATOM     12  C   UNL     1       3.068   4.462  -0.662  0.00  0.00    +0.000 A 
ATOM     13  C   UNL     1       3.359   2.991  -0.715  0.00  0.00    +0.000 C 
ATOM     14  C   UNL     1       2.752   1.784  -0.598  0.00  0.00    +0.000 C 
ATOM     15  C   UNL     1       1.407   1.166  -0.350  0.00  0.00    +0.000 A 
ATOM     16  C   UNL     1       1.322  -0.232  -0.526  0.00  0.00    +0.000 A 
ENDROOT
TORSDOF 0
