MODEL 1
REMARK VINA RESULT:      -5.0      0.000      0.000
REMARK  Name = *****
REMARK  6 active torsions:
REMARK  status: ('A' for Active; 'I' for Inactive)
REMARK    1  A    between atoms: C_1  and  C_2
REMARK    2  A    between atoms: C_5  and  C_8
REMARK    3  A    between atoms: C_8  and  C_9
REMARK    4  A    between atoms: C_8  and  C_16
REMARK    5  A    between atoms: C_9  and  C_10
REMARK    6  A    between atoms: C_16  and  C_18
REMARK                            x       y       z     vdW  Elec       q    Type
REMARK                         _______ _______ _______ _____ _____    ______ ____
ROOT
ATOM      1  C   UNL     1     102.923 126.107  81.529  0.00  0.00    +0.000 C 
ENDROOT
BRANCH   1   6
ATOM      2  C   UNL     1     106.121 121.183  81.414  0.00  0.00    +0.000 C 
ATOM      3  C   UNL     1     105.308 122.442  81.425  0.00  0.00    +0.000 A 
ATOM      4  C   UNL     1     105.166 123.216  80.273  0.00  0.00    +0.000 A 
ATOM      5  C   UNL     1     104.401 124.388  80.290  0.00  0.00    +0.000 A 
ATOM      6  C   UNL     1     103.744 124.814  81.453  0.00  0.00    +0.000 A 
ATOM      7  C   UNL     1     103.923 124.041  82.614  0.00  0.00    +0.000 A 
ATOM      8  C   UNL     1     104.687 122.869  82.600  0.00  0.00    +0.000 A 
ENDBRANCH   1   6
BRANCH   1   9
ATOM      9  C   UNL     1     103.577 127.331  80.863  0.00  0.00    +0.000 C 
ATOM     10  O   UNL     1     103.420 127.630  79.678  0.00  0.00    +0.000 OA
ATOM     11  C   UNL     1     104.469 128.192  81.726  0.00  0.00    +0.000 C 
ENDBRANCH   1   9
BRANCH   1  12
ATOM     12  C   UNL     1     102.315 126.480  82.906  0.00  0.00    +0.000 C 
BRANCH  12  13
ATOM     13  C   UNL     1     101.055 127.320  82.995  0.00  0.00    +0.000 A 
ATOM     14  C   UNL     1     101.007 128.606  83.546  0.00  0.00    +0.000 A 
ATOM     15  C   UNL     1      99.808 129.322  83.584  0.00  0.00    +0.000 A 
ATOM     16  C   UNL     1      98.639 128.768  83.070  0.00  0.00    +0.000 A 
ATOM     17  C   UNL     1      98.669 127.496  82.510  0.00  0.00    +0.000 A 
ATOM     18  C   UNL     1      99.867 126.782  82.465  0.00  0.00    +0.000 A 
ENDBRANCH  12  13
ENDBRANCH   1  12
TORSDOF 4
ENDMDL
