REMARK  Name = *****
REMARK  5 active torsions:
REMARK  status: ('A' for Active; 'I' for Inactive)
REMARK    1  A    between atoms: C_1  and  C_2
REMARK    2  A    between atoms: C_3  and  C_17
REMARK    3  A    between atoms: C_5  and  C_8
REMARK    4  A    between atoms: C_8  and  S_10
REMARK    5  A    between atoms: S_10  and  C_11
REMARK                            x       y       z     vdW  Elec       q    Type
REMARK                         _______ _______ _______ _____ _____    ______ ____
ROOT
ATOM      1  C   UNL     1      -3.311  -0.832  -0.254  0.00  0.00    +0.000 C 
ATOM      2  O   UNL     1      -3.495  -2.019  -0.010  0.00  0.00    +0.000 OA
ENDROOT
BRANCH   1   7
ATOM      3  C   UNL     1       2.137   1.227  -0.060  0.00  0.00    +0.000 C 
ATOM      4  C   UNL     1       0.734   0.687  -0.113  0.00  0.00    +0.000 A 
ATOM      5  C   UNL     1       0.464  -0.678   0.098  0.00  0.00    +0.000 A 
ATOM      6  C   UNL     1      -0.866  -1.132   0.040  0.00  0.00    +0.000 A 
ATOM      7  C   UNL     1      -1.931  -0.255  -0.226  0.00  0.00    +0.000 A 
ATOM      8  C   UNL     1      -1.647   1.099  -0.433  0.00  0.00    +0.000 A 
ATOM      9  C   UNL     1      -0.329   1.562  -0.377  0.00  0.00    +0.000 A 
ATOM     10  C   UNL     1       1.566  -1.662   0.386  0.00  0.00    +0.000 C 
ENDBRANCH   1   7
BRANCH   1  11
ATOM     11  S   UNL     1      -4.653   0.230  -0.671  0.00  0.00    +0.000 S 
BRANCH  11  12
ATOM     12  C   UNL     1      -5.917  -0.314   0.461  0.00  0.00    +0.000 A 
ATOM     13  C   UNL     1      -5.691  -0.367   1.841  0.00  0.00    +0.000 A 
ATOM     14  C   UNL     1      -6.712  -0.761   2.710  0.00  0.00    +0.000 A 
ATOM     15  C   UNL     1      -7.967  -1.095   2.206  0.00  0.00    +0.000 A 
ATOM     16  C   UNL     1      -8.204  -1.034   0.834  0.00  0.00    +0.000 A 
ATOM     17  C   UNL     1      -7.184  -0.642  -0.035  0.00  0.00    +0.000 A 
ENDBRANCH  11  12
ENDBRANCH   1  11
TORSDOF 3
