MODEL 1
REMARK VINA RESULT:      -4.2      0.000      0.000
REMARK  Name = *****
REMARK  5 active torsions:
REMARK  status: ('A' for Active; 'I' for Inactive)
REMARK    1  A    between atoms: C_1  and  C_2
REMARK    2  A    between atoms: C_7  and  C_8
REMARK    3  A    between atoms: C_8  and  O_10
REMARK    4  A    between atoms: O_10  and  C_11
REMARK    5  A    between atoms: C_11  and  C_12
REMARK                            x       y       z     vdW  Elec       q    Type
REMARK                         _______ _______ _______ _____ _____    ______ ____
ROOT
ATOM      1  C   UNL     1      87.876  68.475  85.154  0.00  0.00    +0.000 C 
ATOM      2  O   UNL     1      87.864  67.550  84.350  0.00  0.00    +0.000 OA
ENDROOT
BRANCH   1   9
ATOM      3  C   UNL     1      86.208  67.633  87.436  0.00  0.00    +0.000 C 
ATOM      4  C   UNL     1      87.727  67.462  87.535  0.00  0.00    +0.000 C 
ATOM      5  C   UNL     1      88.122  66.006  87.476  0.00  0.00    +0.000 C 
ATOM      6  C   UNL     1      89.216  65.565  86.840  0.00  0.00    +0.000 C 
ATOM      7  C   UNL     1      90.183  66.463  86.128  0.00  0.00    +0.000 C 
ATOM      8  C   UNL     1      89.977  67.951  86.433  0.00  0.00    +0.000 C 
ATOM      9  C   UNL     1      88.500  68.353  86.537  0.00  0.00    +0.000 C 
ENDBRANCH   1   9
BRANCH   1  10
ATOM     10  O   UNL     1      87.325  69.695  84.945  0.00  0.00    +0.000 OA
BRANCH  10  11
ATOM     11  C   UNL     1      87.741  70.735  85.836  0.00  0.00    +0.000 C 
BRANCH  11  12
ATOM     12  C   UNL     1      86.537  71.302  86.541  0.00  0.00    +0.000 A 
ATOM     13  C   UNL     1      85.481  71.862  85.808  0.00  0.00    +0.000 A 
ATOM     14  C   UNL     1      84.376  72.408  86.463  0.00  0.00    +0.000 A 
ATOM     15  C   UNL     1      84.321  72.407  87.856  0.00  0.00    +0.000 A 
ATOM     16  C   UNL     1      85.370  71.865  88.594  0.00  0.00    +0.000 A 
ATOM     17  C   UNL     1      86.476  71.319  87.941  0.00  0.00    +0.000 A 
ENDBRANCH  11  12
ENDBRANCH  10  11
ENDBRANCH   1  10
TORSDOF 4
ENDMDL
