MODEL 1
REMARK VINA RESULT:      -4.1      0.000      0.000
REMARK  Name = *****
REMARK  4 active torsions:
REMARK  status: ('A' for Active; 'I' for Inactive)
REMARK    1  A    between atoms: C_5  and  N_7
REMARK    2  A    between atoms: N_7  and  C_8
REMARK    3  A    between atoms: N_7  and  P_16
REMARK    4  A    between atoms: C_8  and  C_9
REMARK                            x       y       z     vdW  Elec       q    Type
REMARK                         _______ _______ _______ _____ _____    ______ ____
ROOT
ATOM      1  N   UNL     1      87.261  64.166  87.681  0.00  0.00    +0.000 NA
ENDROOT
BRANCH   1   6
ATOM      2  C   UNL     1      86.822  64.012  91.537  0.00  0.00    +0.000 C 
ATOM      3  C   UNL     1      88.258  64.431  91.829  0.00  0.00    +0.000 C 
ATOM      4  C   UNL     1      89.190  63.897  90.790  0.00  0.00    +0.000 C 
ATOM      5  C   UNL     1      88.785  63.496  89.575  0.00  0.00    +0.000 C 
ATOM      6  C   UNL     1      87.354  63.571  89.047  0.00  0.00    +0.000 C 
ATOM      7  C   UNL     1      86.461  64.322  90.085  0.00  0.00    +0.000 C 
ENDBRANCH   1   6
BRANCH   1   8
ATOM      8  P   UNL     1      86.215  63.445  86.509  0.00  0.00    +0.000 P 
ATOM      9  H   UNL     1      86.960  62.672  85.641  0.00  0.00    +0.000 HD
ATOM     10  H   UNL     1      85.566  64.435  85.800  0.00  0.00    +0.000 HD
ENDBRANCH   1   8
BRANCH   1  11
ATOM     11  C   UNL     1      88.548  64.637  87.092  0.00  0.00    +0.000 C 
BRANCH  11  12
ATOM     12  C   UNL     1      88.722  66.145  86.949  0.00  0.00    +0.000 A 
ATOM     13  C   UNL     1      87.758  67.000  87.516  0.00  0.00    +0.000 A 
ATOM     14  C   UNL     1      87.911  68.387  87.498  0.00  0.00    +0.000 A 
ATOM     15  C   UNL     1      89.021  68.955  86.885  0.00  0.00    +0.000 A 
ATOM     16  C   UNL     1      89.962  68.134  86.266  0.00  0.00    +0.000 A 
ATOM     17  C   UNL     1      89.814  66.741  86.289  0.00  0.00    +0.000 A 
ATOM     18 BR   UNL     1      91.146  65.746  85.364  0.00  0.00    +0.000 Br
ENDBRANCH  11  12
ENDBRANCH   1  11
TORSDOF 4
ENDMDL
