REMARK  Name = *****
REMARK  4 active torsions:
REMARK  status: ('A' for Active; 'I' for Inactive)
REMARK    1  A    between atoms: C_4  and  O_7
REMARK    2  A    between atoms: O_7  and  C_8
REMARK    3  A    between atoms: C_8  and  S_9
REMARK    4  A    between atoms: S_9  and  C_10
REMARK                            x       y       z     vdW  Elec       q    Type
REMARK                         _______ _______ _______ _____ _____    ______ ____
ROOT
ATOM      1  C   UNL     1      -3.663  -0.557  -0.297  0.00  0.00    +0.000 C 
ENDROOT
BRANCH   1   2
ATOM      2  O   UNL     1      -2.708   0.498  -0.236  0.00  0.00    +0.000 OA
BRANCH   2   6
ATOM      3  C   UNL     1       1.294  -0.274   0.612  0.00  0.00    +0.000 A 
ATOM      4  C   UNL     1       0.444  -1.358   0.399  0.00  0.00    +0.000 A 
ATOM      5  C   UNL     1      -0.909  -1.149   0.112  0.00  0.00    +0.000 A 
ATOM      6  C   UNL     1      -1.415   0.150   0.038  0.00  0.00    +0.000 A 
ATOM      7  C   UNL     1      -0.555   1.232   0.248  0.00  0.00    +0.000 A 
ATOM      8  C   UNL     1       0.794   1.023   0.536  0.00  0.00    +0.000 A 
ENDBRANCH   2   6
ENDBRANCH   1   2
BRANCH   1   9
ATOM      9  S   UNL     1      -5.350   0.084  -0.564  0.00  0.00    +0.000 S 
BRANCH   9  10
ATOM     10  C   UNL     1      -5.713   0.998   0.932  0.00  0.00    +0.000 A 
ATOM     11  C   UNL     1      -4.862   1.118   2.036  0.00  0.00    +0.000 A 
ATOM     12  C   UNL     1      -5.247   1.859   3.158  0.00  0.00    +0.000 A 
ATOM     13  C   UNL     1      -6.489   2.489   3.193  0.00  0.00    +0.000 A 
ATOM     14  C   UNL     1      -7.347   2.378   2.104  0.00  0.00    +0.000 A 
ATOM     15  C   UNL     1      -6.961   1.638   0.983  0.00  0.00    +0.000 A 
ENDBRANCH   9  10
ENDBRANCH   1   9
TORSDOF 4
