MODEL 1
REMARK VINA RESULT:      -4.4      0.000      0.000
REMARK  Name = *****
REMARK  4 active torsions:
REMARK  status: ('A' for Active; 'I' for Inactive)
REMARK    1  A    between atoms: C_2  and  C_3
REMARK    2  A    between atoms: C_3  and  C_4
REMARK    3  A    between atoms: C_8  and  C_10
REMARK    4  A    between atoms: C_11  and  C_12
REMARK                            x       y       z     vdW  Elec       q    Type
REMARK                         _______ _______ _______ _____ _____    ______ ____
ROOT
ATOM      1  C   UNL     1     105.358 122.609  81.933  0.00  0.00    +0.000 C 
ATOM      2  C   UNL     1     105.637 122.563  80.417  0.00  0.00    +0.000 C 
ATOM      3  C   UNL     1     105.732 123.961  79.813  0.00  0.00    +0.000 C 
ATOM      4  C   UNL     1     104.440 124.748  80.039  0.00  0.00    +0.000 C 
ATOM      5  C   UNL     1     103.870 124.588  81.426  0.00  0.00    +0.000 C 
ATOM      6  C   UNL     1     104.295 123.632  82.271  0.00  0.00    +0.000 C 
ENDROOT
BRANCH   5   7
ATOM      7  C   UNL     1     102.855 125.492  81.860  0.00  0.00    +0.000 C 
ATOM      8  C   UNL     1     101.997 126.250  82.224  0.00  0.00    +0.000 C 
BRANCH   8   9
ATOM      9  C   UNL     1     100.976 127.154  82.655  0.00  0.00    +0.000 A 
ATOM     10  C   UNL     1     101.318 128.326  83.335  0.00  0.00    +0.000 A 
ATOM     11  C   UNL     1     100.320 129.206  83.758  0.00  0.00    +0.000 A 
ATOM     12  C   UNL     1      98.979 128.916  83.502  0.00  0.00    +0.000 A 
ATOM     13  C   UNL     1      98.636 127.747  82.823  0.00  0.00    +0.000 A 
ATOM     14  C   UNL     1      99.634 126.865  82.401  0.00  0.00    +0.000 A 
ENDBRANCH   8   9
ENDBRANCH   5   7
BRANCH   1  15
ATOM     15  C   UNL     1     106.622 122.894  82.777  0.00  0.00    +0.000 C 
BRANCH  15  17
ATOM     16  C   UNL     1     107.421 125.269  82.971  0.00  0.00    +0.000 C 
ATOM     17  C   UNL     1     106.634 124.270  83.388  0.00  0.00    +0.000 C 
ENDBRANCH  15  17
ENDBRANCH   1  15
TORSDOF 4
ENDMDL
