MODEL 1
REMARK VINA RESULT:      -4.4      0.000      0.000
REMARK  Name = *****
REMARK  4 active torsions:
REMARK  status: ('A' for Active; 'I' for Inactive)
REMARK    1  A    between atoms: C_4  and  C_7
REMARK    2  A    between atoms: C_7  and  N_8
REMARK    3  A    between atoms: N_8  and  O_9
REMARK    4  A    between atoms: O_9  and  C_10
REMARK                            x       y       z     vdW  Elec       q    Type
REMARK                         _______ _______ _______ _____ _____    ______ ____
ROOT
ATOM      1  N   UNL     1     103.099 126.087  81.568  0.00  0.00    +0.000 NA
ENDROOT
BRANCH   1   2
ATOM      2  C   UNL     1     102.035 125.817  82.253  0.00  0.00    +0.000 C 
BRANCH   2   6
ATOM      3  C   UNL     1      99.234 128.843  83.333  0.00  0.00    +0.000 A 
ATOM      4  C   UNL     1      98.786 127.687  82.694  0.00  0.00    +0.000 A 
ATOM      5  C   UNL     1      99.695 126.690  82.336  0.00  0.00    +0.000 A 
ATOM      6  C   UNL     1     101.053 126.855  82.619  0.00  0.00    +0.000 A 
ATOM      7  C   UNL     1     101.504 128.013  83.259  0.00  0.00    +0.000 A 
ATOM      8  C   UNL     1     100.591 129.007  83.616  0.00  0.00    +0.000 A 
ENDBRANCH   2   6
ENDBRANCH   1   2
BRANCH   1   9
ATOM      9  O   UNL     1     103.092 125.306  80.404  0.00  0.00    +0.000 OA
BRANCH   9  10
ATOM     10  C   UNL     1     104.312 124.703  80.198  0.00  0.00    +0.000 A 
ATOM     11  C   UNL     1     105.385 125.289  79.520  0.00  0.00    +0.000 A 
ATOM     12  C   UNL     1     106.591 124.594  79.379  0.00  0.00    +0.000 A 
ATOM     13  C   UNL     1     106.721 123.316  79.920  0.00  0.00    +0.000 A 
ATOM     14  C   UNL     1     105.658 122.728  80.604  0.00  0.00    +0.000 A 
ATOM     15  C   UNL     1     104.456 123.424  80.745  0.00  0.00    +0.000 A 
ATOM     16 CL   UNL     1     108.204 122.461  79.746  0.00  0.00    +0.000 Cl
ENDBRANCH   9  10
ENDBRANCH   1   9
TORSDOF 4
ENDMDL
