MODEL 1
REMARK VINA RESULT:      -4.7      0.000      0.000
REMARK  Name = *****
REMARK  5 active torsions:
REMARK  status: ('A' for Active; 'I' for Inactive)
REMARK    1  A    between atoms: C_1  and  C_2
REMARK    2  A    between atoms: C_3  and  C_10
REMARK    3  A    between atoms: C_6  and  O_8
REMARK    4  A    between atoms: O_8  and  C_9
REMARK    5  A    between atoms: C_11  and  C_12
REMARK                            x       y       z     vdW  Elec       q    Type
REMARK                         _______ _______ _______ _____ _____    ______ ____
ROOT
ATOM      1  C   UNL     1     104.173 123.678  84.126  0.00  0.00    +0.000 C 
ATOM      2  C   UNL     1     104.552 123.651  82.669  0.00  0.00    +0.000 A 
ATOM      3  C   UNL     1     103.944 124.481  81.712  0.00  0.00    +0.000 A 
ATOM      4  C   UNL     1     104.370 124.433  80.381  0.00  0.00    +0.000 A 
ATOM      5  C   UNL     1     105.401 123.574  79.999  0.00  0.00    +0.000 A 
ATOM      6  C   UNL     1     106.021 122.750  80.938  0.00  0.00    +0.000 A 
ATOM      7  C   UNL     1     105.601 122.798  82.269  0.00  0.00    +0.000 A 
ENDROOT
BRANCH   6   8
ATOM      8  O   UNL     1     107.015 121.958  80.434  0.00  0.00    +0.000 OA
ATOM      9  C   UNL     1     107.367 120.807  81.192  0.00  0.00    +0.000 C 
ENDBRANCH   6   8
BRANCH   3  10
ATOM     10  C   UNL     1     102.880 125.379  82.051  0.00  0.00    +0.000 C 
ATOM     11  C   UNL     1     102.002 126.145  82.342  0.00  0.00    +0.000 C 
BRANCH  11  12
ATOM     12  C   UNL     1     100.972 127.076  82.685  0.00  0.00    +0.000 A 
ATOM     13  C   UNL     1      99.642 126.797  82.362  0.00  0.00    +0.000 A 
ATOM     14  C   UNL     1      98.637 127.709  82.689  0.00  0.00    +0.000 A 
ATOM     15  C   UNL     1      98.960 128.900  83.339  0.00  0.00    +0.000 A 
ATOM     16  C   UNL     1     100.287 129.181  83.663  0.00  0.00    +0.000 A 
ATOM     17  C   UNL     1     101.294 128.270  83.337  0.00  0.00    +0.000 A 
ENDBRANCH  11  12
ENDBRANCH   3  10
TORSDOF 3
ENDMDL
