MODEL 1
REMARK VINA RESULT:      -4.6      0.000      0.000
REMARK  Name = *****
REMARK  4 active torsions:
REMARK  status: ('A' for Active; 'I' for Inactive)
REMARK    1  A    between atoms: C_1  and  O_2
REMARK    2  A    between atoms: O_2  and  C_3
REMARK    3  A    between atoms: C_8  and  C_9
REMARK    4  A    between atoms: C_10  and  C_11
REMARK                            x       y       z     vdW  Elec       q    Type
REMARK                         _______ _______ _______ _____ _____    ______ ____
ROOT
ATOM      1  C   UNL     1     104.342 123.369  82.290  0.00  0.00    +0.000 A 
ATOM      2  C   UNL     1     105.172 122.634  81.432  0.00  0.00    +0.000 A 
ATOM      3  C   UNL     1     105.521 123.137  80.176  0.00  0.00    +0.000 A 
ATOM      4  C   UNL     1     105.043 124.376  79.761  0.00  0.00    +0.000 A 
ATOM      5  C   UNL     1     104.217 125.117  80.603  0.00  0.00    +0.000 A 
ATOM      6  C   UNL     1     103.867 124.630  81.873  0.00  0.00    +0.000 A 
ENDROOT
BRANCH   1   8
ATOM      7  C   UNL     1     104.683 121.899  84.143  0.00  0.00    +0.000 C 
ATOM      8  O   UNL     1     103.934 122.936  83.526  0.00  0.00    +0.000 OA
ENDBRANCH   1   8
BRANCH   6   9
ATOM      9  C   UNL     1     102.984 125.473  82.694  0.00  0.00    +0.000 C 
ATOM     10  C   UNL     1     101.834 125.988  82.232  0.00  0.00    +0.000 C 
BRANCH  10  11
ATOM     11  C   UNL     1     100.912 126.851  83.053  0.00  0.00    +0.000 C 
ATOM     12  C   UNL     1      99.523 126.925  82.400  0.00  0.00    +0.000 C 
ATOM     13  C   UNL     1      98.585 127.848  83.176  0.00  0.00    +0.000 C 
ATOM     14  C   UNL     1      99.186 129.239  83.356  0.00  0.00    +0.000 C 
ATOM     15  C   UNL     1     100.567 129.175  84.000  0.00  0.00    +0.000 C 
ATOM     16  C   UNL     1     101.509 128.257  83.225  0.00  0.00    +0.000 C 
ENDBRANCH  10  11
ENDBRANCH   6   9
TORSDOF 3
ENDMDL
