MODEL 1
REMARK VINA RESULT:      -5.1      0.000      0.000
REMARK  Name = *****
REMARK  1 active torsions:
REMARK  status: ('A' for Active; 'I' for Inactive)
REMARK    1  A    between atoms: C_9  and  C_10
REMARK                            x       y       z     vdW  Elec       q    Type
REMARK                         _______ _______ _______ _____ _____    ______ ____
ROOT
ATOM      1  C   UNL     1      98.578 128.158  82.709  0.00  0.00    +0.000 C 
ATOM      2  C   UNL     1      99.681 128.933  83.467  0.00  0.00    +0.000 C 
ATOM      3  C   UNL     1     100.855 128.090  83.198  0.00  0.00    +0.000 C 
ATOM      4  C   UNL     1     100.559 126.921  82.631  0.00  0.00    +0.000 C 
ATOM      5  C   UNL     1      99.114 126.742  82.403  0.00  0.00    +0.000 C 
ATOM      6  C   UNL     1     101.698 126.047  82.396  0.00  0.00    +0.000 C 
ATOM      7  C   UNL     1     102.869 126.868  82.942  0.00  0.00    +0.000 C 
ATOM      8  C   UNL     1     102.318 128.205  83.452  0.00  0.00    +0.000 C 
ATOM      9  C   UNL     1     102.817 126.485  81.474  0.00  0.00    +0.000 C 
ENDROOT
BRANCH   9  10
ATOM     10  C   UNL     1     103.787 125.458  80.936  0.00  0.00    +0.000 A 
ATOM     11  C   UNL     1     104.591 125.730  79.816  0.00  0.00    +0.000 A 
ATOM     12  C   UNL     1     105.500 124.790  79.325  0.00  0.00    +0.000 A 
ATOM     13  C   UNL     1     105.631 123.555  79.953  0.00  0.00    +0.000 A 
ATOM     14  C   UNL     1     104.855 123.263  81.071  0.00  0.00    +0.000 A 
ATOM     15  C   UNL     1     103.947 124.209  81.558  0.00  0.00    +0.000 A 
ENDBRANCH   9  10
TORSDOF 1
ENDMDL
