REMARK  Name = *****
REMARK  8 active torsions:
REMARK  status: ('A' for Active; 'I' for Inactive)
REMARK    1  A    between atoms: C_1  and  C_2
REMARK    2  A    between atoms: C_3  and  C_19
REMARK    3  A    between atoms: C_4  and  C_18
REMARK    4  A    between atoms: C_5  and  C_10
REMARK    5  A    between atoms: C_6  and  C_9
REMARK    6  A    between atoms: C_7  and  C_8
REMARK    7  A    between atoms: C_10  and  S_11
REMARK    8  A    between atoms: S_11  and  C_12
REMARK                            x       y       z     vdW  Elec       q    Type
REMARK                         _______ _______ _______ _____ _____    ______ ____
ROOT
ATOM      1  C   UNL     1      -2.616   1.557   0.087  0.00  0.00    +0.000 C 
ATOM      2  C   UNL     1      -1.236   0.938   0.014  0.00  0.00    +0.000 A 
ATOM      3  C   UNL     1      -0.105   1.790  -0.078  0.00  0.00    +0.000 A 
ATOM      4  C   UNL     1       1.197   1.236  -0.205  0.00  0.00    +0.000 A 
ATOM      5  C   UNL     1       1.383  -0.169  -0.088  0.00  0.00    +0.000 A 
ATOM      6  C   UNL     1       0.254  -1.010   0.131  0.00  0.00    +0.000 A 
ATOM      7  C   UNL     1      -1.057  -0.466   0.085  0.00  0.00    +0.000 A 
ATOM      8  C   UNL     1      -2.268  -1.374   0.142  0.00  0.00    +0.000 C 
ATOM      9  C   UNL     1       0.440  -2.493   0.377  0.00  0.00    +0.000 C 
ATOM     10  C   UNL     1       2.377   2.172  -0.379  0.00  0.00    +0.000 C 
ATOM     11  C   UNL     1      -0.286   3.295  -0.105  0.00  0.00    +0.000 C 
ENDROOT
BRANCH   5  12
ATOM     12  C   UNL     1       2.780  -0.777  -0.184  0.00  0.00    +0.000 C 
BRANCH  12  13
ATOM     13  S   UNL     1       3.673  -0.665   1.403  0.00  0.00    +0.000 S 
BRANCH  13  14
ATOM     14  C   UNL     1       5.230  -1.405   0.949  0.00  0.00    +0.000 A 
ATOM     15  C   UNL     1       6.238  -1.474   1.905  0.00  0.00    +0.000 A 
ATOM     16  C   UNL     1       7.458  -2.051   1.557  0.00  0.00    +0.000 A 
ATOM     17  C   UNL     1       7.634  -2.542   0.270  0.00  0.00    +0.000 A 
ATOM     18  C   UNL     1       6.578  -2.434  -0.618  0.00  0.00    +0.000 A 
ATOM     19  N   UNL     1       5.385  -1.879  -0.308  0.00  0.00    +0.000 NA
ENDBRANCH  13  14
ENDBRANCH  12  13
ENDBRANCH   5  12
TORSDOF 3
