REMARK  Name = *****
REMARK  5 active torsions:
REMARK  status: ('A' for Active; 'I' for Inactive)
REMARK    1  A    between atoms: C_1  and  C_2
REMARK    2  A    between atoms: C_4  and  O_8
REMARK    3  A    between atoms: O_8  and  C_9
REMARK    4  A    between atoms: C_9  and  C_11
REMARK    5  A    between atoms: C_14  and  C_17
REMARK                            x       y       z     vdW  Elec       q    Type
REMARK                         _______ _______ _______ _____ _____    ______ ____
ROOT
ATOM      1  C   UNL     1      -1.077   3.399  -0.473  0.00  0.00    +0.000 C 
ATOM      2  O   UNL     1      -0.671   4.203   0.351  0.00  0.00    +0.000 OA
ENDROOT
BRANCH   1   3
ATOM      3  C   UNL     1      -0.575   3.353  -1.876  0.00  0.00    +0.000 A 
ATOM      4  C   UNL     1       0.394   4.291  -2.259  0.00  0.00    +0.000 A 
ATOM      5  C   UNL     1       0.902   4.295  -3.562  0.00  0.00    +0.000 A 
ATOM      6  C   UNL     1       0.446   3.364  -4.507  0.00  0.00    +0.000 A 
ATOM      7  C   UNL     1      -0.517   2.420  -4.118  0.00  0.00    +0.000 A 
ATOM      8  C   UNL     1      -1.027   2.416  -2.815  0.00  0.00    +0.000 A 
BRANCH   6   9
ATOM      9  C   UNL     1       1.014   3.352  -5.907  0.00  0.00    +0.000 C 
ATOM     10  F   UNL     1       1.364   4.591  -6.351  0.00  0.00    +0.000 F 
ATOM     11  F   UNL     1       2.135   2.587  -6.003  0.00  0.00    +0.000 F 
ATOM     12  F   UNL     1       0.143   2.859  -6.832  0.00  0.00    +0.000 F 
ENDBRANCH   6   9
ENDBRANCH   1   3
BRANCH   1  13
ATOM     13  O   UNL     1      -2.032   2.416  -0.289  0.00  0.00    +0.000 OA
BRANCH  13  17
ATOM     14  C   UNL     1      -4.735   4.428   3.344  0.00  0.00    +0.000 C 
ATOM     15  C   UNL     1      -3.946   3.290   2.767  0.00  0.00    +0.000 A 
ATOM     16  C   UNL     1      -3.335   3.418   1.514  0.00  0.00    +0.000 A 
ATOM     17  C   UNL     1      -2.613   2.347   0.985  0.00  0.00    +0.000 A 
ATOM     18  C   UNL     1      -2.531   1.131   1.658  0.00  0.00    +0.000 A 
ATOM     19  C   UNL     1      -3.153   0.995   2.898  0.00  0.00    +0.000 A 
ATOM     20  C   UNL     1      -3.858   2.068   3.448  0.00  0.00    +0.000 A 
ENDBRANCH  13  17
ENDBRANCH   1  13
TORSDOF 4
