MODEL 1
REMARK VINA RESULT:      -4.7      0.000      0.000
REMARK  Name = *****
REMARK  4 active torsions:
REMARK  status: ('A' for Active; 'I' for Inactive)
REMARK    1  A    between atoms: C_1  and  C_2
REMARK    2  A    between atoms: C_4  and  C_8
REMARK    3  A    between atoms: C_8  and  O_9
REMARK    4  A    between atoms: O_9  and  C_10
REMARK                            x       y       z     vdW  Elec       q    Type
REMARK                         _______ _______ _______ _____ _____    ______ ____
ROOT
ATOM      1  C   UNL     1     102.641 126.906  83.186  0.00  0.00    +0.000 C 
ENDROOT
BRANCH   1   5
ATOM      2  C   UNL     1      99.400 130.701  83.973  0.00  0.00    +0.000 C 
ATOM      3  C   UNL     1      99.670 129.301  83.506  0.00  0.00    +0.000 A 
ATOM      4  C   UNL     1     100.963 128.766  83.580  0.00  0.00    +0.000 A 
ATOM      5  C   UNL     1     101.237 127.466  83.126  0.00  0.00    +0.000 A 
ATOM      6  C   UNL     1     100.197 126.714  82.562  0.00  0.00    +0.000 A 
ATOM      7  C   UNL     1      98.910 127.246  82.469  0.00  0.00    +0.000 A 
ATOM      8  C   UNL     1      98.649 128.535  82.935  0.00  0.00    +0.000 A 
ENDBRANCH   1   5
BRANCH   1   9
ATOM      9  O   UNL     1     102.576 125.479  83.181  0.00  0.00    +0.000 OA
BRANCH   9  10
ATOM     10  C   UNL     1     103.409 124.817  82.321  0.00  0.00    +0.000 A 
ATOM     11  C   UNL     1     103.503 125.402  81.053  0.00  0.00    +0.000 A 
ATOM     12  C   UNL     1     104.315 124.840  80.065  0.00  0.00    +0.000 A 
ATOM     13  C   UNL     1     105.046 123.685  80.336  0.00  0.00    +0.000 A 
ATOM     14  C   UNL     1     104.962 123.096  81.595  0.00  0.00    +0.000 A 
ATOM     15  C   UNL     1     104.149 123.661  82.578  0.00  0.00    +0.000 A 
ATOM     16  F   UNL     1     104.108 123.052  83.773  0.00  0.00    +0.000 F 
ENDBRANCH   9  10
ENDBRANCH   1   9
TORSDOF 3
ENDMDL
