REMARK  Name = *****
REMARK  3 active torsions:
REMARK  status: ('A' for Active; 'I' for Inactive)
REMARK    1  A    between atoms: C_6  and  C_7
REMARK    2  A    between atoms: C_7  and  O_9
REMARK    3  A    between atoms: O_9  and  C_10
REMARK                            x       y       z     vdW  Elec       q    Type
REMARK                         _______ _______ _______ _____ _____    ______ ____
ROOT
ATOM      1  C   UNL     1      -3.107   0.113   0.974  0.00  0.00    +0.000 C 
ATOM      2  O   UNL     1      -3.733  -0.888   1.290  0.00  0.00    +0.000 OA
ENDROOT
BRANCH   1   8
ATOM      3  C   UNL     1      -1.053   1.221  -0.030  0.00  0.00    +0.000 A 
ATOM      4  C   UNL     1       0.218   1.112  -0.603  0.00  0.00    +0.000 A 
ATOM      5  C   UNL     1       0.787  -0.144  -0.783  0.00  0.00    +0.000 A 
ATOM      6  C   UNL     1       0.112  -1.297  -0.403  0.00  0.00    +0.000 A 
ATOM      7  C   UNL     1      -1.159  -1.194   0.168  0.00  0.00    +0.000 A 
ATOM      8  C   UNL     1      -1.750   0.066   0.360  0.00  0.00    +0.000 A 
ATOM      9  F   UNL     1       2.005  -0.242  -1.331  0.00  0.00    +0.000 F 
ENDBRANCH   1   8
BRANCH   1  10
ATOM     10  O   UNL     1      -3.512   1.427   1.119  0.00  0.00    +0.000 OA
BRANCH  10  11
ATOM     11  C   UNL     1      -4.775   1.576   1.698  0.00  0.00    +0.000 A 
ATOM     12  C   UNL     1      -5.807   2.067   0.901  0.00  0.00    +0.000 A 
ATOM     13  C   UNL     1      -7.068   2.273   1.466  0.00  0.00    +0.000 A 
ATOM     14  C   UNL     1      -7.280   2.001   2.825  0.00  0.00    +0.000 A 
ATOM     15  C   UNL     1      -6.227   1.528   3.616  0.00  0.00    +0.000 A 
ATOM     16  C   UNL     1      -4.966   1.322   3.056  0.00  0.00    +0.000 A 
ATOM     17 CL   UNL     1      -8.813   2.237   3.588  0.00  0.00    +0.000 Cl
ATOM     18 CL   UNL     1      -8.319   2.875   0.436  0.00  0.00    +0.000 Cl
ENDBRANCH  10  11
ENDBRANCH   1  10
TORSDOF 3
