MODEL 1
REMARK VINA RESULT:      -4.4      0.000      0.000
REMARK  Name = *****
REMARK  6 active torsions:
REMARK  status: ('A' for Active; 'I' for Inactive)
REMARK    1  A    between atoms: C_1  and  N_2
REMARK    2  A    between atoms: N_2  and  C_3
REMARK    3  A    between atoms: N_2  and  C_4
REMARK    4  A    between atoms: C_7  and  C_10
REMARK    5  A    between atoms: C_10  and  S_12
REMARK    6  A    between atoms: S_12  and  C_13
REMARK                            x       y       z     vdW  Elec       q    Type
REMARK                         _______ _______ _______ _____ _____    ______ ____
ROOT
ATOM      1  C   UNL     1      88.848  64.347  86.631  0.00  0.00    +0.000 C 
ATOM      2  O   UNL     1      89.834  63.791  86.163  0.00  0.00    +0.000 OA
ENDROOT
BRANCH   1   6
ATOM      3  C   UNL     1      88.704  68.708  86.653  0.00  0.00    +0.000 A 
ATOM      4  C   UNL     1      89.862  67.978  86.341  0.00  0.00    +0.000 A 
ATOM      5  C   UNL     1      89.888  66.575  86.344  0.00  0.00    +0.000 A 
ATOM      6  C   UNL     1      88.741  65.837  86.647  0.00  0.00    +0.000 A 
ATOM      7  C   UNL     1      87.570  66.537  86.945  0.00  0.00    +0.000 A 
ATOM      8  C   UNL     1      87.560  67.943  86.941  0.00  0.00    +0.000 A 
BRANCH   3  10
ATOM      9  C   UNL     1      87.389  70.798  86.759  0.00  0.00    +0.000 C 
ATOM     10  N   UNL     1      88.670  70.106  86.635  0.00  0.00    +0.000 N 
ATOM     11  C   UNL     1      89.705  70.823  85.890  0.00  0.00    +0.000 C 
ENDBRANCH   3  10
ENDBRANCH   1   6
BRANCH   1  12
ATOM     12  S   UNL     1      87.520  63.392  87.286  0.00  0.00    +0.000 S 
BRANCH  12  13
ATOM     13  C   UNL     1      87.701  63.738  89.025  0.00  0.00    +0.000 A 
ATOM     14  C   UNL     1      86.613  64.145  89.808  0.00  0.00    +0.000 A 
ATOM     15  C   UNL     1      86.785  64.421  91.167  0.00  0.00    +0.000 A 
ATOM     16  C   UNL     1      88.046  64.300  91.745  0.00  0.00    +0.000 A 
ATOM     17  C   UNL     1      89.139  63.910  90.973  0.00  0.00    +0.000 A 
ATOM     18  C   UNL     1      88.967  63.632  89.614  0.00  0.00    +0.000 A 
ATOM     19 CL   UNL     1      88.259  64.640  93.417  0.00  0.00    +0.000 Cl
ENDBRANCH  12  13
ENDBRANCH   1  12
TORSDOF 4
ENDMDL
