MODEL 1
REMARK VINA RESULT:      -4.2      0.000      0.000
REMARK  Name = *****
REMARK  4 active torsions:
REMARK  status: ('A' for Active; 'I' for Inactive)
REMARK    1  A    between atoms: C_1  and  C_2
REMARK    2  A    between atoms: C_7  and  C_8
REMARK    3  A    between atoms: C_8  and  S_10
REMARK    4  A    between atoms: S_10  and  C_11
REMARK                            x       y       z     vdW  Elec       q    Type
REMARK                         _______ _______ _______ _____ _____    ______ ____
ROOT
ATOM      1  C   UNL     1      88.523  70.670  85.300  0.00  0.00    +0.000 C 
ATOM      2  O   UNL     1      89.610  71.225  85.383  0.00  0.00    +0.000 OA
ENDROOT
BRANCH   1   9
ATOM      3  C   UNL     1      88.589  70.229  88.285  0.00  0.00    +0.000 C 
ATOM      4  C   UNL     1      87.430  70.870  87.575  0.00  0.00    +0.000 A 
ATOM      5  C   UNL     1      86.329  71.308  88.328  0.00  0.00    +0.000 A 
ATOM      6  C   UNL     1      85.221  71.889  87.706  0.00  0.00    +0.000 A 
ATOM      7  C   UNL     1      85.194  72.043  86.322  0.00  0.00    +0.000 A 
ATOM      8  C   UNL     1      86.283  71.632  85.558  0.00  0.00    +0.000 A 
ATOM      9  C   UNL     1      87.407  71.070  86.182  0.00  0.00    +0.000 A 
ENDBRANCH   1   9
BRANCH   1  10
ATOM     10  S   UNL     1      88.204  69.284  84.263  0.00  0.00    +0.000 S 
BRANCH  10  11
ATOM     11  C   UNL     1      88.317  67.929  85.412  0.00  0.00    +0.000 A 
ATOM     12  C   UNL     1      89.553  67.376  85.766  0.00  0.00    +0.000 A 
ATOM     13  C   UNL     1      89.623  66.330  86.691  0.00  0.00    +0.000 A 
ATOM     14  C   UNL     1      88.456  65.843  87.274  0.00  0.00    +0.000 A 
ATOM     15  C   UNL     1      87.220  66.394  86.941  0.00  0.00    +0.000 A 
ATOM     16  C   UNL     1      87.151  67.438  86.014  0.00  0.00    +0.000 A 
ATOM     17 CL   UNL     1      88.541  64.558  88.414  0.00  0.00    +0.000 Cl
ENDBRANCH  10  11
ENDBRANCH   1  10
TORSDOF 3
ENDMDL
