MODEL 1
REMARK VINA RESULT:      -3.7      0.000      0.000
REMARK  Name = *****
REMARK  5 active torsions:
REMARK  status: ('A' for Active; 'I' for Inactive)
REMARK    1  A    between atoms: C_4  and  C_7
REMARK    2  A    between atoms: C_7  and  C_8
REMARK    3  A    between atoms: C_8  and  C_9
REMARK    4  A    between atoms: C_9  and  C_10
REMARK    5  A    between atoms: C_10  and  C_12
REMARK                            x       y       z     vdW  Elec       q    Type
REMARK                         _______ _______ _______ _____ _____    ______ ____
ROOT
ATOM      1  C   UNL     1      88.643  66.368  87.060  0.00  0.00    +0.000 C 
ENDROOT
BRANCH   1   2
ATOM      2  C   UNL     1      89.856  66.982  86.378  0.00  0.00    +0.000 C 
ATOM      3  O   UNL     1      90.881  66.338  86.160  0.00  0.00    +0.000 OA
BRANCH   2   4
ATOM      4  C   UNL     1      89.794  68.418  85.963  0.00  0.00    +0.000 A 
ATOM      5  C   UNL     1      89.778  68.810  84.618  0.00  0.00    +0.000 A 
ATOM      6  C   UNL     1      89.721  70.166  84.284  0.00  0.00    +0.000 A 
ATOM      7  C   UNL     1      89.679  71.135  85.286  0.00  0.00    +0.000 A 
ATOM      8  C   UNL     1      89.694  70.753  86.625  0.00  0.00    +0.000 A 
ATOM      9  C   UNL     1      89.752  69.399  86.963  0.00  0.00    +0.000 A 
ENDBRANCH   2   4
ENDBRANCH   1   2
BRANCH   1  10
ATOM     10  C   UNL     1      87.335  66.739  86.360  0.00  0.00    +0.000 C 
BRANCH  10  11
ATOM     11  C   UNL     1      86.417  67.531  87.292  0.00  0.00    +0.000 C 
BRANCH  11  15
ATOM     12  C   UNL     1      86.008  71.628  86.013  0.00  0.00    +0.000 A 
ATOM     13  C   UNL     1      86.047  70.604  85.069  0.00  0.00    +0.000 A 
ATOM     14  C   UNL     1      86.175  69.276  85.482  0.00  0.00    +0.000 A 
ATOM     15  C   UNL     1      86.260  68.962  86.844  0.00  0.00    +0.000 A 
ATOM     16  C   UNL     1      86.228  70.000  87.785  0.00  0.00    +0.000 A 
ATOM     17  C   UNL     1      86.100  71.327  87.370  0.00  0.00    +0.000 A 
ENDBRANCH  11  15
ENDBRANCH  10  11
ENDBRANCH   1  10
TORSDOF 5
ENDMDL
