MODEL 1
REMARK VINA RESULT:      -4.6      0.000      0.000
REMARK  Name = *****
REMARK  2 active torsions:
REMARK  status: ('A' for Active; 'I' for Inactive)
REMARK    1  A    between atoms: C_6  and  S_7
REMARK    2  A    between atoms: S_7  and  C_8
REMARK                            x       y       z     vdW  Elec       q    Type
REMARK                         _______ _______ _______ _____ _____    ______ ____
ROOT
ATOM      1  C   UNL     1     104.689 126.199  80.353  0.00  0.00    +0.000 C 
ATOM      2  C   UNL     1     103.928 127.524  80.317  0.00  0.00    +0.000 C 
ATOM      3  C   UNL     1     103.163 127.775  81.617  0.00  0.00    +0.000 C 
ATOM      4  C   UNL     1     102.285 126.599  81.968  0.00  0.00    +0.000 C 
ATOM      5  C   UNL     1     101.028 126.735  82.296  0.00  0.00    +0.000 C 
ATOM      6  C   UNL     1      99.779 126.879  82.622  0.00  0.00    +0.000 C 
ATOM      7  C   UNL     1     102.992 125.267  81.986  0.00  0.00    +0.000 C 
ATOM      8  C   UNL     1     103.760 125.031  80.685  0.00  0.00    +0.000 C 
ENDROOT
BRANCH   6   9
ATOM      9  S   UNL     1      99.342 126.825  84.291  0.00  0.00    +0.000 S 
BRANCH   9  10
ATOM     10  C   UNL     1      99.212 128.576  84.601  0.00  0.00    +0.000 A 
ATOM     11  C   UNL     1      98.843 129.039  85.868  0.00  0.00    +0.000 A 
ATOM     12  C   UNL     1      98.744 130.411  86.114  0.00  0.00    +0.000 A 
ATOM     13  C   UNL     1      99.021 131.324  85.097  0.00  0.00    +0.000 A 
ATOM     14  C   UNL     1      99.397 130.868  83.834  0.00  0.00    +0.000 A 
ATOM     15  C   UNL     1      99.495 129.497  83.587  0.00  0.00    +0.000 A 
ENDBRANCH   9  10
ENDBRANCH   6   9
TORSDOF 2
ENDMDL
