REMARK  Name = *****
REMARK  5 active torsions:
REMARK  status: ('A' for Active; 'I' for Inactive)
REMARK    1  A    between atoms: C_4  and  S_7
REMARK    2  A    between atoms: S_7  and  C_8
REMARK    3  A    between atoms: C_8  and  C_9
REMARK    4  A    between atoms: C_9  and  C_10
REMARK    5  A    between atoms: C_10  and  C_12
REMARK                            x       y       z     vdW  Elec       q    Type
REMARK                         _______ _______ _______ _____ _____    ______ ____
ROOT
ATOM      1  C   UNL     1      -3.996  -1.043  -0.337  0.00  0.00    +0.000 C 
ENDROOT
BRANCH   1   2
ATOM      2  S   UNL     1      -3.192   0.588  -0.170  0.00  0.00    +0.000 S 
BRANCH   2   6
ATOM      3  C   UNL     1       1.291  -0.250   0.447  0.00  0.00    +0.000 A 
ATOM      4  C   UNL     1       0.429  -1.330   0.275  0.00  0.00    +0.000 A 
ATOM      5  C   UNL     1      -0.941  -1.116   0.085  0.00  0.00    +0.000 A 
ATOM      6  C   UNL     1      -1.465   0.180   0.065  0.00  0.00    +0.000 A 
ATOM      7  C   UNL     1      -0.584   1.258   0.239  0.00  0.00    +0.000 A 
ATOM      8  C   UNL     1       0.784   1.046   0.429  0.00  0.00    +0.000 A 
ENDBRANCH   2   6
ENDBRANCH   1   2
BRANCH   1   9
ATOM      9  C   UNL     1      -5.495  -0.849  -0.535  0.00  0.00    +0.000 C 
BRANCH   9  10
ATOM     10  C   UNL     1      -6.207  -2.187  -0.675  0.00  0.00    +0.000 C 
ATOM     11  O   UNL     1      -5.566  -3.239  -0.635  0.00  0.00    +0.000 OA
BRANCH  10  12
ATOM     12  C   UNL     1      -7.657  -2.130  -0.854  0.00  0.00    +0.000 A 
ATOM     13  C   UNL     1      -8.497  -1.032  -0.926  0.00  0.00    +0.000 A 
ATOM     14  C   UNL     1      -9.864  -1.398  -1.106  0.00  0.00    +0.000 A 
ATOM     15  C   UNL     1     -10.027  -2.763  -1.166  0.00  0.00    +0.000 A 
ATOM     16  S   UNL     1      -8.543  -3.593  -1.007  0.00  0.00    +0.000 S 
ENDBRANCH  10  12
ENDBRANCH   9  10
ENDBRANCH   1   9
TORSDOF 5
