MODEL 1
REMARK VINA RESULT:      -3.8      0.000      0.000
REMARK  Name = *****
REMARK  3 active torsions:
REMARK  status: ('A' for Active; 'I' for Inactive)
REMARK    1  A    between atoms: C_8  and  C_9
REMARK    2  A    between atoms: C_9  and  S_11
REMARK    3  A    between atoms: S_11  and  C_12
REMARK                            x       y       z     vdW  Elec       q    Type
REMARK                         _______ _______ _______ _____ _____    ______ ____
ROOT
ATOM      1  C   UNL     1      86.938  71.433  88.792  0.00  0.00    +0.000 C 
ATOM      2  C   UNL     1      86.395  71.375  87.345  0.00  0.00    +0.000 C 
ATOM      3  C   UNL     1      86.943  70.119  86.625  0.00  0.00    +0.000 C 
ATOM      4  C   UNL     1      88.454  70.174  86.726  0.00  0.00    +0.000 C 
ATOM      5  C   UNL     1      88.923  70.218  87.984  0.00  0.00    +0.000 C 
ATOM      6  C   UNL     1      87.854  70.219  89.056  0.00  0.00    +0.000 C 
ATOM      7  C   UNL     1      87.008  68.938  88.869  0.00  0.00    +0.000 C 
ATOM      8  C   UNL     1      86.451  68.872  87.413  0.00  0.00    +0.000 C 
ENDROOT
BRANCH   8   9
ATOM      9  C   UNL     1      86.826  67.571  86.706  0.00  0.00    +0.000 C 
ATOM     10  O   UNL     1      86.738  67.380  85.498  0.00  0.00    +0.000 OA
BRANCH   9  11
ATOM     11  S   UNL     1      87.549  66.345  87.759  0.00  0.00    +0.000 S 
BRANCH  11  12
ATOM     12  C   UNL     1      88.944  65.948  86.766  0.00  0.00    +0.000 A 
ATOM     13  C   UNL     1      89.974  66.787  86.393  0.00  0.00    +0.000 A 
ATOM     14  C   UNL     1      90.949  66.127  85.588  0.00  0.00    +0.000 A 
ATOM     15  C   UNL     1      90.636  64.801  85.386  0.00  0.00    +0.000 A 
ATOM     16  S   UNL     1      89.180  64.360  86.166  0.00  0.00    +0.000 S 
ENDBRANCH  11  12
ENDBRANCH   9  11
ENDBRANCH   8   9
TORSDOF 3
ENDMDL
