MODEL 1
REMARK VINA RESULT:      -4.6      0.000      0.000
REMARK  Name = *****
REMARK  5 active torsions:
REMARK  status: ('A' for Active; 'I' for Inactive)
REMARK    1  A    between atoms: C_1  and  C_2
REMARK    2  A    between atoms: C_3  and  C_17
REMARK    3  A    between atoms: C_5  and  C_8
REMARK    4  A    between atoms: C_8  and  C_16
REMARK    5  A    between atoms: N_9  and  C_10
REMARK                            x       y       z     vdW  Elec       q    Type
REMARK                         _______ _______ _______ _____ _____    ______ ____
ROOT
ATOM      1  C   UNL     1      89.675  69.859  85.306  0.00  0.00    +0.000 C 
ATOM      2  N   UNL     1      89.851  68.638  84.891  0.00  0.00    +0.000 NA
ATOM      3  C   UNL     1      90.445  70.948  84.594  0.00  0.00    +0.000 C 
ENDROOT
BRANCH   1   8
ATOM      4  C   UNL     1      86.220  71.636  89.596  0.00  0.00    +0.000 C 
ATOM      5  C   UNL     1      87.098  71.179  88.463  0.00  0.00    +0.000 A 
ATOM      6  C   UNL     1      86.677  71.281  87.120  0.00  0.00    +0.000 A 
ATOM      7  C   UNL     1      87.531  70.837  86.097  0.00  0.00    +0.000 A 
ATOM      8  C   UNL     1      88.784  70.301  86.406  0.00  0.00    +0.000 A 
ATOM      9  C   UNL     1      89.209  70.210  87.729  0.00  0.00    +0.000 A 
ATOM     10  C   UNL     1      88.366  70.646  88.753  0.00  0.00    +0.000 A 
ATOM     11  C   UNL     1      85.330  71.845  86.762  0.00  0.00    +0.000 C 
ENDBRANCH   1   8
BRANCH   2  12
ATOM     12  C   UNL     1      89.140  67.569  85.451  0.00  0.00    +0.000 A 
ATOM     13  C   UNL     1      87.859  67.231  85.005  0.00  0.00    +0.000 A 
ATOM     14  C   UNL     1      87.178  66.145  85.561  0.00  0.00    +0.000 A 
ATOM     15  C   UNL     1      87.784  65.378  86.555  0.00  0.00    +0.000 A 
ATOM     16  C   UNL     1      89.073  65.691  86.986  0.00  0.00    +0.000 A 
ATOM     17  C   UNL     1      89.748  66.778  86.429  0.00  0.00    +0.000 A 
ENDBRANCH   2  12
TORSDOF 2
ENDMDL
