MODEL 1
REMARK VINA RESULT:      -4.6      0.000      0.000
REMARK  Name = *****
REMARK  4 active torsions:
REMARK  status: ('A' for Active; 'I' for Inactive)
REMARK    1  A    between atoms: C_1  and  C_2
REMARK    2  A    between atoms: C_5  and  N_8
REMARK    3  A    between atoms: N_8  and  C_9
REMARK    4  A    between atoms: C_9  and  C_10
REMARK                            x       y       z     vdW  Elec       q    Type
REMARK                         _______ _______ _______ _____ _____    ______ ____
ROOT
ATOM      1  N   UNL     1      88.753  70.113  86.686  0.00  0.00    +0.000 N 
ATOM      2  O   UNL     1      89.673  70.785  87.255  0.00  0.00    +0.000 OA
ENDROOT
BRANCH   1   7
ATOM      3  C   UNL     1      88.908  64.379  87.092  0.00  0.00    +0.000 C 
ATOM      4  C   UNL     1      88.872  65.877  87.013  0.00  0.00    +0.000 A 
ATOM      5  C   UNL     1      89.915  66.577  86.388  0.00  0.00    +0.000 A 
ATOM      6  C   UNL     1      89.873  67.967  86.288  0.00  0.00    +0.000 A 
ATOM      7  C   UNL     1      88.772  68.663  86.795  0.00  0.00    +0.000 A 
ATOM      8  C   UNL     1      87.726  67.980  87.425  0.00  0.00    +0.000 A 
ATOM      9  C   UNL     1      87.775  66.588  87.522  0.00  0.00    +0.000 A 
ENDBRANCH   1   7
BRANCH   1  10
ATOM     10  C   UNL     1      87.780  70.651  85.983  0.00  0.00    +0.000 C 
BRANCH  10  11
ATOM     11  C   UNL     1      86.552  71.265  86.517  0.00  0.00    +0.000 A 
ATOM     12  C   UNL     1      86.244  71.380  87.875  0.00  0.00    +0.000 A 
ATOM     13  C   UNL     1      85.057  72.000  88.278  0.00  0.00    +0.000 A 
ATOM     14  C   UNL     1      84.179  72.510  87.324  0.00  0.00    +0.000 A 
ATOM     15  C   UNL     1      84.481  72.412  85.968  0.00  0.00    +0.000 A 
ATOM     16  C   UNL     1      85.668  71.794  85.566  0.00  0.00    +0.000 A 
ATOM     17 BR   UNL     1      82.576  73.347  87.872  0.00  0.00    +0.000 Br
ENDBRANCH  10  11
ENDBRANCH   1  10
TORSDOF 3
ENDMDL
