MODEL 1
REMARK VINA RESULT:      -4.3      0.000      0.000
REMARK  Name = *****
REMARK  4 active torsions:
REMARK  status: ('A' for Active; 'I' for Inactive)
REMARK    1  A    between atoms: C_1  and  C_2
REMARK    2  A    between atoms: C_4  and  O_8
REMARK    3  A    between atoms: O_8  and  C_9
REMARK    4  A    between atoms: C_9  and  C_11
REMARK                            x       y       z     vdW  Elec       q    Type
REMARK                         _______ _______ _______ _____ _____    ______ ____
ROOT
ATOM      1  O   UNL     1     102.714 126.945  82.854  0.00  0.00    +0.000 OA
ENDROOT
BRANCH   1   5
ATOM      2  C   UNL     1      99.427 130.465  84.005  0.00  0.00    +0.000 C 
ATOM      3  C   UNL     1      99.764 129.101  83.480  0.00  0.00    +0.000 A 
ATOM      4  C   UNL     1     101.093 128.663  83.448  0.00  0.00    +0.000 A 
ATOM      5  C   UNL     1     101.390 127.395  82.947  0.00  0.00    +0.000 A 
ATOM      6  C   UNL     1     100.394 126.571  82.428  0.00  0.00    +0.000 A 
ATOM      7  C   UNL     1      99.073 127.012  82.442  0.00  0.00    +0.000 A 
ATOM      8  C   UNL     1      98.759 128.271  82.964  0.00  0.00    +0.000 A 
ENDBRANCH   1   5
BRANCH   1   9
ATOM      9  C   UNL     1     103.212 126.760  81.563  0.00  0.00    +0.000 C 
ATOM     10  O   UNL     1     103.188 127.600  80.670  0.00  0.00    +0.000 OA
BRANCH   9  11
ATOM     11  C   UNL     1     103.761 125.416  81.461  0.00  0.00    +0.000 A 
ATOM     12  C   UNL     1     104.189 124.717  80.344  0.00  0.00    +0.000 A 
ATOM     13  C   UNL     1     104.665 123.412  80.664  0.00  0.00    +0.000 A 
ATOM     14  C   UNL     1     104.590 123.154  82.013  0.00  0.00    +0.000 A 
ATOM     15  S   UNL     1     103.948 124.476  82.884  0.00  0.00    +0.000 S 
ENDBRANCH   9  11
ENDBRANCH   1   9
TORSDOF 3
ENDMDL
