MODEL 1
REMARK VINA RESULT:      -4.3      0.000      0.000
REMARK  Name = *****
REMARK  6 active torsions:
REMARK  status: ('A' for Active; 'I' for Inactive)
REMARK    1  A    between atoms: C_1  and  C_2
REMARK    2  A    between atoms: C_4  and  C_10
REMARK    3  A    between atoms: C_6  and  C_9
REMARK    4  A    between atoms: C_7  and  O_8
REMARK    5  A    between atoms: C_10  and  C_11
REMARK    6  A    between atoms: C_11  and  C_12
REMARK                            x       y       z     vdW  Elec       q    Type
REMARK                         _______ _______ _______ _____ _____    ______ ____
ROOT
ATOM      1  C   UNL     1      87.448  65.036  88.177  0.00  0.00    +0.000 C 
ATOM      2  C   UNL     1      88.420  65.790  87.315  0.00  0.00    +0.000 A 
ATOM      3  C   UNL     1      88.273  67.172  87.133  0.00  0.00    +0.000 A 
ATOM      4  C   UNL     1      89.170  67.889  86.331  0.00  0.00    +0.000 A 
ATOM      5  C   UNL     1      90.229  67.209  85.715  0.00  0.00    +0.000 A 
ATOM      6  C   UNL     1      90.399  65.826  85.879  0.00  0.00    +0.000 A 
ATOM      7  C   UNL     1      89.483  65.130  86.683  0.00  0.00    +0.000 A 
ATOM      8  C   UNL     1      91.548  65.144  85.193  0.00  0.00    +0.000 C 
ENDROOT
BRANCH   7   9
ATOM      9  O   UNL     1      89.585  63.780  86.890  0.00  0.00    +0.000 OA
ATOM     10  H   UNL     1      90.409  63.405  87.134  0.00  0.00    +0.000 HD
ENDBRANCH   7   9
BRANCH   4  11
ATOM     11  C   UNL     1      89.014  69.381  86.161  0.00  0.00    +0.000 C 
BRANCH  11  12
ATOM     12  C   UNL     1      89.384  70.137  87.440  0.00  0.00    +0.000 C 
BRANCH  12  13
ATOM     13  C   UNL     1      88.172  70.715  88.110  0.00  0.00    +0.000 A 
ATOM     14  C   UNL     1      86.939  70.990  87.551  0.00  0.00    +0.000 A 
ATOM     15  C   UNL     1      86.025  71.535  88.498  0.00  0.00    +0.000 A 
ATOM     16  C   UNL     1      86.591  71.660  89.747  0.00  0.00    +0.000 A 
ATOM     17  S   UNL     1      88.215  71.125  89.773  0.00  0.00    +0.000 S 
ENDBRANCH  12  13
ENDBRANCH  11  12
ENDBRANCH   4  11
TORSDOF 4
ENDMDL
