MODEL 1
REMARK VINA RESULT:      -4.8      0.000      0.000
REMARK  Name = *****
REMARK  4 active torsions:
REMARK  status: ('A' for Active; 'I' for Inactive)
REMARK    1  A    between atoms: C_1  and  O_2
REMARK    2  A    between atoms: O_2  and  C_3
REMARK    3  A    between atoms: C_7  and  C_9
REMARK    4  A    between atoms: C_10  and  C_11
REMARK                            x       y       z     vdW  Elec       q    Type
REMARK                         _______ _______ _______ _____ _____    ______ ____
ROOT
ATOM      1  C   UNL     1      98.814 127.674  82.884  0.00  0.00    +0.000 A 
ATOM      2  C   UNL     1      99.303 128.810  83.529  0.00  0.00    +0.000 A 
ATOM      3  C   UNL     1     100.680 128.994  83.670  0.00  0.00    +0.000 A 
ATOM      4  C   UNL     1     101.573 128.041  83.173  0.00  0.00    +0.000 A 
ATOM      5  C   UNL     1     101.098 126.886  82.540  0.00  0.00    +0.000 A 
ATOM      6  C   UNL     1      99.714 126.723  82.391  0.00  0.00    +0.000 A 
ENDROOT
BRANCH   1   8
ATOM      7  C   UNL     1      96.754 126.900  83.788  0.00  0.00    +0.000 C 
ATOM      8  O   UNL     1      97.495 127.376  82.672  0.00  0.00    +0.000 OA
ENDBRANCH   1   8
BRANCH   5   9
ATOM      9  C   UNL     1     101.999 125.873  81.970  0.00  0.00    +0.000 C 
ATOM     10  C   UNL     1     103.035 125.331  82.630  0.00  0.00    +0.000 C 
BRANCH  10  11
ATOM     11  C   UNL     1     103.924 124.307  82.061  0.00  0.00    +0.000 A 
ATOM     12  C   UNL     1     104.321 124.322  80.717  0.00  0.00    +0.000 A 
ATOM     13  C   UNL     1     105.192 123.349  80.221  0.00  0.00    +0.000 A 
ATOM     14  C   UNL     1     105.686 122.358  81.066  0.00  0.00    +0.000 A 
ATOM     15  C   UNL     1     105.313 122.342  82.408  0.00  0.00    +0.000 A 
ATOM     16  C   UNL     1     104.441 123.315  82.904  0.00  0.00    +0.000 A 
ENDBRANCH  10  11
ENDBRANCH   5   9
TORSDOF 3
ENDMDL
