MODEL 1
REMARK VINA RESULT:      -4.6      0.000      0.000
REMARK  Name = *****
REMARK  3 active torsions:
REMARK  status: ('A' for Active; 'I' for Inactive)
REMARK    1  A    between atoms: C_1  and  C_2
REMARK    2  A    between atoms: C_5  and  C_7
REMARK    3  A    between atoms: C_8  and  C_9
REMARK                            x       y       z     vdW  Elec       q    Type
REMARK                         _______ _______ _______ _____ _____    ______ ____
ROOT
ATOM      1  C   UNL     1     102.973 125.527  81.463  0.00  0.00    +0.000 C 
ATOM      2  C   UNL     1     102.123 126.222  81.951  0.00  0.00    +0.000 C 
ENDROOT
BRANCH   1   7
ATOM      3  C   UNL     1     106.351 124.645  78.212  0.00  0.00    +0.000 C 
ATOM      4  C   UNL     1     105.526 124.304  79.387  0.00  0.00    +0.000 A 
ATOM      5  C   UNL     1     105.459 123.201  80.214  0.00  0.00    +0.000 A 
ATOM      6  C   UNL     1     104.453 123.481  81.172  0.00  0.00    +0.000 A 
ATOM      7  C   UNL     1     103.978 124.732  80.865  0.00  0.00    +0.000 A 
ATOM      8  O   UNL     1     104.620 125.244  79.783  0.00  0.00    +0.000 OA
ENDBRANCH   1   7
BRANCH   2   9
ATOM      9  C   UNL     1     101.117 127.068  82.514  0.00  0.00    +0.000 A 
ATOM     10  C   UNL     1     101.487 128.211  83.227  0.00  0.00    +0.000 A 
ATOM     11  C   UNL     1     100.508 129.038  83.781  0.00  0.00    +0.000 A 
ATOM     12  C   UNL     1      99.159 128.723  83.623  0.00  0.00    +0.000 A 
ATOM     13  C   UNL     1      98.787 127.583  82.911  0.00  0.00    +0.000 A 
ATOM     14  C   UNL     1      99.765 126.755  82.356  0.00  0.00    +0.000 A 
ENDBRANCH   2   9
TORSDOF 2
ENDMDL
