MODEL 1
REMARK VINA RESULT:      -4.2      0.000      0.000
REMARK  Name = *****
REMARK  5 active torsions:
REMARK  status: ('A' for Active; 'I' for Inactive)
REMARK    1  A    between atoms: C_2  and  S_3
REMARK    2  A    between atoms: S_3  and  N_4
REMARK    3  A    between atoms: N_4  and  C_5
REMARK    4  A    between atoms: N_4  and  C_12
REMARK    5  A    between atoms: C_5  and  C_6
REMARK                            x       y       z     vdW  Elec       q    Type
REMARK                         _______ _______ _______ _____ _____    ______ ____
ROOT
ATOM      1  N   UNL     1     102.546 126.994  83.382  0.00  0.00    +0.000 N 
ENDROOT
BRANCH   1   2
ATOM      2  C   UNL     1     101.226 127.485  83.215  0.00  0.00    +0.000 A 
ATOM      3  C   UNL     1     100.237 126.698  82.588  0.00  0.00    +0.000 A 
ATOM      4  C   UNL     1      98.922 127.146  82.419  0.00  0.00    +0.000 A 
ATOM      5  C   UNL     1      98.551 128.401  82.882  0.00  0.00    +0.000 A 
ATOM      6  C   UNL     1      99.495 129.200  83.516  0.00  0.00    +0.000 A 
ATOM      7  C   UNL     1     100.809 128.746  83.681  0.00  0.00    +0.000 A 
ENDBRANCH   1   2
BRANCH   1   8
ATOM      8  S   UNL     1     103.725 128.035  84.001  0.00  0.00    +0.000 S 
BRANCH   8  10
ATOM      9  C   UNL     1     104.764 129.051  81.500  0.00  0.00    +0.000 C 
ATOM     10  C   UNL     1     104.332 128.631  82.538  0.00  0.00    +0.000 C 
ENDBRANCH   8  10
ENDBRANCH   1   8
BRANCH   1  11
ATOM     11  C   UNL     1     102.769 125.560  83.656  0.00  0.00    +0.000 C 
BRANCH  11  12
ATOM     12  C   UNL     1     103.488 124.823  82.537  0.00  0.00    +0.000 A 
ATOM     13  C   UNL     1     103.514 125.317  81.225  0.00  0.00    +0.000 A 
ATOM     14  C   UNL     1     104.216 124.643  80.224  0.00  0.00    +0.000 A 
ATOM     15  C   UNL     1     104.913 123.476  80.525  0.00  0.00    +0.000 A 
ATOM     16  C   UNL     1     104.913 122.983  81.827  0.00  0.00    +0.000 A 
ATOM     17  C   UNL     1     104.210 123.654  82.829  0.00  0.00    +0.000 A 
ENDBRANCH  11  12
ENDBRANCH   1  11
TORSDOF 5
ENDMDL
