MODEL 1
REMARK VINA RESULT:      -4.4      0.000      0.000
REMARK  Name = *****
REMARK  4 active torsions:
REMARK  status: ('A' for Active; 'I' for Inactive)
REMARK    1  A    between atoms: C_1  and  C_2
REMARK    2  A    between atoms: C_7  and  C_8
REMARK    3  A    between atoms: C_8  and  O_10
REMARK    4  A    between atoms: O_10  and  C_11
REMARK                            x       y       z     vdW  Elec       q    Type
REMARK                         _______ _______ _______ _____ _____    ______ ____
ROOT
ATOM      1  C   UNL     1     101.413 126.484  84.269  0.00  0.00    +0.000 C 
ATOM      2  O   UNL     1     100.925 125.555  84.893  0.00  0.00    +0.000 OA
ENDROOT
BRANCH   1   9
ATOM      3  C   UNL     1      98.980 126.765  82.431  0.00  0.00    +0.000 C 
ATOM      4  C   UNL     1      99.582 127.910  83.195  0.00  0.00    +0.000 A 
ATOM      5  C   UNL     1      98.988 129.180  83.077  0.00  0.00    +0.000 A 
ATOM      6  C   UNL     1      99.517 130.287  83.742  0.00  0.00    +0.000 A 
ATOM      7  C   UNL     1     100.649 130.147  84.540  0.00  0.00    +0.000 A 
ATOM      8  C   UNL     1     101.243 128.894  84.683  0.00  0.00    +0.000 A 
ATOM      9  C   UNL     1     100.707 127.770  84.032  0.00  0.00    +0.000 A 
ENDBRANCH   1   9
BRANCH   1  10
ATOM     10  O   UNL     1     102.601 126.479  83.623  0.00  0.00    +0.000 OA
BRANCH  10  11
ATOM     11  C   UNL     1     102.598 125.880  82.318  0.00  0.00    +0.000 C 
ATOM     12  C   UNL     1     103.703 124.814  82.234  0.00  0.00    +0.000 C 
ATOM     13  C   UNL     1     104.034 124.466  80.786  0.00  0.00    +0.000 C 
ATOM     14  C   UNL     1     104.500 125.700  80.011  0.00  0.00    +0.000 C 
ATOM     15  C   UNL     1     103.677 126.921  80.303  0.00  0.00    +0.000 C 
ATOM     16  C   UNL     1     102.814 126.994  81.328  0.00  0.00    +0.000 C 
ENDBRANCH  10  11
ENDBRANCH   1  10
TORSDOF 3
ENDMDL
