MODEL 1
REMARK VINA RESULT:      -4.1      0.000      0.000
REMARK  Name = *****
REMARK  3 active torsions:
REMARK  status: ('A' for Active; 'I' for Inactive)
REMARK    1  A    between atoms: C_2  and  C_7
REMARK    2  A    between atoms: C_7  and  C_8
REMARK    3  A    between atoms: C_8  and  C_9
REMARK                            x       y       z     vdW  Elec       q    Type
REMARK                         _______ _______ _______ _____ _____    ______ ____
ROOT
ATOM      1  C   UNL     1     103.171 126.848  81.513  0.00  0.00    +0.000 C 
ENDROOT
BRANCH   1   3
ATOM      2  C   UNL     1     104.060 124.657  80.532  0.00  0.00    +0.000 C 
ATOM      3  C   UNL     1     104.116 125.655  81.690  0.00  0.00    +0.000 C 
ATOM      4  S   UNL     1     103.647 124.702  83.161  0.00  0.00    +0.000 S 
ATOM      5  S   UNL     1     104.717 123.037  82.648  0.00  0.00    +0.000 S 
ATOM      6  C   UNL     1     104.719 123.352  80.915  0.00  0.00    +0.000 C 
ATOM      7  O   UNL     1     105.170 122.554  80.104  0.00  0.00    +0.000 OA
ENDBRANCH   1   3
BRANCH   1   8
ATOM      8  C   UNL     1     102.740 127.452  82.854  0.00  0.00    +0.000 C 
BRANCH   8   9
ATOM      9  C   UNL     1     101.248 127.660  82.915  0.00  0.00    +0.000 A 
ATOM     10  C   UNL     1     100.713 128.802  83.526  0.00  0.00    +0.000 A 
ATOM     11  C   UNL     1      99.330 128.983  83.598  0.00  0.00    +0.000 A 
ATOM     12  C   UNL     1      98.472 128.023  83.066  0.00  0.00    +0.000 A 
ATOM     13  C   UNL     1      98.993 126.880  82.463  0.00  0.00    +0.000 A 
ATOM     14  C   UNL     1     100.375 126.698  82.390  0.00  0.00    +0.000 A 
ENDBRANCH   8   9
ENDBRANCH   1   8
TORSDOF 3
ENDMDL
