MODEL 1
REMARK VINA RESULT:      -4.1      0.000      0.000
REMARK  Name = *****
REMARK  4 active torsions:
REMARK  status: ('A' for Active; 'I' for Inactive)
REMARK    1  A    between atoms: C_1  and  C_2
REMARK    2  A    between atoms: C_2  and  C_8
REMARK    3  A    between atoms: C_8  and  C_9
REMARK    4  A    between atoms: C_9  and  C_10
REMARK                            x       y       z     vdW  Elec       q    Type
REMARK                         _______ _______ _______ _____ _____    ______ ____
ROOT
ATOM      1  C   UNL     1     104.256 128.289  80.972  0.00  0.00    +0.000 C 
ATOM      2  C   UNL     1     104.278 126.751  80.926  0.00  0.00    +0.000 C 
ATOM      3  C   UNL     1     105.169 126.220  82.063  0.00  0.00    +0.000 C 
ATOM      4  S   UNL     1     106.097 124.825  81.356  0.00  0.00    +0.000 S 
ATOM      5  C   UNL     1     105.790 125.303  79.709  0.00  0.00    +0.000 C 
ATOM      6  S   UNL     1     106.446 124.634  78.347  0.00  0.00    +0.000 S 
ATOM      7  N   UNL     1     104.895 126.336  79.675  0.00  0.00    +0.000 N 
ATOM      8  H   UNL     1     104.675 126.785  78.829  0.00  0.00    +0.000 HD
ENDROOT
BRANCH   2   9
ATOM      9  C   UNL     1     102.813 126.250  81.014  0.00  0.00    +0.000 C 
BRANCH   9  10
ATOM     10  C   UNL     1     102.259 126.016  82.426  0.00  0.00    +0.000 C 
BRANCH  10  11
ATOM     11  C   UNL     1     101.144 126.985  82.739  0.00  0.00    +0.000 A 
ATOM     12  C   UNL     1      99.824 126.692  82.367  0.00  0.00    +0.000 A 
ATOM     13  C   UNL     1      98.796 127.596  82.639  0.00  0.00    +0.000 A 
ATOM     14  C   UNL     1      99.077 128.801  83.281  0.00  0.00    +0.000 A 
ATOM     15  C   UNL     1     100.386 129.103  83.651  0.00  0.00    +0.000 A 
ATOM     16  C   UNL     1     101.415 128.200  83.380  0.00  0.00    +0.000 A 
ENDBRANCH  10  11
ENDBRANCH   9  10
ENDBRANCH   2   9
TORSDOF 3
ENDMDL
