REMARK  Name = *****
REMARK  5 active torsions:
REMARK  status: ('A' for Active; 'I' for Inactive)
REMARK    1  A    between atoms: C_1  and  C_2
REMARK    2  A    between atoms: C_5  and  C_8
REMARK    3  A    between atoms: C_8  and  C_9
REMARK    4  A    between atoms: C_8  and  S_10
REMARK    5  A    between atoms: S_10  and  C_12
REMARK                            x       y       z     vdW  Elec       q    Type
REMARK                         _______ _______ _______ _____ _____    ______ ____
ROOT
ATOM      1  C   UNL     1      -3.337   0.287   0.041  0.00  0.00    +0.000 C 
ATOM      2  C   UNL     1      -3.921  -0.410   1.273  0.00  0.00    +0.000 C 
ENDROOT
BRANCH   1   7
ATOM      3  C   UNL     1       2.503   0.054  -0.160  0.00  0.00    +0.000 C 
ATOM      4  C   UNL     1       1.006   0.084  -0.089  0.00  0.00    +0.000 A 
ATOM      5  C   UNL     1       0.238  -0.181  -1.226  0.00  0.00    +0.000 A 
ATOM      6  C   UNL     1      -1.157  -0.115  -1.172  0.00  0.00    +0.000 A 
ATOM      7  C   UNL     1      -1.817   0.221   0.021  0.00  0.00    +0.000 A 
ATOM      8  C   UNL     1      -1.038   0.515   1.151  0.00  0.00    +0.000 A 
ATOM      9  C   UNL     1       0.357   0.448   1.095  0.00  0.00    +0.000 A 
ENDBRANCH   1   7
BRANCH   1  10
ATOM     10  S   UNL     1      -3.896   2.047  -0.066  0.00  0.00    +0.000 S 
ATOM     11  O   UNL     1      -3.421   2.590  -1.385  0.00  0.00    +0.000 OA
BRANCH  10  12
ATOM     12  C   UNL     1      -5.663   1.750  -0.306  0.00  0.00    +0.000 A 
ATOM     13  C   UNL     1      -6.535   1.866   0.782  0.00  0.00    +0.000 A 
ATOM     14  C   UNL     1      -7.902   1.639   0.611  0.00  0.00    +0.000 A 
ATOM     15  C   UNL     1      -8.402   1.304  -0.647  0.00  0.00    +0.000 A 
ATOM     16  C   UNL     1      -7.539   1.203  -1.737  0.00  0.00    +0.000 A 
ATOM     17  C   UNL     1      -6.173   1.429  -1.569  0.00  0.00    +0.000 A 
ENDBRANCH  10  12
ENDBRANCH   1  10
TORSDOF 3
