REMARK  Name = *****
REMARK  4 active torsions:
REMARK  status: ('A' for Active; 'I' for Inactive)
REMARK    1  A    between atoms: C_1  and  O_2
REMARK    2  A    between atoms: O_2  and  C_3
REMARK    3  A    between atoms: C_6  and  C_9
REMARK    4  A    between atoms: C_10  and  C_11
REMARK                            x       y       z     vdW  Elec       q    Type
REMARK                         _______ _______ _______ _____ _____    ______ ____
ROOT
ATOM      1  C   UNL     1       5.151  -4.701  -1.558  0.00  0.00    +0.000 C 
ATOM      2  C   UNL     1       4.999  -5.343  -2.730  0.00  0.00    +0.000 C 
ATOM      3 CL   UNL     1       3.942  -4.798  -3.987  0.00  0.00    +0.000 Cl
ENDROOT
BRANCH   1   7
ATOM      4  C   UNL     1       3.162  -1.140  -0.258  0.00  0.00    +0.000 A 
ATOM      5  C   UNL     1       2.419  -2.283  -0.551  0.00  0.00    +0.000 A 
ATOM      6  C   UNL     1       3.062  -3.450  -0.983  0.00  0.00    +0.000 A 
ATOM      7  C   UNL     1       4.453  -3.482  -1.135  0.00  0.00    +0.000 A 
ATOM      8  C   UNL     1       5.195  -2.339  -0.829  0.00  0.00    +0.000 A 
ATOM      9  C   UNL     1       4.551  -1.176  -0.397  0.00  0.00    +0.000 A 
BRANCH   4  11
ATOM     10  C   UNL     1       1.249   0.156   0.297  0.00  0.00    +0.000 C 
ATOM     11  O   UNL     1       2.662   0.058   0.172  0.00  0.00    +0.000 OA
ENDBRANCH   4  11
ENDBRANCH   1   7
BRANCH   2  12
ATOM     12  C   UNL     1       5.780  -6.556  -3.023  0.00  0.00    +0.000 A 
ATOM     13  C   UNL     1       5.625  -7.710  -2.241  0.00  0.00    +0.000 A 
ATOM     14  C   UNL     1       6.373  -8.858  -2.516  0.00  0.00    +0.000 A 
ATOM     15  C   UNL     1       7.281  -8.863  -3.573  0.00  0.00    +0.000 A 
ATOM     16  C   UNL     1       7.443  -7.722  -4.357  0.00  0.00    +0.000 A 
ATOM     17  C   UNL     1       6.696  -6.574  -4.085  0.00  0.00    +0.000 A 
ENDBRANCH   2  12
TORSDOF 3
