MODEL 1
REMARK VINA RESULT:      -4.1      0.000      0.000
REMARK  Name = *****
REMARK  3 active torsions:
REMARK  status: ('A' for Active; 'I' for Inactive)
REMARK    1  A    between atoms: C_6  and  C_8
REMARK    2  A    between atoms: C_8  and  S_11
REMARK    3  A    between atoms: S_11  and  C_12
REMARK                            x       y       z     vdW  Elec       q    Type
REMARK                         _______ _______ _______ _____ _____    ______ ____
ROOT
ATOM      1  C   UNL     1      88.187  70.203  86.641  0.00  0.00    +0.000 C 
ATOM      2  C   UNL     1      89.413  69.777  87.437  0.00  0.00    +0.000 C 
ATOM      3  C   UNL     1      89.588  70.623  86.211  0.00  0.00    +0.000 C 
ENDROOT
BRANCH   1   9
ATOM      4  C   UNL     1      84.881  72.249  87.097  0.00  0.00    +0.000 C 
ATOM      5  C   UNL     1      84.573  71.972  88.563  0.00  0.00    +0.000 C 
ATOM      6  C   UNL     1      85.844  71.903  89.392  0.00  0.00    +0.000 C 
ATOM      7  C   UNL     1      86.798  70.892  88.785  0.00  0.00    +0.000 C 
ATOM      8  O   UNL     1      87.236  69.980  89.483  0.00  0.00    +0.000 OA
ATOM      9  C   UNL     1      87.178  71.153  87.323  0.00  0.00    +0.000 C 
ATOM     10  C   UNL     1      85.855  71.217  86.525  0.00  0.00    +0.000 C 
ENDBRANCH   1   9
BRANCH   1  11
ATOM     11  S   UNL     1      87.437  68.926  85.624  0.00  0.00    +0.000 S 
BRANCH  11  12
ATOM     12  C   UNL     1      87.606  67.514  86.703  0.00  0.00    +0.000 A 
ATOM     13  C   UNL     1      86.714  67.280  87.753  0.00  0.00    +0.000 A 
ATOM     14  C   UNL     1      86.873  66.165  88.579  0.00  0.00    +0.000 A 
ATOM     15  C   UNL     1      87.919  65.272  88.353  0.00  0.00    +0.000 A 
ATOM     16  C   UNL     1      88.804  65.490  87.298  0.00  0.00    +0.000 A 
ATOM     17  C   UNL     1      88.646  66.606  86.473  0.00  0.00    +0.000 A 
ENDBRANCH  11  12
ENDBRANCH   1  11
TORSDOF 3
ENDMDL
