MODEL 1
REMARK VINA RESULT:      -5.0      0.000      0.000
REMARK  Name = *****
REMARK  5 active torsions:
REMARK  status: ('A' for Active; 'I' for Inactive)
REMARK    1  A    between atoms: C_1  and  C_2
REMARK    2  A    between atoms: C_3  and  C_18
REMARK    3  A    between atoms: C_4  and  O_8
REMARK    4  A    between atoms: O_8  and  C_9
REMARK    5  A    between atoms: C_9  and  C_11
REMARK                            x       y       z     vdW  Elec       q    Type
REMARK                         _______ _______ _______ _____ _____    ______ ____
ROOT
ATOM      1  O   UNL     1     102.566 126.883  83.132  0.00  0.00    +0.000 OA
ENDROOT
BRANCH   1   5
ATOM      2  C   UNL     1      99.401 130.617  83.984  0.00  0.00    +0.000 C 
ATOM      3  C   UNL     1      99.732 129.234  83.489  0.00  0.00    +0.000 A 
ATOM      4  C   UNL     1     101.032 128.697  83.608  0.00  0.00    +0.000 A 
ATOM      5  C   UNL     1     101.263 127.400  83.116  0.00  0.00    +0.000 A 
ATOM      6  C   UNL     1     100.250 126.645  82.521  0.00  0.00    +0.000 A 
ATOM      7  C   UNL     1      98.967 127.172  82.435  0.00  0.00    +0.000 A 
ATOM      8  C   UNL     1      98.710 128.456  82.918  0.00  0.00    +0.000 A 
ATOM      9  C   UNL     1     102.156 129.507  84.193  0.00  0.00    +0.000 C 
ENDBRANCH   1   5
BRANCH   1  10
ATOM     10  C   UNL     1     103.146 126.748  81.885  0.00  0.00    +0.000 C 
ATOM     11  O   UNL     1     103.217 127.590  81.002  0.00  0.00    +0.000 OA
BRANCH  10  12
ATOM     12  C   UNL     1     103.706 125.374  81.740  0.00  0.00    +0.000 A 
ATOM     13  C   UNL     1     104.121 124.849  80.507  0.00  0.00    +0.000 A 
ATOM     14  C   UNL     1     104.643 123.553  80.434  0.00  0.00    +0.000 A 
ATOM     15  C   UNL     1     104.751 122.780  81.589  0.00  0.00    +0.000 A 
ATOM     16  C   UNL     1     104.342 123.290  82.819  0.00  0.00    +0.000 A 
ATOM     17  C   UNL     1     103.822 124.586  82.896  0.00  0.00    +0.000 A 
ATOM     18 CL   UNL     1     105.391 121.186  81.494  0.00  0.00    +0.000 Cl
ENDBRANCH  10  12
ENDBRANCH   1  10
TORSDOF 3
ENDMDL
