MODEL 1
REMARK VINA RESULT:      -4.1      0.000      0.000
REMARK  Name = *****
REMARK  3 active torsions:
REMARK  status: ('A' for Active; 'I' for Inactive)
REMARK    1  A    between atoms: C_4  and  P_7
REMARK    2  A    between atoms: P_7  and  P_8
REMARK    3  A    between atoms: P_8  and  C_9
REMARK                            x       y       z     vdW  Elec       q    Type
REMARK                         _______ _______ _______ _____ _____    ______ ____
ROOT
ATOM      1  P   UNL     1     103.169 125.527  84.118  0.00  0.00    +0.000 P 
ENDROOT
BRANCH   1   5
ATOM      2  C   UNL     1     104.819 123.221  80.543  0.00  0.00    +0.000 A 
ATOM      3  C   UNL     1     104.867 122.636  81.807  0.00  0.00    +0.000 A 
ATOM      4  C   UNL     1     104.356 123.317  82.916  0.00  0.00    +0.000 A 
ATOM      5  C   UNL     1     103.781 124.581  82.753  0.00  0.00    +0.000 A 
ATOM      6  C   UNL     1     103.756 125.179  81.489  0.00  0.00    +0.000 A 
ATOM      7  C   UNL     1     104.268 124.493  80.383  0.00  0.00    +0.000 A 
ENDBRANCH   1   5
BRANCH   1   8
ATOM      8  P   UNL     1     103.005 127.322  83.315  0.00  0.00    +0.000 P 
BRANCH   8   9
ATOM      9  C   UNL     1     101.278 127.683  83.161  0.00  0.00    +0.000 A 
ATOM     10  C   UNL     1     100.517 126.675  82.547  0.00  0.00    +0.000 A 
ATOM     11  C   UNL     1      99.139 126.832  82.363  0.00  0.00    +0.000 A 
ATOM     12  C   UNL     1      98.509 127.996  82.790  0.00  0.00    +0.000 A 
ATOM     13  C   UNL     1      99.254 129.002  83.400  0.00  0.00    +0.000 A 
ATOM     14  C   UNL     1     100.634 128.847  83.585  0.00  0.00    +0.000 A 
ENDBRANCH   8   9
ENDBRANCH   1   8
TORSDOF 3
ENDMDL
