MODEL 1
REMARK VINA RESULT:      -4.8      0.000      0.000
REMARK  Name = *****
REMARK  2 active torsions:
REMARK  status: ('A' for Active; 'I' for Inactive)
REMARK    1  A    between atoms: C_2  and  C_15
REMARK    2  A    between atoms: N_3  and  C_4
REMARK                            x       y       z     vdW  Elec       q    Type
REMARK                         _______ _______ _______ _____ _____    ______ ____
ROOT
ATOM      1  C   UNL     1     103.728 124.902  81.576  0.00  0.00    +0.000 A 
ATOM      2  C   UNL     1     104.481 124.523  80.448  0.00  0.00    +0.000 A 
ATOM      3  C   UNL     1     105.351 123.435  80.479  0.00  0.00    +0.000 A 
ATOM      4  C   UNL     1     105.492 122.695  81.641  0.00  0.00    +0.000 A 
ATOM      5  C   UNL     1     104.764 123.041  82.767  0.00  0.00    +0.000 A 
ATOM      6  C   UNL     1     103.893 124.129  82.738  0.00  0.00    +0.000 A 
ATOM      7  F   UNL     1     103.210 124.416  83.858  0.00  0.00    +0.000 F 
ATOM      8  F   UNL     1     104.896 122.324  83.892  0.00  0.00    +0.000 F 
ATOM      9  F   UNL     1     106.328 121.648  81.674  0.00  0.00    +0.000 F 
ATOM     10  F   UNL     1     106.050 123.105  79.385  0.00  0.00    +0.000 F 
ATOM     11  F   UNL     1     104.364 125.218  79.305  0.00  0.00    +0.000 F 
ENDROOT
BRANCH   1  14
ATOM     12  C   UNL     1     103.424 127.379  81.386  0.00  0.00    +0.000 C 
ATOM     13  C   UNL     1     102.644 126.922  82.588  0.00  0.00    +0.000 C 
ATOM     14  N   UNL     1     102.873 126.028  81.434  0.00  0.00    +0.000 N 
BRANCH  13  15
ATOM     15  C   UNL     1     101.246 127.440  82.808  0.00  0.00    +0.000 A 
ATOM     16  C   UNL     1     100.113 126.731  82.369  0.00  0.00    +0.000 A 
ATOM     17  C   UNL     1      98.820 127.212  82.592  0.00  0.00    +0.000 A 
ATOM     18  C   UNL     1      98.632 128.416  83.265  0.00  0.00    +0.000 A 
ATOM     19  C   UNL     1      99.735 129.136  83.714  0.00  0.00    +0.000 A 
ATOM     20  C   UNL     1     101.026 128.650  83.488  0.00  0.00    +0.000 A 
ENDBRANCH  13  15
ENDBRANCH   1  14
TORSDOF 2
ENDMDL
