REMARK  Name = *****
REMARK  6 active torsions:
REMARK  status: ('A' for Active; 'I' for Inactive)
REMARK    1  A    between atoms: C_1  and  C_2
REMARK    2  A    between atoms: C_5  and  C_8
REMARK    3  A    between atoms: C_8  and  C_9
REMARK    4  A    between atoms: C_8  and  C_17
REMARK    5  A    between atoms: C_9  and  C_10
REMARK    6  A    between atoms: C_10  and  C_11
REMARK                            x       y       z     vdW  Elec       q    Type
REMARK                         _______ _______ _______ _____ _____    ______ ____
ROOT
ATOM      1  C   UNL     1      -3.325  -0.087   0.034  0.00  0.00    +0.000 C 
ENDROOT
BRANCH   1   6
ATOM      2  C   UNL     1      -5.376  -2.862   4.752  0.00  0.00    +0.000 C 
ATOM      3  C   UNL     1      -4.841  -2.158   3.541  0.00  0.00    +0.000 A 
ATOM      4  C   UNL     1      -5.078  -2.658   2.257  0.00  0.00    +0.000 A 
ATOM      5  C   UNL     1      -4.592  -1.985   1.132  0.00  0.00    +0.000 A 
ATOM      6  C   UNL     1      -3.862  -0.795   1.269  0.00  0.00    +0.000 A 
ATOM      7  C   UNL     1      -3.641  -0.290   2.560  0.00  0.00    +0.000 A 
ATOM      8  C   UNL     1      -4.127  -0.964   3.682  0.00  0.00    +0.000 A 
ENDBRANCH   1   6
BRANCH   1   9
ATOM      9  C   UNL     1      -3.921   1.260  -0.121  0.00  0.00    +0.000 C 
ATOM     10  N   UNL     1      -4.374   2.320  -0.259  0.00  0.00    +0.000 NA
ENDBRANCH   1   9
BRANCH   1  11
ATOM     11  C   UNL     1      -1.786   0.017   0.029  0.00  0.00    +0.000 C 
BRANCH  11  12
ATOM     12  C   UNL     1      -1.102  -1.355  -0.008  0.00  0.00    +0.000 C 
BRANCH  12  13
ATOM     13  C   UNL     1       0.398  -1.222  -0.081  0.00  0.00    +0.000 A 
ATOM     14  C   UNL     1       1.151  -1.053   1.089  0.00  0.00    +0.000 A 
ATOM     15  C   UNL     1       2.538  -0.911   1.023  0.00  0.00    +0.000 A 
ATOM     16  C   UNL     1       3.184  -0.933  -0.211  0.00  0.00    +0.000 A 
ATOM     17  C   UNL     1       2.444  -1.095  -1.381  0.00  0.00    +0.000 A 
ATOM     18  C   UNL     1       1.057  -1.236  -1.318  0.00  0.00    +0.000 A 
ENDBRANCH  12  13
ENDBRANCH  11  12
ENDBRANCH   1  11
TORSDOF 5
