MODEL 1
REMARK VINA RESULT:      -4.7      0.000      0.000
REMARK  Name = *****
REMARK  3 active torsions:
REMARK  status: ('A' for Active; 'I' for Inactive)
REMARK    1  A    between atoms: C_1  and  C_2
REMARK    2  A    between atoms: C_4  and  C_8
REMARK    3  A    between atoms: N_9  and  C_10
REMARK                            x       y       z     vdW  Elec       q    Type
REMARK                         _______ _______ _______ _____ _____    ______ ____
ROOT
ATOM      1  C   UNL     1     102.866 126.421  81.422  0.00  0.00    +0.000 C 
ATOM      2  N   UNL     1     101.815 125.965  82.029  0.00  0.00    +0.000 NA
ENDROOT
BRANCH   1   6
ATOM      3  C   UNL     1     104.894 121.862  80.901  0.00  0.00    +0.000 C 
ATOM      4  C   UNL     1     104.880 123.329  80.584  0.00  0.00    +0.000 A 
ATOM      5  C   UNL     1     103.909 124.165  81.150  0.00  0.00    +0.000 A 
ATOM      6  C   UNL     1     103.878 125.526  80.828  0.00  0.00    +0.000 A 
ATOM      7  C   UNL     1     104.808 126.061  79.934  0.00  0.00    +0.000 A 
ATOM      8  C   UNL     1     105.767 125.229  79.356  0.00  0.00    +0.000 A 
ATOM      9  C   UNL     1     105.799 123.870  79.676  0.00  0.00    +0.000 A 
ENDBRANCH   1   6
BRANCH   2  10
ATOM     10  C   UNL     1     100.941 126.932  82.543  0.00  0.00    +0.000 A 
ATOM     11  C   UNL     1     101.439 128.054  83.214  0.00  0.00    +0.000 A 
ATOM     12  C   UNL     1     100.567 129.021  83.715  0.00  0.00    +0.000 A 
ATOM     13  C   UNL     1      99.191 128.877  83.540  0.00  0.00    +0.000 A 
ATOM     14  C   UNL     1      98.688 127.770  82.857  0.00  0.00    +0.000 A 
ATOM     15  C   UNL     1      99.563 126.803  82.357  0.00  0.00    +0.000 A 
ENDBRANCH   2  10
TORSDOF 2
ENDMDL
