MODEL 1
REMARK VINA RESULT:      -4.7      0.000      0.000
REMARK  Name = *****
REMARK  4 active torsions:
REMARK  status: ('A' for Active; 'I' for Inactive)
REMARK    1  A    between atoms: C_4  and  C_7
REMARK    2  A    between atoms: C_7  and  C_8
REMARK    3  A    between atoms: C_8  and  C_12
REMARK    4  A    between atoms: C_15  and  C_18
REMARK                            x       y       z     vdW  Elec       q    Type
REMARK                         _______ _______ _______ _____ _____    ______ ____
ROOT
ATOM      1  C   UNL     1      88.752  70.461  84.676  0.00  0.00    +0.000 C 
ATOM      2  C   UNL     1      89.605  71.494  84.622  0.00  0.00    +0.000 C 
ATOM      3  F   UNL     1      90.937  71.303  84.740  0.00  0.00    +0.000 F 
ATOM      4  F   UNL     1      89.136  72.748  84.443  0.00  0.00    +0.000 F 
ENDROOT
BRANCH   1   5
ATOM      5  C   UNL     1      89.262  69.089  84.853  0.00  0.00    +0.000 A 
ATOM      6  C   UNL     1      89.718  68.659  86.106  0.00  0.00    +0.000 A 
ATOM      7  C   UNL     1      90.192  67.354  86.281  0.00  0.00    +0.000 A 
ATOM      8  C   UNL     1      90.212  66.466  85.202  0.00  0.00    +0.000 A 
ATOM      9  C   UNL     1      89.759  66.888  83.949  0.00  0.00    +0.000 A 
ATOM     10  C   UNL     1      89.285  68.192  83.775  0.00  0.00    +0.000 A 
BRANCH   8  11
ATOM     11  C   UNL     1      90.697  65.128  85.380  0.00  0.00    +0.000 C 
ATOM     12  N   UNL     1      91.084  64.044  85.525  0.00  0.00    +0.000 NA
ENDBRANCH   8  11
ENDBRANCH   1   5
BRANCH   1  13
ATOM     13  C   UNL     1      87.262  70.640  84.514  0.00  0.00    +0.000 C 
BRANCH  13  17
ATOM     14  C   UNL     1      85.325  72.005  88.122  0.00  0.00    +0.000 A 
ATOM     15  C   UNL     1      86.500  71.259  88.199  0.00  0.00    +0.000 A 
ATOM     16  C   UNL     1      87.129  70.824  87.033  0.00  0.00    +0.000 A 
ATOM     17  C   UNL     1      86.591  71.135  85.775  0.00  0.00    +0.000 A 
ATOM     18  C   UNL     1      85.405  71.880  85.710  0.00  0.00    +0.000 A 
ATOM     19  C   UNL     1      84.777  72.314  86.878  0.00  0.00    +0.000 A 
ENDBRANCH  13  17
ENDBRANCH   1  13
TORSDOF 4
ENDMDL
