MODEL 1
REMARK VINA RESULT:      -4.3      0.000      0.000
REMARK  Name = *****
REMARK  6 active torsions:
REMARK  status: ('A' for Active; 'I' for Inactive)
REMARK    1  A    between atoms: C_1  and  C_2
REMARK    2  A    between atoms: C_2  and  O_3
REMARK    3  A    between atoms: O_3  and  C_4
REMARK    4  A    between atoms: C_8  and  C_9
REMARK    5  A    between atoms: C_9  and  C_10
REMARK    6  A    between atoms: C_10  and  C_11
REMARK                            x       y       z     vdW  Elec       q    Type
REMARK                         _______ _______ _______ _____ _____    ______ ____
ROOT
ATOM      1  C   UNL     1      89.650  68.605  85.263  0.00  0.00    +0.000 C 
ATOM      2  C   UNL     1      90.111  69.253  84.184  0.00  0.00    +0.000 C 
ATOM      3  C   UNL     1      90.381  70.689  84.483  0.00  0.00    +0.000 C 
ATOM      4  C   UNL     1      89.642  70.898  85.802  0.00  0.00    +0.000 C 
ATOM      5  C   UNL     1      89.541  69.511  86.464  0.00  0.00    +0.000 C 
ENDROOT
BRANCH   1   6
ATOM      6  O   UNL     1      89.321  67.291  85.410  0.00  0.00    +0.000 OA
BRANCH   6   8
ATOM      7  C   UNL     1      91.119  65.729  85.338  0.00  0.00    +0.000 C 
ATOM      8  C   UNL     1      90.173  66.502  86.239  0.00  0.00    +0.000 C 
ENDBRANCH   6   8
ENDBRANCH   1   6
BRANCH   5   9
ATOM      9  C   UNL     1      88.252  69.393  87.290  0.00  0.00    +0.000 C 
BRANCH   9  10
ATOM     10  C   UNL     1      88.027  70.585  88.227  0.00  0.00    +0.000 C 
BRANCH  10  11
ATOM     11  C   UNL     1      86.694  71.246  87.966  0.00  0.00    +0.000 A 
ATOM     12  C   UNL     1      85.871  71.620  89.036  0.00  0.00    +0.000 A 
ATOM     13  C   UNL     1      84.631  72.216  88.799  0.00  0.00    +0.000 A 
ATOM     14  C   UNL     1      84.202  72.439  87.491  0.00  0.00    +0.000 A 
ATOM     15  C   UNL     1      85.012  72.063  86.420  0.00  0.00    +0.000 A 
ATOM     16  C   UNL     1      86.252  71.467  86.655  0.00  0.00    +0.000 A 
ENDBRANCH  10  11
ENDBRANCH   9  10
ENDBRANCH   5   9
TORSDOF 5
ENDMDL
