MODEL 1
REMARK VINA RESULT:      -4.4      0.000      0.000
REMARK  Name = *****
REMARK  4 active torsions:
REMARK  status: ('A' for Active; 'I' for Inactive)
REMARK    1  A    between atoms: C_4  and  C_7
REMARK    2  A    between atoms: C_7  and  S_8
REMARK    3  A    between atoms: S_8  and  N_9
REMARK    4  A    between atoms: S_8  and  C_12
REMARK                            x       y       z     vdW  Elec       q    Type
REMARK                         _______ _______ _______ _____ _____    ______ ____
ROOT
ATOM      1  S   UNL     1      88.681  70.013  86.380  0.00  0.00    +0.000 S 
ATOM      2  O   UNL     1      89.769  70.889  86.789  0.00  0.00    +0.000 OA
ENDROOT
BRANCH   1   3
ATOM      3  C   UNL     1      87.220  70.839  87.023  0.00  0.00    +0.000 A 
ATOM      4  C   UNL     1      86.316  71.351  86.085  0.00  0.00    +0.000 A 
ATOM      5  C   UNL     1      85.163  72.004  86.519  0.00  0.00    +0.000 A 
ATOM      6  C   UNL     1      84.913  72.141  87.884  0.00  0.00    +0.000 A 
ATOM      7  C   UNL     1      85.814  71.626  88.818  0.00  0.00    +0.000 A 
ATOM      8  C   UNL     1      86.973  70.971  88.393  0.00  0.00    +0.000 A 
ENDBRANCH   1   3
BRANCH   1   9
ATOM      9  N   UNL     1      88.543  68.532  86.813  0.00  0.00    +0.000 NA
ATOM     10 BR   UNL     1      89.755  67.231  86.301  0.00  0.00    +0.000 Br
ENDBRANCH   1   9
BRANCH   1  11
ATOM     11  C   UNL     1      88.568  70.138  84.599  0.00  0.00    +0.000 C 
BRANCH  11  15
ATOM     12  C   UNL     1      91.250  73.178  83.118  0.00  0.00    +0.000 A 
ATOM     13  C   UNL     1      91.700  71.869  83.274  0.00  0.00    +0.000 A 
ATOM     14  C   UNL     1      90.835  70.885  83.756  0.00  0.00    +0.000 A 
ATOM     15  C   UNL     1      89.508  71.200  84.087  0.00  0.00    +0.000 A 
ATOM     16  C   UNL     1      89.070  72.523  83.927  0.00  0.00    +0.000 A 
ATOM     17  C   UNL     1      89.936  73.505  83.445  0.00  0.00    +0.000 A 
ENDBRANCH  11  15
ENDBRANCH   1  11
TORSDOF 4
ENDMDL
