REMARK  Name = *****
REMARK  6 active torsions:
REMARK  status: ('A' for Active; 'I' for Inactive)
REMARK    1  A    between atoms: C_1  and  C_2
REMARK    2  A    between atoms: C_5  and  C_8
REMARK    3  A    between atoms: C_8  and  C_9
REMARK    4  A    between atoms: C_8  and  O_16
REMARK    5  A    between atoms: C_9  and  C_10
REMARK    6  A    between atoms: O_16  and  C_17
REMARK                            x       y       z     vdW  Elec       q    Type
REMARK                         _______ _______ _______ _____ _____    ______ ____
ROOT
ATOM      1  C   UNL     1      -3.347   0.287  -0.100  0.00  0.00    +0.000 C 
ENDROOT
BRANCH   1   6
ATOM      2  C   UNL     1       2.365   0.134  -1.315  0.00  0.00    +0.000 C 
ATOM      3  C   UNL     1       0.904   0.163  -0.980  0.00  0.00    +0.000 A 
ATOM      4  C   UNL     1       0.044  -0.827  -1.469  0.00  0.00    +0.000 A 
ATOM      5  C   UNL     1      -1.323  -0.784  -1.186  0.00  0.00    +0.000 A 
ATOM      6  C   UNL     1      -1.860   0.260  -0.419  0.00  0.00    +0.000 A 
ATOM      7  C   UNL     1      -0.996   1.255   0.062  0.00  0.00    +0.000 A 
ATOM      8  C   UNL     1       0.370   1.211  -0.223  0.00  0.00    +0.000 A 
ENDBRANCH   1   6
BRANCH   1   9
ATOM      9  O   UNL     1      -3.856   1.624  -0.245  0.00  0.00    +0.000 OA
ATOM     10  C   UNL     1      -4.130   1.961  -1.599  0.00  0.00    +0.000 C 
ENDBRANCH   1   9
BRANCH   1  11
ATOM     11  C   UNL     1      -3.582  -0.183   1.353  0.00  0.00    +0.000 C 
BRANCH  11  12
ATOM     12  C   UNL     1      -5.021  -0.582   1.638  0.00  0.00    +0.000 C 
ATOM     13  C   UNL     1      -5.363  -1.860   1.892  0.00  0.00    +0.000 C 
ATOM     14  C   UNL     1      -6.767  -2.309   2.176  0.00  0.00    +0.000 C 
ATOM     15  C   UNL     1      -7.819  -1.245   1.864  0.00  0.00    +0.000 C 
ATOM     16  C   UNL     1      -7.361   0.131   2.332  0.00  0.00    +0.000 C 
ATOM     17  C   UNL     1      -6.045   0.530   1.661  0.00  0.00    +0.000 C 
ENDBRANCH  11  12
ENDBRANCH   1  11
TORSDOF 4
