REMARK  Name = *****
REMARK  3 active torsions:
REMARK  status: ('A' for Active; 'I' for Inactive)
REMARK    1  A    between atoms: C_4  and  C_7
REMARK    2  A    between atoms: C_7  and  O_8
REMARK    3  A    between atoms: O_8  and  C_9
REMARK                            x       y       z     vdW  Elec       q    Type
REMARK                         _______ _______ _______ _____ _____    ______ ____
ROOT
ATOM      1  C   UNL     1      -4.941  -0.698  -0.301  0.00  0.00    +0.000 A 
ATOM      2  C   UNL     1      -5.732   0.446  -0.435  0.00  0.00    +0.000 A 
ATOM      3  C   UNL     1      -7.113   0.340  -0.601  0.00  0.00    +0.000 A 
ATOM      4  C   UNL     1      -7.722  -0.905  -0.633  0.00  0.00    +0.000 A 
ATOM      5  C   UNL     1      -6.954  -2.050  -0.500  0.00  0.00    +0.000 A 
ATOM      6  C   UNL     1      -5.576  -1.946  -0.334  0.00  0.00    +0.000 A 
ATOM      7  F   UNL     1      -4.849  -3.068  -0.211  0.00  0.00    +0.000 F 
ATOM      8  F   UNL     1      -7.537  -3.257  -0.532  0.00  0.00    +0.000 F 
ATOM      9  F   UNL     1      -9.049  -1.000  -0.793  0.00  0.00    +0.000 F 
ATOM     10  F   UNL     1      -7.854   1.450  -0.728  0.00  0.00    +0.000 F 
ATOM     11  F   UNL     1      -5.193   1.673  -0.407  0.00  0.00    +0.000 F 
ENDROOT
BRANCH   1  12
ATOM     12  O   UNL     1      -3.584  -0.742  -0.130  0.00  0.00    +0.000 OA
BRANCH  12  13
ATOM     13  C   UNL     1      -2.861   0.490  -0.177  0.00  0.00    +0.000 C 
BRANCH  13  17
ATOM     14  C   UNL     1       1.400  -0.170   0.132  0.00  0.00    +0.000 A 
ATOM     15  C   UNL     1       0.591  -1.143  -0.452  0.00  0.00    +0.000 A 
ATOM     16  C   UNL     1      -0.788  -0.942  -0.548  0.00  0.00    +0.000 A 
ATOM     17  C   UNL     1      -1.376   0.229  -0.047  0.00  0.00    +0.000 A 
ATOM     18  C   UNL     1      -0.547   1.207   0.524  0.00  0.00    +0.000 A 
ATOM     19  C   UNL     1       0.832   1.005   0.618  0.00  0.00    +0.000 A 
ENDBRANCH  13  17
ENDBRANCH  12  13
ENDBRANCH   1  12
TORSDOF 3
