MODEL 1
REMARK VINA RESULT:      -5.0      0.000      0.000
REMARK  Name = *****
REMARK  3 active torsions:
REMARK  status: ('A' for Active; 'I' for Inactive)
REMARK    1  A    between atoms: C_1  and  C_2
REMARK    2  A    between atoms: C_5  and  C_8
REMARK    3  A    between atoms: C_9  and  C_10
REMARK                            x       y       z     vdW  Elec       q    Type
REMARK                         _______ _______ _______ _____ _____    ______ ____
ROOT
ATOM      1  C   UNL     1     102.766 125.499  82.180  0.00  0.00    +0.000 C 
ATOM      2  C   UNL     1     101.931 126.315  82.461  0.00  0.00    +0.000 C 
ENDROOT
BRANCH   1   7
ATOM      3  C   UNL     1     106.773 121.602  80.888  0.00  0.00    +0.000 C 
ATOM      4  C   UNL     1     105.704 122.602  81.218  0.00  0.00    +0.000 A 
ATOM      5  C   UNL     1     105.208 123.463  80.232  0.00  0.00    +0.000 A 
ATOM      6  C   UNL     1     104.236 124.416  80.547  0.00  0.00    +0.000 A 
ATOM      7  C   UNL     1     103.760 124.523  81.855  0.00  0.00    +0.000 A 
ATOM      8  C   UNL     1     104.261 123.679  82.847  0.00  0.00    +0.000 A 
ATOM      9  C   UNL     1     105.233 122.726  82.530  0.00  0.00    +0.000 A 
ENDBRANCH   1   7
BRANCH   2  10
ATOM     10  C   UNL     1     100.936 127.286  82.800  0.00  0.00    +0.000 A 
ATOM     11  C   UNL     1     101.302 128.455  83.472  0.00  0.00    +0.000 A 
ATOM     12  C   UNL     1     100.332 129.405  83.804  0.00  0.00    +0.000 A 
ATOM     13  C   UNL     1      98.994 129.191  83.465  0.00  0.00    +0.000 A 
ATOM     14  C   UNL     1      98.626 128.025  82.793  0.00  0.00    +0.000 A 
ATOM     15  C   UNL     1      99.596 127.081  82.465  0.00  0.00    +0.000 A 
ATOM     16  F   UNL     1      99.217 125.968  81.819  0.00  0.00    +0.000 F 
ENDBRANCH   2  10
TORSDOF 2
ENDMDL
