REMARK  Name = *****
REMARK  4 active torsions:
REMARK  status: ('A' for Active; 'I' for Inactive)
REMARK    1  A    between atoms: C_4  and  C_7
REMARK    2  A    between atoms: C_7  and  C_16
REMARK    3  A    between atoms: C_8  and  C_9
REMARK    4  A    between atoms: C_16  and  O_17
REMARK                            x       y       z     vdW  Elec       q    Type
REMARK                         _______ _______ _______ _____ _____    ______ ____
ROOT
ATOM      1  C   UNL     1      -2.899   0.372  -0.264  0.00  0.00    +0.000 C 
ATOM      2  C   UNL     1      -3.368   1.633  -0.174  0.00  0.00    +0.000 C 
ENDROOT
BRANCH   2   3
ATOM      3  C   UNL     1      -4.780   2.030  -0.287  0.00  0.00    +0.000 A 
ATOM      4  C   UNL     1      -5.695   1.576   0.676  0.00  0.00    +0.000 A 
ATOM      5  C   UNL     1      -7.040   1.948   0.614  0.00  0.00    +0.000 A 
ATOM      6  C   UNL     1      -7.486   2.785  -0.406  0.00  0.00    +0.000 A 
ATOM      7  C   UNL     1      -6.587   3.251  -1.365  0.00  0.00    +0.000 A 
ATOM      8  C   UNL     1      -5.240   2.879  -1.307  0.00  0.00    +0.000 A 
ATOM      9 CL   UNL     1      -4.183   3.489  -2.534  0.00  0.00    +0.000 Cl
ENDBRANCH   2   3
BRANCH   1  13
ATOM     10  C   UNL     1       1.320  -0.228   0.157  0.00  0.00    +0.000 A 
ATOM     11  C   UNL     1       0.566   0.217   1.241  0.00  0.00    +0.000 A 
ATOM     12  C   UNL     1      -0.809   0.417   1.101  0.00  0.00    +0.000 A 
ATOM     13  C   UNL     1      -1.441   0.171  -0.125  0.00  0.00    +0.000 A 
ATOM     14  C   UNL     1      -0.674  -0.272  -1.210  0.00  0.00    +0.000 A 
ATOM     15  C   UNL     1       0.701  -0.471  -1.069  0.00  0.00    +0.000 A 
ENDBRANCH   1  13
BRANCH   1  16
ATOM     16  C   UNL     1      -3.718  -0.857  -0.562  0.00  0.00    +0.000 C 
BRANCH  16  17
ATOM     17  O   UNL     1      -3.842  -1.645   0.618  0.00  0.00    +0.000 OA
ATOM     18  H   UNL     1      -2.961  -1.912   0.923  0.00  0.00    +0.000 HD
ENDBRANCH  16  17
ENDBRANCH   1  16
TORSDOF 4
