REMARK  Name = *****
REMARK  4 active torsions:
REMARK  status: ('A' for Active; 'I' for Inactive)
REMARK    1  A    between atoms: C_1  and  C_2
REMARK    2  A    between atoms: C_4  and  C_16
REMARK    3  A    between atoms: C_6  and  N_8
REMARK    4  A    between atoms: C_9  and  C_10
REMARK                            x       y       z     vdW  Elec       q    Type
REMARK                         _______ _______ _______ _____ _____    ______ ____
ROOT
ATOM      1  C   UNL     1       2.472   1.216   0.649  0.00  0.00    +0.000 C 
ATOM      2  C   UNL     1       1.276   0.381   0.298  0.00  0.00    +0.000 A 
ATOM      3  C   UNL     1       0.054   0.989  -0.022  0.00  0.00    +0.000 A 
ATOM      4  C   UNL     1      -1.078   0.216  -0.313  0.00  0.00    +0.000 A 
ATOM      5  C   UNL     1      -0.982  -1.181  -0.252  0.00  0.00    +0.000 A 
ATOM      6  C   UNL     1       0.228  -1.801   0.063  0.00  0.00    +0.000 A 
ATOM      7  C   UNL     1       1.347  -1.016   0.353  0.00  0.00    +0.000 A 
ATOM      8  C   UNL     1      -2.392   0.873  -0.610  0.00  0.00    +0.000 C 
ENDROOT
BRANCH   6   9
ATOM      9  N   UNL     1       0.304  -3.200   0.130  0.00  0.00    +0.000 NA
ATOM     10  C   UNL     1       0.730  -3.792  -0.942  0.00  0.00    +0.000 C 
BRANCH  10  11
ATOM     11  C   UNL     1       0.865  -5.259  -1.025  0.00  0.00    +0.000 A 
ATOM     12  C   UNL     1       0.519  -6.072   0.058  0.00  0.00    +0.000 A 
ATOM     13  C   UNL     1       0.656  -7.457  -0.045  0.00  0.00    +0.000 A 
ATOM     14  C   UNL     1       1.137  -8.026  -1.225  0.00  0.00    +0.000 A 
ATOM     15  C   UNL     1       1.483  -7.212  -2.305  0.00  0.00    +0.000 A 
ATOM     16  C   UNL     1       1.347  -5.826  -2.208  0.00  0.00    +0.000 A 
ENDBRANCH  10  11
ENDBRANCH   6   9
TORSDOF 2
