REMARK  Name = *****
REMARK  5 active torsions:
REMARK  status: ('A' for Active; 'I' for Inactive)
REMARK    1  A    between atoms: C_1  and  N_2
REMARK    2  A    between atoms: N_2  and  C_3
REMARK    3  A    between atoms: N_2  and  C_11
REMARK    4  A    between atoms: C_3  and  C_4
REMARK    5  A    between atoms: C_4  and  C_5
REMARK                            x       y       z     vdW  Elec       q    Type
REMARK                         _______ _______ _______ _____ _____    ______ ____
ROOT
ATOM      1  C   UNL     1       1.421   0.199   1.007  0.00  0.00    +0.000 C 
ATOM      2  N   UNL     1       2.400  -0.033  -0.064  0.00  0.00    +0.000 N 
ENDROOT
BRANCH   2   3
ATOM      3  C   UNL     1       3.183   1.126  -0.265  0.00  0.00    +0.000 A 
ATOM      4  C   UNL     1       4.493   1.271   0.214  0.00  0.00    +0.000 A 
ATOM      5  C   UNL     1       5.215   2.450  -0.003  0.00  0.00    +0.000 A 
ATOM      6  C   UNL     1       4.637   3.506  -0.703  0.00  0.00    +0.000 A 
ATOM      7  C   UNL     1       3.338   3.384  -1.185  0.00  0.00    +0.000 A 
ATOM      8  C   UNL     1       2.620   2.205  -0.965  0.00  0.00    +0.000 A 
ENDBRANCH   2   3
BRANCH   2   9
ATOM      9  C   UNL     1       3.147  -1.305   0.030  0.00  0.00    +0.000 C 
BRANCH   9  10
ATOM     10  C   UNL     1       2.273  -2.490  -0.406  0.00  0.00    +0.000 C 
BRANCH  10  11
ATOM     11  C   UNL     1       3.046  -3.787  -0.395  0.00  0.00    +0.000 A 
ATOM     12  C   UNL     1       3.154  -4.541   0.782  0.00  0.00    +0.000 A 
ATOM     13  C   UNL     1       3.888  -5.728   0.796  0.00  0.00    +0.000 A 
ATOM     14  C   UNL     1       4.522  -6.170  -0.364  0.00  0.00    +0.000 A 
ATOM     15  C   UNL     1       4.424  -5.426  -1.538  0.00  0.00    +0.000 A 
ATOM     16  C   UNL     1       3.691  -4.238  -1.554  0.00  0.00    +0.000 A 
ENDBRANCH  10  11
ENDBRANCH   9  10
ENDBRANCH   2   9
TORSDOF 4
