MODEL 1
REMARK VINA RESULT:      -5.4      0.000      0.000
REMARK  Name = *****
REMARK  2 active torsions:
REMARK  status: ('A' for Active; 'I' for Inactive)
REMARK    1  A    between atoms: C_9  and  C_11
REMARK    2  A    between atoms: C_11  and  C_12
REMARK                            x       y       z     vdW  Elec       q    Type
REMARK                         _______ _______ _______ _____ _____    ______ ____
ROOT
ATOM      1  C   UNL     1      87.775  71.399  90.151  0.00  0.00    +0.000 C 
ATOM      2  C   UNL     1      86.266  71.368  89.919  0.00  0.00    +0.000 C 
ATOM      3  C   UNL     1      85.899  71.637  88.482  0.00  0.00    +0.000 A 
ATOM      4  C   UNL     1      84.640  72.189  88.188  0.00  0.00    +0.000 A 
ATOM      5  C   UNL     1      84.253  72.393  86.867  0.00  0.00    +0.000 A 
ATOM      6  C   UNL     1      85.111  72.036  85.834  0.00  0.00    +0.000 A 
ATOM      7  C   UNL     1      86.359  71.472  86.119  0.00  0.00    +0.000 A 
ATOM      8  C   UNL     1      86.777  71.261  87.441  0.00  0.00    +0.000 A 
ATOM      9  C   UNL     1      88.096  70.655  87.777  0.00  0.00    +0.000 C 
ATOM     10  C   UNL     1      88.540  70.732  89.049  0.00  0.00    +0.000 C 
ENDROOT
BRANCH   9  11
ATOM     11  C   UNL     1      88.917  69.946  86.718  0.00  0.00    +0.000 C 
BRANCH  11  12
ATOM     12  C   UNL     1      88.946  68.431  86.797  0.00  0.00    +0.000 A 
ATOM     13  C   UNL     1      87.885  67.696  87.348  0.00  0.00    +0.000 A 
ATOM     14  C   UNL     1      87.924  66.301  87.377  0.00  0.00    +0.000 A 
ATOM     15  C   UNL     1      89.016  65.620  86.842  0.00  0.00    +0.000 A 
ATOM     16  C   UNL     1      90.067  66.335  86.274  0.00  0.00    +0.000 A 
ATOM     17  C   UNL     1      90.030  67.730  86.245  0.00  0.00    +0.000 A 
ENDBRANCH  11  12
ENDBRANCH   9  11
TORSDOF 2
ENDMDL
