MODEL 1
REMARK VINA RESULT:      -4.3      0.000      0.000
REMARK  Name = *****
REMARK  5 active torsions:
REMARK  status: ('A' for Active; 'I' for Inactive)
REMARK    1  A    between atoms: C_1  and  C_2
REMARK    2  A    between atoms: C_5  and  C_8
REMARK    3  A    between atoms: C_8  and  O_9
REMARK    4  A    between atoms: O_9  and  C_10
REMARK    5  A    between atoms: C_10  and  C_11
REMARK                            x       y       z     vdW  Elec       q    Type
REMARK                         _______ _______ _______ _____ _____    ______ ____
ROOT
ATOM      1  C   UNL     1     104.694 124.439  80.220  0.00  0.00    +0.000 C 
ENDROOT
BRANCH   1   6
ATOM      2  C   UNL     1     104.347 119.928  83.953  0.00  0.00    +0.000 C 
ATOM      3  C   UNL     1     104.466 121.108  83.032  0.00  0.00    +0.000 C 
ATOM      4  C   UNL     1     104.481 122.372  83.490  0.00  0.00    +0.000 C 
ATOM      5  C   UNL     1     104.557 123.582  82.602  0.00  0.00    +0.000 C 
ATOM      6  C   UNL     1     104.285 123.268  81.120  0.00  0.00    +0.000 C 
ATOM      7  C   UNL     1     105.007 121.981  80.706  0.00  0.00    +0.000 C 
ATOM      8  C   UNL     1     104.561 120.791  81.561  0.00  0.00    +0.000 C 
ENDBRANCH   1   6
BRANCH   1   9
ATOM      9  O   UNL     1     103.548 125.239  79.943  0.00  0.00    +0.000 OA
BRANCH   9  10
ATOM     10  C   UNL     1     103.757 126.606  80.299  0.00  0.00    +0.000 C 
BRANCH  10  11
ATOM     11  C   UNL     1     102.923 126.961  81.504  0.00  0.00    +0.000 A 
ATOM     12  C   UNL     1     101.892 126.119  81.945  0.00  0.00    +0.000 A 
ATOM     13  C   UNL     1     101.151 126.434  83.085  0.00  0.00    +0.000 A 
ATOM     14  C   UNL     1     101.439 127.593  83.805  0.00  0.00    +0.000 A 
ATOM     15  C   UNL     1     102.468 128.434  83.385  0.00  0.00    +0.000 A 
ATOM     16  C   UNL     1     103.210 128.118  82.245  0.00  0.00    +0.000 A 
ENDBRANCH  10  11
ENDBRANCH   9  10
ENDBRANCH   1   9
TORSDOF 4
ENDMDL
