REMARK  Name = *****
REMARK  2 active torsions:
REMARK  status: ('A' for Active; 'I' for Inactive)
REMARK    1  A    between atoms: C_6  and  C_9
REMARK    2  A    between atoms: C_10  and  C_11
REMARK                            x       y       z     vdW  Elec       q    Type
REMARK                         _______ _______ _______ _____ _____    ______ ____
ROOT
ATOM      1  C   UNL     1       0.707  -1.130   0.692  0.00  0.00    +0.000 C 
ATOM      2  C   UNL     1       1.692  -0.080   0.180  0.00  0.00    +0.000 C 
ATOM      3  C   UNL     1       1.069   1.043  -0.628  0.00  0.00    +0.000 C 
ATOM      4  C   UNL     1      -0.175   1.597   0.027  0.00  0.00    +0.000 C 
ATOM      5  O   UNL     1      -0.136   2.623   0.705  0.00  0.00    +0.000 OA
ATOM      6  C   UNL     1      -1.468   0.875  -0.215  0.00  0.00    +0.000 C 
ATOM      7  C   UNL     1      -1.521  -0.457  -0.401  0.00  0.00    +0.000 C 
ATOM      8  C   UNL     1      -0.420  -1.478  -0.282  0.00  0.00    +0.000 C 
ENDROOT
BRANCH   6   9
ATOM      9  C   UNL     1      -2.672   1.638  -0.266  0.00  0.00    +0.000 C 
ATOM     10  C   UNL     1      -3.680   2.291  -0.308  0.00  0.00    +0.000 C 
BRANCH  10  11
ATOM     11  C   UNL     1      -4.870   3.082  -0.355  0.00  0.00    +0.000 A 
ATOM     12  C   UNL     1      -6.109   2.474  -0.568  0.00  0.00    +0.000 A 
ATOM     13  C   UNL     1      -7.269   3.251  -0.615  0.00  0.00    +0.000 A 
ATOM     14  C   UNL     1      -7.190   4.634  -0.448  0.00  0.00    +0.000 A 
ATOM     15  C   UNL     1      -5.953   5.242  -0.235  0.00  0.00    +0.000 A 
ATOM     16  C   UNL     1      -4.793   4.467  -0.188  0.00  0.00    +0.000 A 
ENDBRANCH  10  11
ENDBRANCH   6   9
TORSDOF 2
