REMARK  Name = *****
REMARK  2 active torsions:
REMARK  status: ('A' for Active; 'I' for Inactive)
REMARK    1  A    between atoms: C_5  and  C_7
REMARK    2  A    between atoms: N_8  and  C_9
REMARK                            x       y       z     vdW  Elec       q    Type
REMARK                         _______ _______ _______ _____ _____    ______ ____
ROOT
ATOM      1  C   UNL     1       1.095  -2.391   0.156  0.00  0.00    +0.000 C 
ATOM      2  N   UNL     1       2.286  -2.496  -0.346  0.00  0.00    +0.000 NA
ENDROOT
BRANCH   1   7
ATOM      3  C   UNL     1       0.109   1.173  -0.606  0.00  0.00    +0.000 A 
ATOM      4  C   UNL     1      -1.173   1.214  -0.052  0.00  0.00    +0.000 A 
ATOM      5  C   UNL     1      -1.704   0.080   0.563  0.00  0.00    +0.000 A 
ATOM      6  C   UNL     1      -0.950  -1.089   0.623  0.00  0.00    +0.000 A 
ATOM      7  C   UNL     1       0.329  -1.136   0.073  0.00  0.00    +0.000 A 
ATOM      8  C   UNL     1       0.863  -0.001  -0.544  0.00  0.00    +0.000 A 
ATOM      9  F   UNL     1      -1.478  -2.168   1.220  0.00  0.00    +0.000 F 
ENDBRANCH   1   7
BRANCH   2  10
ATOM     10  C   UNL     1       2.905  -3.746  -0.200  0.00  0.00    +0.000 A 
ATOM     11  C   UNL     1       2.671  -4.766  -1.125  0.00  0.00    +0.000 A 
ATOM     12  C   UNL     1       3.307  -5.997  -0.976  0.00  0.00    +0.000 A 
ATOM     13  C   UNL     1       4.186  -6.218   0.083  0.00  0.00    +0.000 A 
ATOM     14  C   UNL     1       4.435  -5.197   0.999  0.00  0.00    +0.000 A 
ATOM     15  C   UNL     1       3.798  -3.963   0.853  0.00  0.00    +0.000 A 
ATOM     16 CL   UNL     1       3.007  -7.255  -2.112  0.00  0.00    +0.000 Cl
ENDBRANCH   2  10
TORSDOF 2
