REMARK  Name = *****
REMARK  3 active torsions:
REMARK  status: ('A' for Active; 'I' for Inactive)
REMARK    1  A    between atoms: C_4  and  C_7
REMARK    2  A    between atoms: C_7  and  C_8
REMARK    3  A    between atoms: C_9  and  C_10
REMARK                            x       y       z     vdW  Elec       q    Type
REMARK                         _______ _______ _______ _____ _____    ______ ____
ROOT
ATOM      1  C   UNL     1      -3.481  -0.957  -1.253  0.00  0.00    +0.000 C 
ATOM      2  C   UNL     1      -4.783  -0.915  -0.927  0.00  0.00    +0.000 C 
ATOM      3 CL   UNL     1      -5.699  -2.381  -0.836  0.00  0.00    +0.000 Cl
ENDROOT
BRANCH   2   4
ATOM      4  C   UNL     1      -5.520   0.313  -0.617  0.00  0.00    +0.000 A 
ATOM      5  C   UNL     1      -6.067   1.091  -1.645  0.00  0.00    +0.000 A 
ATOM      6  C   UNL     1      -6.754   2.270  -1.347  0.00  0.00    +0.000 A 
ATOM      7  C   UNL     1      -6.899   2.676  -0.021  0.00  0.00    +0.000 A 
ATOM      8  C   UNL     1      -6.359   1.906   1.009  0.00  0.00    +0.000 A 
ATOM      9  C   UNL     1      -5.671   0.728   0.713  0.00  0.00    +0.000 A 
ENDBRANCH   2   4
BRANCH   1  10
ATOM     10  C   UNL     1      -2.543   0.210  -1.376  0.00  0.00    +0.000 C 
BRANCH  10  14
ATOM     11  C   UNL     1       0.618   0.012   1.554  0.00  0.00    +0.000 A 
ATOM     12  C   UNL     1       0.787  -0.586   0.307  0.00  0.00    +0.000 A 
ATOM     13  C   UNL     1      -0.232  -0.519  -0.645  0.00  0.00    +0.000 A 
ATOM     14  C   UNL     1      -1.429   0.153  -0.358  0.00  0.00    +0.000 A 
ATOM     15  C   UNL     1      -1.590   0.745   0.902  0.00  0.00    +0.000 A 
ATOM     16  C   UNL     1      -0.570   0.677   1.853  0.00  0.00    +0.000 A 
ENDBRANCH  10  14
ENDBRANCH   1  10
TORSDOF 3
