MODEL 1
REMARK VINA RESULT:      -5.0      0.000      0.000
REMARK  Name = *****
REMARK  3 active torsions:
REMARK  status: ('A' for Active; 'I' for Inactive)
REMARK    1  A    between atoms: C_1  and  C_2
REMARK    2  A    between atoms: C_4  and  C_8
REMARK    3  A    between atoms: C_9  and  C_10
REMARK                            x       y       z     vdW  Elec       q    Type
REMARK                         _______ _______ _______ _____ _____    ______ ____
ROOT
ATOM      1  C   UNL     1     103.093 126.382  81.203  0.00  0.00    +0.000 C 
ATOM      2  C   UNL     1     102.081 126.080  82.032  0.00  0.00    +0.000 C 
ENDROOT
BRANCH   1   6
ATOM      3  C   UNL     1     104.865 121.674  81.013  0.00  0.00    +0.000 C 
ATOM      4  C   UNL     1     104.945 123.118  80.612  0.00  0.00    +0.000 A 
ATOM      5  C   UNL     1     104.017 124.046  81.106  0.00  0.00    +0.000 A 
ATOM      6  C   UNL     1     104.067 125.393  80.718  0.00  0.00    +0.000 A 
ATOM      7  C   UNL     1     105.039 125.795  79.794  0.00  0.00    +0.000 A 
ATOM      8  C   UNL     1     105.957 124.876  79.286  0.00  0.00    +0.000 A 
ATOM      9  C   UNL     1     105.909 123.543  79.691  0.00  0.00    +0.000 A 
ENDBRANCH   1   6
BRANCH   2  10
ATOM     10  C   UNL     1     101.087 127.013  82.549  0.00  0.00    +0.000 C 
ATOM     11  C   UNL     1      99.776 126.741  82.392  0.00  0.00    +0.000 C 
ATOM     12  C   UNL     1      98.667 127.643  82.846  0.00  0.00    +0.000 C 
ATOM     13  C   UNL     1      99.143 129.048  83.212  0.00  0.00    +0.000 C 
ATOM     14  C   UNL     1     100.426 128.985  84.031  0.00  0.00    +0.000 C 
ATOM     15  C   UNL     1     101.542 128.270  83.262  0.00  0.00    +0.000 C 
ENDBRANCH   2  10
TORSDOF 2
ENDMDL
