MODEL 1
REMARK VINA RESULT:      -4.8      0.000      0.000
REMARK  Name = *****
REMARK  3 active torsions:
REMARK  status: ('A' for Active; 'I' for Inactive)
REMARK    1  A    between atoms: C_5  and  O_7
REMARK    2  A    between atoms: O_7  and  C_8
REMARK    3  A    between atoms: C_8  and  C_10
REMARK                            x       y       z     vdW  Elec       q    Type
REMARK                         _______ _______ _______ _____ _____    ______ ____
ROOT
ATOM      1  C   UNL     1     102.331 125.693  82.477  0.00  0.00    +0.000 C 
ATOM      2  O   UNL     1     102.811 124.955  83.324  0.00  0.00    +0.000 OA
ENDROOT
BRANCH   1   3
ATOM      3  C   UNL     1     101.445 126.824  82.825  0.00  0.00    +0.000 A 
ATOM      4  C   UNL     1     100.091 126.841  82.489  0.00  0.00    +0.000 A 
ATOM      5  C   UNL     1      99.302 127.932  82.835  0.00  0.00    +0.000 A 
ATOM      6  C   UNL     1      99.859 129.011  83.509  0.00  0.00    +0.000 A 
ATOM      7  C   UNL     1     101.212 129.017  83.839  0.00  0.00    +0.000 A 
ATOM      8  C   UNL     1     102.009 127.924  83.493  0.00  0.00    +0.000 A 
ATOM      9  F   UNL     1      99.100 130.063  83.841  0.00  0.00    +0.000 F 
ATOM     10  F   UNL     1      98.001 127.945  82.510  0.00  0.00    +0.000 F 
ATOM     11  F   UNL     1      99.533 125.831  81.805  0.00  0.00    +0.000 F 
ENDBRANCH   1   3
BRANCH   1  12
ATOM     12  O   UNL     1     102.433 125.587  81.107  0.00  0.00    +0.000 OA
BRANCH  12  17
ATOM     13  C   UNL     1     105.575 123.880  80.277  0.00  0.00    +0.000 A 
ATOM     14  C   UNL     1     106.396 124.962  79.948  0.00  0.00    +0.000 A 
ATOM     15  C   UNL     1     105.896 126.267  80.002  0.00  0.00    +0.000 A 
ATOM     16  C   UNL     1     104.571 126.489  80.380  0.00  0.00    +0.000 A 
ATOM     17  C   UNL     1     103.753 125.400  80.687  0.00  0.00    +0.000 A 
ATOM     18  C   UNL     1     104.251 124.096  80.655  0.00  0.00    +0.000 A 
ATOM     19 CL   UNL     1     103.989 128.110  80.472  0.00  0.00    +0.000 Cl
ENDBRANCH  12  17
ENDBRANCH   1  12
TORSDOF 3
ENDMDL
