MODEL 1
REMARK VINA RESULT:      -4.6      0.000      0.000
REMARK  Name = *****
REMARK  3 active torsions:
REMARK  status: ('A' for Active; 'I' for Inactive)
REMARK    1  A    between atoms: C_4  and  O_7
REMARK    2  A    between atoms: O_7  and  C_8
REMARK    3  A    between atoms: C_8  and  C_10
REMARK                            x       y       z     vdW  Elec       q    Type
REMARK                         _______ _______ _______ _____ _____    ______ ____
ROOT
ATOM      1  C   UNL     1     102.642 125.289  82.854  0.00  0.00    +0.000 C 
ATOM      2  O   UNL     1     102.694 125.043  84.048  0.00  0.00    +0.000 OA
ENDROOT
BRANCH   1   3
ATOM      3  C   UNL     1     103.666 124.860  81.900  0.00  0.00    +0.000 C 
ATOM      4  C   UNL     1     103.733 125.023  80.560  0.00  0.00    +0.000 C 
ATOM      5  C   UNL     1     105.023 124.362  80.109  0.00  0.00    +0.000 C 
ATOM      6  C   UNL     1     105.884 124.723  81.331  0.00  0.00    +0.000 C 
ATOM      7  C   UNL     1     104.901 124.092  82.330  0.00  0.00    +0.000 C 
ATOM      8  C   UNL     1     104.848 122.704  81.705  0.00  0.00    +0.000 C 
ATOM      9  C   UNL     1     104.916 122.869  80.368  0.00  0.00    +0.000 C 
ENDBRANCH   1   3
BRANCH   1  10
ATOM     10  O   UNL     1     101.670 125.986  82.216  0.00  0.00    +0.000 OA
BRANCH  10  14
ATOM     11  C   UNL     1      99.266 129.303  83.320  0.00  0.00    +0.000 C 
ATOM     12  C   UNL     1      98.580 127.946  83.186  0.00  0.00    +0.000 C 
ATOM     13  C   UNL     1      99.446 126.951  82.420  0.00  0.00    +0.000 C 
ATOM     14  C   UNL     1     100.836 126.811  83.048  0.00  0.00    +0.000 C 
ATOM     15  C   UNL     1     101.517 128.176  83.166  0.00  0.00    +0.000 C 
ATOM     16  C   UNL     1     100.657 129.173  83.934  0.00  0.00    +0.000 C 
ENDBRANCH  10  14
ENDBRANCH   1  10
TORSDOF 3
ENDMDL
