MODEL 1
REMARK VINA RESULT:      -4.1      0.000      0.000
REMARK  Name = *****
REMARK  5 active torsions:
REMARK  status: ('A' for Active; 'I' for Inactive)
REMARK    1  A    between atoms: C_1  and  C_2
REMARK    2  A    between atoms: C_2  and  C_3
REMARK    3  A    between atoms: C_2  and  C_4
REMARK    4  A    between atoms: C_2  and  P_9
REMARK    5  A    between atoms: P_9  and  C_10
REMARK                            x       y       z     vdW  Elec       q    Type
REMARK                         _______ _______ _______ _____ _____    ______ ____
ROOT
ATOM      1  C   UNL     1     106.176 127.054  80.909  0.00  0.00    +0.000 C 
ATOM      2  C   UNL     1     104.682 126.650  80.938  0.00  0.00    +0.000 C 
ATOM      3  C   UNL     1     103.861 127.826  80.366  0.00  0.00    +0.000 C 
ENDROOT
BRANCH   2   4
ATOM      4  C   UNL     1     104.404 125.335  80.134  0.00  0.00    +0.000 C 
ATOM      5  C   UNL     1     104.160 124.093  80.971  0.00  0.00    +0.000 C 
ATOM      6  C   UNL     1     105.038 123.131  80.647  0.00  0.00    +0.000 C 
ATOM      7  C   UNL     1     105.903 123.606  79.600  0.00  0.00    +0.000 C 
ATOM      8  C   UNL     1     105.566 124.862  79.278  0.00  0.00    +0.000 C 
ENDBRANCH   2   4
BRANCH   2   9
ATOM      9  P   UNL     1     104.236 126.418  82.798  0.00  0.00    +0.000 P 
ATOM     10  H   UNL     1     105.049 127.192  83.601  0.00  0.00    +0.000 HD
BRANCH   9  11
ATOM     11  C   UNL     1     102.511 126.976  82.890  0.00  0.00    +0.000 A 
ATOM     12  C   UNL     1     102.202 128.227  83.439  0.00  0.00    +0.000 A 
ATOM     13  C   UNL     1     100.879 128.672  83.502  0.00  0.00    +0.000 A 
ATOM     14  C   UNL     1      99.851 127.875  83.004  0.00  0.00    +0.000 A 
ATOM     15  C   UNL     1     100.146 126.637  82.440  0.00  0.00    +0.000 A 
ATOM     16  C   UNL     1     101.470 126.193  82.377  0.00  0.00    +0.000 A 
ENDBRANCH   9  11
ENDBRANCH   2   9
TORSDOF 3
ENDMDL
