REMARK  Name = *****
REMARK  6 active torsions:
REMARK  status: ('A' for Active; 'I' for Inactive)
REMARK    1  A    between atoms: C_1  and  C_2
REMARK    2  A    between atoms: C_5  and  S_8
REMARK    3  A    between atoms: S_8  and  C_9
REMARK    4  A    between atoms: C_9  and  C_10
REMARK    5  A    between atoms: C_12  and  O_16
REMARK    6  A    between atoms: O_16  and  C_17
REMARK                            x       y       z     vdW  Elec       q    Type
REMARK                         _______ _______ _______ _____ _____    ______ ____
ROOT
ATOM      1  C   UNL     1      -6.012   1.856  -1.642  0.00  0.00    +0.000 C 
ENDROOT
BRANCH   1   2
ATOM      2  C   UNL     1      -5.723   1.536  -0.160  0.00  0.00    +0.000 C 
ATOM      3  C   UNL     1      -6.111   2.677   0.805  0.00  0.00    +0.000 C 
ATOM      4  C   UNL     1      -7.622   2.726   1.069  0.00  0.00    +0.000 C 
ATOM      5  C   UNL     1      -8.095   1.394   1.676  0.00  0.00    +0.000 C 
ATOM      6  C   UNL     1      -7.477   0.184   1.040  0.00  0.00    +0.000 C 
ATOM      7  C   UNL     1      -6.425   0.246   0.211  0.00  0.00    +0.000 C 
BRANCH   4   8
ATOM      8  O   UNL     1      -7.949   3.764   2.002  0.00  0.00    +0.000 OA
ATOM      9  C   UNL     1      -7.991   5.058   1.416  0.00  0.00    +0.000 C 
ENDBRANCH   4   8
ENDBRANCH   1   2
BRANCH   1  10
ATOM     10  S   UNL     1      -4.937   3.192  -2.285  0.00  0.00    +0.000 S 
BRANCH  10  15
ATOM     11  C   UNL     1      -7.624   4.740  -7.543  0.00  0.00    +0.000 C 
ATOM     12  C   UNL     1      -6.997   4.346  -6.239  0.00  0.00    +0.000 A 
ATOM     13  C   UNL     1      -6.890   2.997  -5.883  0.00  0.00    +0.000 A 
ATOM     14  C   UNL     1      -6.273   2.624  -4.684  0.00  0.00    +0.000 A 
ATOM     15  C   UNL     1      -5.754   3.594  -3.822  0.00  0.00    +0.000 A 
ATOM     16  C   UNL     1      -5.835   4.940  -4.193  0.00  0.00    +0.000 A 
ATOM     17  C   UNL     1      -6.450   5.314  -5.391  0.00  0.00    +0.000 A 
ENDBRANCH  10  15
ENDBRANCH   1  10
TORSDOF 4
