MODEL 1
REMARK VINA RESULT:      -4.2      0.000      0.000
REMARK  Name = *****
REMARK  3 active torsions:
REMARK  status: ('A' for Active; 'I' for Inactive)
REMARK    1  A    between atoms: C_4  and  C_7
REMARK    2  A    between atoms: C_7  and  C_8
REMARK    3  A    between atoms: C_9  and  C_10
REMARK                            x       y       z     vdW  Elec       q    Type
REMARK                         _______ _______ _______ _____ _____    ______ ____
ROOT
ATOM      1  C   UNL     1      89.066  70.164  86.912  0.00  0.00    +0.000 C 
ENDROOT
BRANCH   1   5
ATOM      2  C   UNL     1      85.161  71.966  87.276  0.00  0.00    +0.000 A 
ATOM      3  C   UNL     1      85.860  71.580  88.419  0.00  0.00    +0.000 A 
ATOM      4  C   UNL     1      87.124  70.999  88.304  0.00  0.00    +0.000 A 
ATOM      5  C   UNL     1      87.705  70.803  87.042  0.00  0.00    +0.000 A 
ATOM      6  C   UNL     1      86.989  71.189  85.899  0.00  0.00    +0.000 A 
ATOM      7  C   UNL     1      85.725  71.769  86.017  0.00  0.00    +0.000 A 
ENDBRANCH   1   5
BRANCH   1   8
ATOM      8  C   UNL     1      88.986  68.664  86.832  0.00  0.00    +0.000 C 
ATOM      9  C   UNL     1      89.973  67.896  86.344  0.00  0.00    +0.000 C 
BRANCH   9  10
ATOM     10  C   UNL     1      89.882  66.475  86.271  0.00  0.00    +0.000 A 
ATOM     11  C   UNL     1      89.005  65.582  86.869  0.00  0.00    +0.000 A 
ATOM     12  C   UNL     1      89.260  64.222  86.528  0.00  0.00    +0.000 A 
ATOM     13  C   UNL     1      90.329  64.100  85.673  0.00  0.00    +0.000 A 
ATOM     14  S   UNL     1      91.012  65.615  85.286  0.00  0.00    +0.000 S 
ENDBRANCH   9  10
ENDBRANCH   1   8
TORSDOF 3
ENDMDL
