MODEL 1
REMARK VINA RESULT:      -4.5      0.000      0.000
REMARK  Name = *****
REMARK  3 active torsions:
REMARK  status: ('A' for Active; 'I' for Inactive)
REMARK    1  A    between atoms: C_5  and  C_7
REMARK    2  A    between atoms: C_7  and  S_9
REMARK    3  A    between atoms: S_9  and  C_10
REMARK                            x       y       z     vdW  Elec       q    Type
REMARK                         _______ _______ _______ _____ _____    ______ ____
ROOT
ATOM      1  C   UNL     1     102.656 127.894  83.640  0.00  0.00    +0.000 C 
ATOM      2  O   UNL     1     103.032 127.578  84.763  0.00  0.00    +0.000 OA
ENDROOT
BRANCH   1   7
ATOM      3  C   UNL     1      99.106 129.102  83.329  0.00  0.00    +0.000 A 
ATOM      4  C   UNL     1      98.478 128.014  82.725  0.00  0.00    +0.000 A 
ATOM      5  C   UNL     1      99.216 126.876  82.401  0.00  0.00    +0.000 A 
ATOM      6  C   UNL     1     100.578 126.824  82.691  0.00  0.00    +0.000 A 
ATOM      7  C   UNL     1     101.214 127.897  83.316  0.00  0.00    +0.000 A 
ATOM      8  C   UNL     1     100.472 129.049  83.618  0.00  0.00    +0.000 A 
ATOM      9  F   UNL     1     101.259 125.731  82.317  0.00  0.00    +0.000 F 
ENDBRANCH   1   7
BRANCH   1  10
ATOM     10  S   UNL     1     103.789 128.186  82.325  0.00  0.00    +0.000 S 
BRANCH  10  11
ATOM     11  C   UNL     1     104.138 126.522  81.799  0.00  0.00    +0.000 A 
ATOM     12  C   UNL     1     104.551 125.546  82.712  0.00  0.00    +0.000 A 
ATOM     13  C   UNL     1     104.796 124.238  82.287  0.00  0.00    +0.000 A 
ATOM     14  C   UNL     1     104.619 123.902  80.946  0.00  0.00    +0.000 A 
ATOM     15  C   UNL     1     104.200 124.863  80.028  0.00  0.00    +0.000 A 
ATOM     16  C   UNL     1     103.956 126.171  80.456  0.00  0.00    +0.000 A 
ATOM     17 CL   UNL     1     104.919 122.291  80.422  0.00  0.00    +0.000 Cl
ENDBRANCH  10  11
ENDBRANCH   1  10
TORSDOF 3
ENDMDL
