MODEL 1
REMARK VINA RESULT:      -4.4      0.000      0.000
REMARK  Name = *****
REMARK  3 active torsions:
REMARK  status: ('A' for Active; 'I' for Inactive)
REMARK    1  A    between atoms: C_1  and  C_2
REMARK    2  A    between atoms: C_2  and  C_9
REMARK    3  A    between atoms: C_3  and  C_4
REMARK                            x       y       z     vdW  Elec       q    Type
REMARK                         _______ _______ _______ _____ _____    ______ ____
ROOT
ATOM      1  C   UNL     1     103.450 127.394  80.259  0.00  0.00    +0.000 C 
ATOM      2  C   UNL     1     103.239 126.137  81.059  0.00  0.00    +0.000 C 
ATOM      3  C   UNL     1     102.302 125.948  82.011  0.00  0.00    +0.000 C 
ENDROOT
BRANCH   2   4
ATOM      4  C   UNL     1     104.150 125.019  80.729  0.00  0.00    +0.000 A 
ATOM      5  C   UNL     1     105.053 125.118  79.662  0.00  0.00    +0.000 A 
ATOM      6  C   UNL     1     105.917 124.062  79.362  0.00  0.00    +0.000 A 
ATOM      7  C   UNL     1     105.887 122.898  80.127  0.00  0.00    +0.000 A 
ATOM      8  C   UNL     1     104.995 122.788  81.193  0.00  0.00    +0.000 A 
ATOM      9  C   UNL     1     104.132 123.845  81.494  0.00  0.00    +0.000 A 
ENDBRANCH   2   4
BRANCH   3  10
ATOM     10  C   UNL     1     101.349 126.896  82.507  0.00  0.00    +0.000 A 
ATOM     11  C   UNL     1      99.991 126.693  82.383  0.00  0.00    +0.000 A 
ATOM     12  S   UNL     1      99.076 127.962  83.079  0.00  0.00    +0.000 S 
ATOM     13  C   UNL     1     100.492 128.775  83.586  0.00  0.00    +0.000 A 
ATOM     14  C   UNL     1     101.636 128.096  83.227  0.00  0.00    +0.000 A 
ENDBRANCH   3  10
TORSDOF 2
ENDMDL
