MODEL 1
REMARK VINA RESULT:      -4.8      0.000      0.000
REMARK  Name = *****
REMARK  2 active torsions:
REMARK  status: ('A' for Active; 'I' for Inactive)
REMARK    1  A    between atoms: C_5  and  C_7
REMARK    2  A    between atoms: C_8  and  C_9
REMARK                            x       y       z     vdW  Elec       q    Type
REMARK                         _______ _______ _______ _____ _____    ______ ____
ROOT
ATOM      1  C   UNL     1      98.002 118.502  80.615  0.00  0.00    +0.000 C 
ATOM      2  C   UNL     1      97.541 117.573  80.008  0.00  0.00    +0.000 C 
ENDROOT
BRANCH   2   3
ATOM      3  C   UNL     1      96.994 116.466  79.288  0.00  0.00    +0.000 A 
ATOM      4  C   UNL     1      97.328 116.271  77.947  0.00  0.00    +0.000 A 
ATOM      5  C   UNL     1      96.789 115.188  77.261  0.00  0.00    +0.000 A 
ATOM      6  C   UNL     1      95.921 114.299  77.888  0.00  0.00    +0.000 A 
ATOM      7  C   UNL     1      95.586 114.494  79.226  0.00  0.00    +0.000 A 
ATOM      8  C   UNL     1      96.122 115.578  79.926  0.00  0.00    +0.000 A 
ATOM      9  F   UNL     1      97.109 114.998  75.975  0.00  0.00    +0.000 F 
ENDBRANCH   2   3
BRANCH   1  14
ATOM     10  C   UNL     1      96.527 120.676  82.463  0.00  0.00    +0.000 C 
ATOM     11  C   UNL     1      97.152 120.506  83.849  0.00  0.00    +0.000 C 
ATOM     12  C   UNL     1      98.335 119.583  83.854  0.00  0.00    +0.000 C 
ATOM     13  C   UNL     1      98.960 119.184  82.735  0.00  0.00    +0.000 C 
ATOM     14  C   UNL     1      98.574 119.645  81.352  0.00  0.00    +0.000 C 
ATOM     15  C   UNL     1      97.597 120.833  81.381  0.00  0.00    +0.000 C 
ENDBRANCH   1  14
TORSDOF 2
ENDMDL
