MODEL 1
REMARK VINA RESULT:      -4.9      0.000      0.000
REMARK  Name = *****
REMARK  4 active torsions:
REMARK  status: ('A' for Active; 'I' for Inactive)
REMARK    1  A    between atoms: C_1  and  C_2
REMARK    2  A    between atoms: C_5  and  C_8
REMARK    3  A    between atoms: C_8  and  C_10
REMARK    4  A    between atoms: C_10  and  C_11
REMARK                            x       y       z     vdW  Elec       q    Type
REMARK                         _______ _______ _______ _____ _____    ______ ____
ROOT
ATOM      1  C   UNL     1      88.779  70.039  86.529  0.00  0.00    +0.000 C 
ATOM      2  O   UNL     1      89.731  70.668  87.004  0.00  0.00    +0.000 OA
ENDROOT
BRANCH   1   7
ATOM      3  C   UNL     1      88.778  64.302  87.452  0.00  0.00    +0.000 C 
ATOM      4  C   UNL     1      88.750  65.780  87.201  0.00  0.00    +0.000 A 
ATOM      5  C   UNL     1      89.799  66.404  86.518  0.00  0.00    +0.000 A 
ATOM      6  C   UNL     1      89.783  67.785  86.312  0.00  0.00    +0.000 A 
ATOM      7  C   UNL     1      88.730  68.569  86.803  0.00  0.00    +0.000 A 
ATOM      8  C   UNL     1      87.680  67.948  87.486  0.00  0.00    +0.000 A 
ATOM      9  C   UNL     1      87.698  66.563  87.691  0.00  0.00    +0.000 A 
ENDBRANCH   1   7
BRANCH   1  10
ATOM     10  C   UNL     1      87.737  70.746  85.672  0.00  0.00    +0.000 C 
ATOM     11 CL   UNL     1      88.512  71.906  84.546  0.00  0.00    +0.000 Cl
BRANCH  10  12
ATOM     12  C   UNL     1      86.551  71.361  86.398  0.00  0.00    +0.000 A 
ATOM     13  C   UNL     1      86.421  71.348  87.797  0.00  0.00    +0.000 A 
ATOM     14  C   UNL     1      85.289  71.886  88.417  0.00  0.00    +0.000 A 
ATOM     15  C   UNL     1      84.262  72.433  87.654  0.00  0.00    +0.000 A 
ATOM     16  C   UNL     1      84.363  72.443  86.266  0.00  0.00    +0.000 A 
ATOM     17  C   UNL     1      85.493  71.909  85.646  0.00  0.00    +0.000 A 
ENDBRANCH  10  12
ENDBRANCH   1  10
TORSDOF 3
ENDMDL
