MODEL 1
REMARK VINA RESULT:      -4.7      0.000      0.000
REMARK  Name = *****
REMARK  3 active torsions:
REMARK  status: ('A' for Active; 'I' for Inactive)
REMARK    1  A    between atoms: C_1  and  C_2
REMARK    2  A    between atoms: C_2  and  C_11
REMARK    3  A    between atoms: C_4  and  C_5
REMARK                            x       y       z     vdW  Elec       q    Type
REMARK                         _______ _______ _______ _____ _____    ______ ____
ROOT
ATOM      1  C   UNL     1      99.539 126.757  82.374  0.00  0.00    +0.000 C 
ATOM      2  C   UNL     1     100.336 127.296  83.541  0.00  0.00    +0.000 C 
ATOM      3  C   UNL     1     101.024 126.274  84.422  0.00  0.00    +0.000 C 
ATOM      4  C   UNL     1     101.868 127.177  83.559  0.00  0.00    +0.000 C 
ENDROOT
BRANCH   4   5
ATOM      5  C   UNL     1     102.637 126.632  82.378  0.00  0.00    +0.000 A 
ATOM      6  C   UNL     1     102.988 125.272  82.307  0.00  0.00    +0.000 A 
ATOM      7  C   UNL     1     103.682 124.752  81.212  0.00  0.00    +0.000 A 
ATOM      8  C   UNL     1     104.032 125.584  80.153  0.00  0.00    +0.000 A 
ATOM      9  C   UNL     1     103.685 126.931  80.188  0.00  0.00    +0.000 A 
ATOM     10  C   UNL     1     102.991 127.445  81.288  0.00  0.00    +0.000 A 
ENDBRANCH   4   5
BRANCH   2  11
ATOM     11  C   UNL     1      99.722 128.529  84.195  0.00  0.00    +0.000 A 
ATOM     12  C   UNL     1      99.034 128.439  85.418  0.00  0.00    +0.000 A 
ATOM     13  C   UNL     1      98.480 129.567  86.028  0.00  0.00    +0.000 A 
ATOM     14  C   UNL     1      98.606 130.815  85.427  0.00  0.00    +0.000 A 
ATOM     15  C   UNL     1      99.288 130.935  84.219  0.00  0.00    +0.000 A 
ATOM     16  C   UNL     1      99.840 129.803  83.614  0.00  0.00    +0.000 A 
ENDBRANCH   2  11
TORSDOF 2
ENDMDL
