REMARK  Name = *****
REMARK  3 active torsions:
REMARK  status: ('A' for Active; 'I' for Inactive)
REMARK    1  A    between atoms: C_4  and  C_6
REMARK    2  A    between atoms: C_6  and  C_7
REMARK    3  A    between atoms: C_7  and  C_8
REMARK                            x       y       z     vdW  Elec       q    Type
REMARK                         _______ _______ _______ _____ _____    ______ ____
ROOT
ATOM      1  C   UNL     1      -1.878   1.842   0.117  0.00  0.00    +0.000 C 
ATOM      2  F   UNL     1      -2.647   1.577   1.218  0.00  0.00    +0.000 F 
ATOM      3  F   UNL     1      -1.398   3.109   0.320  0.00  0.00    +0.000 F 
ENDROOT
BRANCH   1   7
ATOM      4  C   UNL     1       0.387  -1.205   0.333  0.00  0.00    +0.000 C 
ATOM      5  C   UNL     1       1.414  -0.101   0.092  0.00  0.00    +0.000 C 
ATOM      6  C   UNL     1       0.584   1.138   0.155  0.00  0.00    +0.000 C 
ATOM      7  C   UNL     1      -0.729   0.868   0.090  0.00  0.00    +0.000 C 
ATOM      8  C   UNL     1      -0.974  -0.605  -0.020  0.00  0.00    +0.000 C 
ENDBRANCH   1   7
BRANCH   1   9
ATOM      9  C   UNL     1      -2.772   1.828  -1.161  0.00  0.00    +0.000 C 
ATOM     10  F   UNL     1      -1.982   2.004  -2.267  0.00  0.00    +0.000 F 
ATOM     11  F   UNL     1      -3.327   0.586  -1.320  0.00  0.00    +0.000 F 
BRANCH   9  12
ATOM     12  C   UNL     1      -3.877   2.851  -1.165  0.00  0.00    +0.000 C 
ATOM     13  C   UNL     1      -4.066   3.860  -2.030  0.00  0.00    +0.000 C 
ATOM     14  C   UNL     1      -5.277   4.664  -1.695  0.00  0.00    +0.000 C 
ATOM     15  C   UNL     1      -6.003   3.775  -0.689  0.00  0.00    +0.000 C 
ATOM     16  C   UNL     1      -4.948   2.828  -0.118  0.00  0.00    +0.000 C 
ENDBRANCH   9  12
ENDBRANCH   1   9
TORSDOF 3
