MODEL 1
REMARK VINA RESULT:      -4.1      0.000      0.000
REMARK  Name = *****
REMARK  4 active torsions:
REMARK  status: ('A' for Active; 'I' for Inactive)
REMARK    1  A    between atoms: C_5  and  C_7
REMARK    2  A    between atoms: C_7  and  C_8
REMARK    3  A    between atoms: C_7  and  S_10
REMARK    4  A    between atoms: S_10  and  C_11
REMARK                            x       y       z     vdW  Elec       q    Type
REMARK                         _______ _______ _______ _____ _____    ______ ____
ROOT
ATOM      1  C   UNL     1     103.717 128.704  82.710  0.00  0.00    +0.000 C 
ENDROOT
BRANCH   1   6
ATOM      2  C   UNL     1     104.029 125.321  81.736  0.00  0.00    +0.000 C 
ATOM      3  C   UNL     1     103.534 125.785  80.364  0.00  0.00    +0.000 C 
ATOM      4  C   UNL     1     103.428 127.276  80.500  0.00  0.00    +0.000 C 
ATOM      5  C   UNL     1     104.624 128.159  80.276  0.00  0.00    +0.000 C 
ATOM      6  C   UNL     1     104.259 127.718  81.684  0.00  0.00    +0.000 C 
ATOM      7  C   UNL     1     104.914 126.464  82.244  0.00  0.00    +0.000 C 
ENDBRANCH   1   6
BRANCH   1   8
ATOM      8  C   UNL     1     104.761 129.590  83.359  0.00  0.00    +0.000 C 
ATOM      9  O   UNL     1     105.213 130.605  82.830  0.00  0.00    +0.000 OA
ENDBRANCH   1   8
BRANCH   1  10
ATOM     10  S   UNL     1     102.893 127.705  84.021  0.00  0.00    +0.000 S 
BRANCH  10  11
ATOM     11  C   UNL     1     101.200 127.779  83.466  0.00  0.00    +0.000 A 
ATOM     12  C   UNL     1     100.597 126.697  82.820  0.00  0.00    +0.000 A 
ATOM     13  C   UNL     1      99.267 126.781  82.399  0.00  0.00    +0.000 A 
ATOM     14  C   UNL     1      98.534 127.943  82.629  0.00  0.00    +0.000 A 
ATOM     15  C   UNL     1      99.125 129.020  83.288  0.00  0.00    +0.000 A 
ATOM     16  C   UNL     1     100.454 128.937  83.710  0.00  0.00    +0.000 A 
ENDBRANCH  10  11
ENDBRANCH   1  10
TORSDOF 4
ENDMDL
