MODEL 1
REMARK VINA RESULT:      -4.0      0.000      0.000
REMARK  Name = *****
REMARK  5 active torsions:
REMARK  status: ('A' for Active; 'I' for Inactive)
REMARK    1  A    between atoms: C_1  and  C_2
REMARK    2  A    between atoms: C_2  and  C_3
REMARK    3  A    between atoms: C_2  and  C_10
REMARK    4  A    between atoms: C_3  and  C_4
REMARK    5  A    between atoms: C_4  and  C_5
REMARK                            x       y       z     vdW  Elec       q    Type
REMARK                         _______ _______ _______ _____ _____    ______ ____
ROOT
ATOM      1  C   UNL     1      88.296  71.397  89.903  0.00  0.00    +0.000 C 
ATOM      2  C   UNL     1      87.580  70.126  89.435  0.00  0.00    +0.000 C 
ENDROOT
BRANCH   2   3
ATOM      3  C   UNL     1      88.235  69.577  88.198  0.00  0.00    +0.000 C 
ATOM      4  C   UNL     1      89.298  70.086  87.548  0.00  0.00    +0.000 C 
ATOM      5  C   UNL     1      89.610  69.257  86.412  0.00  0.00    +0.000 C 
ATOM      6  C   UNL     1      88.745  68.235  86.355  0.00  0.00    +0.000 C 
ATOM      7  C   UNL     1      87.768  68.329  87.491  0.00  0.00    +0.000 C 
ENDBRANCH   2   3
BRANCH   2   8
ATOM      8  C   UNL     1      86.071  70.354  89.202  0.00  0.00    +0.000 C 
BRANCH   8   9
ATOM      9  C   UNL     1      85.762  71.694  88.587  0.00  0.00    +0.000 C 
BRANCH   9  10
ATOM     10  C   UNL     1      85.357  71.918  87.331  0.00  0.00    +0.000 C 
ATOM     11  C   UNL     1      84.120  72.532  86.892  0.00  0.00    +0.000 C 
ATOM     12  C   UNL     1      84.153  72.554  85.547  0.00  0.00    +0.000 C 
ATOM     13  C   UNL     1      85.398  71.965  85.088  0.00  0.00    +0.000 C 
ATOM     14  C   UNL     1      86.127  71.583  86.149  0.00  0.00    +0.000 C 
ENDBRANCH   9  10
ENDBRANCH   8   9
ENDBRANCH   2   8
TORSDOF 4
ENDMDL
