MODEL 1
REMARK VINA RESULT:      -4.8      0.000      0.000
REMARK  Name = *****
REMARK  4 active torsions:
REMARK  status: ('A' for Active; 'I' for Inactive)
REMARK    1  A    between atoms: C_1  and  C_2
REMARK    2  A    between atoms: C_3  and  C_17
REMARK    3  A    between atoms: C_5  and  N_8
REMARK    4  A    between atoms: C_9  and  C_10
REMARK                            x       y       z     vdW  Elec       q    Type
REMARK                         _______ _______ _______ _____ _____    ______ ____
ROOT
ATOM      1  N   UNL     1     101.682 125.923  82.252  0.00  0.00    +0.000 NA
ATOM      2  C   UNL     1     102.966 125.863  82.407  0.00  0.00    +0.000 C 
ENDROOT
BRANCH   1   7
ATOM      3  C   UNL     1      99.132 130.622  84.295  0.00  0.00    +0.000 C 
ATOM      4  C   UNL     1      99.828 129.400  83.761  0.00  0.00    +0.000 A 
ATOM      5  C   UNL     1     101.219 129.225  83.900  0.00  0.00    +0.000 A 
ATOM      6  C   UNL     1     101.819 128.062  83.389  0.00  0.00    +0.000 A 
ATOM      7  C   UNL     1     101.063 127.081  82.745  0.00  0.00    +0.000 A 
ATOM      8  C   UNL     1      99.684 127.248  82.633  0.00  0.00    +0.000 A 
ATOM      9  C   UNL     1      99.071 128.399  83.131  0.00  0.00    +0.000 A 
ATOM     10  C   UNL     1     102.076 130.254  84.584  0.00  0.00    +0.000 C 
ENDBRANCH   1   7
BRANCH   2  11
ATOM     11  C   UNL     1     103.754 124.705  81.940  0.00  0.00    +0.000 A 
ATOM     12  C   UNL     1     104.145 124.600  80.599  0.00  0.00    +0.000 A 
ATOM     13  C   UNL     1     104.889 123.497  80.179  0.00  0.00    +0.000 A 
ATOM     14  C   UNL     1     105.235 122.513  81.099  0.00  0.00    +0.000 A 
ATOM     15  C   UNL     1     104.852 122.610  82.434  0.00  0.00    +0.000 A 
ATOM     16  C   UNL     1     104.107 123.711  82.859  0.00  0.00    +0.000 A 
ATOM     17  F   UNL     1     105.950 121.455  80.695  0.00  0.00    +0.000 F 
ENDBRANCH   2  11
TORSDOF 2
ENDMDL
