REMARK  Name = *****
REMARK  2 active torsions:
REMARK  status: ('A' for Active; 'I' for Inactive)
REMARK    1  A    between atoms: C_1  and  C_2
REMARK    2  A    between atoms: C_5  and  C_6
REMARK                            x       y       z     vdW  Elec       q    Type
REMARK                         _______ _______ _______ _____ _____    ______ ____
ROOT
ATOM      1  C   UNL     1       0.141   2.319  -0.688  0.00  0.00    +0.000 A 
ATOM      2  C   UNL     1      -0.208   2.510  -2.041  0.00  0.00    +0.000 A 
ATOM      3  C   UNL     1      -0.562   3.767  -2.568  0.00  0.00    +0.000 A 
ATOM      4  C   UNL     1      -0.914   3.927  -3.919  0.00  0.00    +0.000 A 
ATOM      5  C   UNL     1      -1.262   5.181  -4.424  0.00  0.00    +0.000 A 
ATOM      6  C   UNL     1      -1.263   6.292  -3.586  0.00  0.00    +0.000 A 
ATOM      7  C   UNL     1      -0.915   6.150  -2.242  0.00  0.00    +0.000 A 
ATOM      8  C   UNL     1      -0.563   4.894  -1.721  0.00  0.00    +0.000 A 
ATOM      9  C   UNL     1      -0.208   4.731  -0.377  0.00  0.00    +0.000 A 
ATOM     10  C   UNL     1       0.138   3.470   0.120  0.00  0.00    +0.000 A 
ENDROOT
BRANCH   1  15
ATOM     11  C   UNL     1      -1.744   0.647   1.240  0.00  0.00    +0.000 C 
ATOM     12  C   UNL     1      -0.264   0.311   1.112  0.00  0.00    +0.000 C 
ATOM     13  C   UNL     1       0.033  -1.088   0.516  0.00  0.00    +0.000 C 
ATOM     14  C   UNL     1       0.192  -0.404  -0.855  0.00  0.00    +0.000 C 
ATOM     15  C   UNL     1       0.548   0.904  -0.093  0.00  0.00    +0.000 C 
ENDBRANCH   1  15
TORSDOF 1
