REMARK  Name = *****
REMARK  4 active torsions:
REMARK  status: ('A' for Active; 'I' for Inactive)
REMARK    1  A    between atoms: C_4  and  C_7
REMARK    2  A    between atoms: C_7  and  O_8
REMARK    3  A    between atoms: O_8  and  N_9
REMARK    4  A    between atoms: C_10  and  C_11
REMARK                            x       y       z     vdW  Elec       q    Type
REMARK                         _______ _______ _______ _____ _____    ______ ____
ROOT
ATOM      1  N   UNL     1      -4.965  -0.788   0.009  0.00  0.00    +0.000 NA
ATOM      2  C   UNL     1      -5.368  -2.021   0.115  0.00  0.00    +0.000 C 
ATOM      3 CL   UNL     1      -6.863  -2.197   0.988  0.00  0.00    +0.000 Cl
ENDROOT
BRANCH   2   4
ATOM      4  C   UNL     1      -4.684  -3.229  -0.418  0.00  0.00    +0.000 A 
ATOM      5  C   UNL     1      -3.320  -3.436  -0.184  0.00  0.00    +0.000 A 
ATOM      6  C   UNL     1      -2.697  -4.589  -0.664  0.00  0.00    +0.000 A 
ATOM      7  C   UNL     1      -3.436  -5.539  -1.369  0.00  0.00    +0.000 A 
ATOM      8  C   UNL     1      -4.798  -5.341  -1.595  0.00  0.00    +0.000 A 
ATOM      9  C   UNL     1      -5.426  -4.189  -1.117  0.00  0.00    +0.000 A 
ENDBRANCH   2   4
BRANCH   1  10
ATOM     10  O   UNL     1      -3.800  -0.668  -0.765  0.00  0.00    +0.000 OA
BRANCH  10  11
ATOM     11  C   UNL     1      -3.444   0.712  -0.855  0.00  0.00    +0.000 C 
BRANCH  11  15
ATOM     12  C   UNL     1       0.206   0.987  -3.132  0.00  0.00    +0.000 A 
ATOM     13  C   UNL     1      -1.014   0.824  -3.785  0.00  0.00    +0.000 A 
ATOM     14  C   UNL     1      -2.196   0.739  -3.047  0.00  0.00    +0.000 A 
ATOM     15  C   UNL     1      -2.169   0.823  -1.648  0.00  0.00    +0.000 A 
ATOM     16  C   UNL     1      -0.934   0.974  -1.001  0.00  0.00    +0.000 A 
ATOM     17  C   UNL     1       0.246   1.060  -1.740  0.00  0.00    +0.000 A 
ENDBRANCH  11  15
ENDBRANCH  10  11
ENDBRANCH   1  10
TORSDOF 4
