REMARK  Name = *****
REMARK  4 active torsions:
REMARK  status: ('A' for Active; 'I' for Inactive)
REMARK    1  A    between atoms: C_3  and  S_8
REMARK    2  A    between atoms: S_8  and  C_9
REMARK    3  A    between atoms: C_9  and  S_10
REMARK    4  A    between atoms: S_10  and  C_11
REMARK                            x       y       z     vdW  Elec       q    Type
REMARK                         _______ _______ _______ _____ _____    ______ ____
ROOT
ATOM      1  C   UNL     1      -4.483   1.544   0.004  0.00  0.00    +0.000 C 
ENDROOT
BRANCH   1   2
ATOM      2  S   UNL     1      -3.898  -0.157  -0.281  0.00  0.00    +0.000 S 
BRANCH   2   5
ATOM      3  C   UNL     1      -0.032  -0.723   0.798  0.00  0.00    +0.000 A 
ATOM      4  C   UNL     1      -1.415  -0.847   0.656  0.00  0.00    +0.000 A 
ATOM      5  C   UNL     1      -2.134   0.066  -0.128  0.00  0.00    +0.000 A 
ATOM      6  C   UNL     1      -1.445   1.090  -0.790  0.00  0.00    +0.000 A 
ATOM      7  C   UNL     1      -0.061   1.215  -0.646  0.00  0.00    +0.000 A 
ATOM      8  C   UNL     1       0.632   0.310   0.149  0.00  0.00    +0.000 A 
ATOM      9  F   UNL     1       1.959   0.430   0.283  0.00  0.00    +0.000 F 
ENDBRANCH   2   5
ENDBRANCH   1   2
BRANCH   1  10
ATOM     10  S   UNL     1      -6.282   1.543   0.287  0.00  0.00    +0.000 S 
BRANCH  10  11
ATOM     11  C   UNL     1      -6.646   3.283   0.137  0.00  0.00    +0.000 A 
ATOM     12  C   UNL     1      -7.743   3.667  -0.647  0.00  0.00    +0.000 A 
ATOM     13  C   UNL     1      -8.076   5.016  -0.787  0.00  0.00    +0.000 A 
ATOM     14  C   UNL     1      -7.317   5.979  -0.135  0.00  0.00    +0.000 A 
ATOM     15  C   UNL     1      -6.235   5.617   0.659  0.00  0.00    +0.000 A 
ATOM     16  C   UNL     1      -5.902   4.267   0.801  0.00  0.00    +0.000 A 
ATOM     17  F   UNL     1      -7.635   7.272  -0.268  0.00  0.00    +0.000 F 
ENDBRANCH  10  11
ENDBRANCH   1  10
TORSDOF 4
