MODEL 1
REMARK VINA RESULT:      -3.8      0.000      0.000
REMARK  Name = *****
REMARK  4 active torsions:
REMARK  status: ('A' for Active; 'I' for Inactive)
REMARK    1  A    between atoms: C_4  and  N_7
REMARK    2  A    between atoms: N_7  and  C_8
REMARK    3  A    between atoms: C_8  and  C_9
REMARK    4  A    between atoms: C_10  and  S_14
REMARK                            x       y       z     vdW  Elec       q    Type
REMARK                         _______ _______ _______ _____ _____    ______ ____
ROOT
ATOM      1  C   UNL     1     102.607 125.580  82.621  0.00  0.00    +0.000 C 
ENDROOT
BRANCH   1   2
ATOM      2  C   UNL     1     103.599 124.986  81.736  0.00  0.00    +0.000 A 
ATOM      3  C   UNL     1     104.412 123.890  81.999  0.00  0.00    +0.000 A 
ATOM      4  S   UNL     1     105.444 123.517  80.680  0.00  0.00    +0.000 S 
ATOM      5  C   UNL     1     104.829 124.797  79.742  0.00  0.00    +0.000 A 
ATOM      6  C   UNL     1     103.856 125.500  80.414  0.00  0.00    +0.000 A 
BRANCH   3   7
ATOM      7  S   UNL     1     104.496 122.902  83.456  0.00  0.00    +0.000 S 
ATOM      8  H   UNL     1     104.090 121.636  83.169  0.00  0.00    +0.000 HD
ENDBRANCH   3   7
ENDBRANCH   1   2
BRANCH   1   9
ATOM      9  N   UNL     1     101.467 125.974  82.171  0.00  0.00    +0.000 NA
BRANCH   9  13
ATOM     10  C   UNL     1      99.370 129.473  83.425  0.00  0.00    +0.000 C 
ATOM     11  C   UNL     1      98.572 128.180  83.285  0.00  0.00    +0.000 C 
ATOM     12  C   UNL     1      99.334 127.132  82.479  0.00  0.00    +0.000 C 
ATOM     13  C   UNL     1     100.723 126.867  83.069  0.00  0.00    +0.000 C 
ATOM     14  C   UNL     1     101.520 128.169  83.198  0.00  0.00    +0.000 C 
ATOM     15  C   UNL     1     100.758 129.217  84.006  0.00  0.00    +0.000 C 
ENDBRANCH   9  13
ENDBRANCH   1   9
TORSDOF 4
ENDMDL
