MODEL 1
REMARK VINA RESULT:      -4.8      0.000      0.000
REMARK  Name = *****
REMARK  4 active torsions:
REMARK  status: ('A' for Active; 'I' for Inactive)
REMARK    1  A    between atoms: C_4  and  C_7
REMARK    2  A    between atoms: C_7  and  N_8
REMARK    3  A    between atoms: N_8  and  C_9
REMARK    4  A    between atoms: N_8  and  N_17
REMARK                            x       y       z     vdW  Elec       q    Type
REMARK                         _______ _______ _______ _____ _____    ______ ____
ROOT
ATOM      1  N   UNL     1      88.822  70.108  87.143  0.00  0.00    +0.000 N 
ENDROOT
BRANCH   1   2
ATOM      2  C   UNL     1      88.873  68.697  87.043  0.00  0.00    +0.000 A 
ATOM      3  C   UNL     1      89.933  68.037  86.396  0.00  0.00    +0.000 A 
ATOM      4  C   UNL     1      89.964  66.641  86.275  0.00  0.00    +0.000 A 
ATOM      5  C   UNL     1      88.921  65.872  86.794  0.00  0.00    +0.000 A 
ATOM      6  C   UNL     1      87.852  66.505  87.428  0.00  0.00    +0.000 A 
ATOM      7  C   UNL     1      87.830  67.899  87.545  0.00  0.00    +0.000 A 
ATOM      8 CL   UNL     1      88.887  64.149  86.682  0.00  0.00    +0.000 Cl
ATOM      9 CL   UNL     1      91.322  65.933  85.472  0.00  0.00    +0.000 Cl
ENDBRANCH   1   2
BRANCH   1  10
ATOM     10  N   UNL     1      90.005  70.851  86.884  0.00  0.00    +0.000 NA
ATOM     11  H   UNL     1      89.756  71.793  86.581  0.00  0.00    +0.000 HD
ATOM     12  H   UNL     1      90.543  70.389  86.151  0.00  0.00    +0.000 HD
ENDBRANCH   1  10
BRANCH   1  13
ATOM     13  C   UNL     1      87.841  70.672  88.104  0.00  0.00    +0.000 C 
BRANCH  13  17
ATOM     14  C   UNL     1      84.321  72.433  86.292  0.00  0.00    +0.000 A 
ATOM     15  C   UNL     1      85.350  71.974  85.473  0.00  0.00    +0.000 A 
ATOM     16  C   UNL     1      86.496  71.407  86.039  0.00  0.00    +0.000 A 
ATOM     17  C   UNL     1      86.631  71.297  87.431  0.00  0.00    +0.000 A 
ATOM     18  C   UNL     1      85.580  71.762  88.240  0.00  0.00    +0.000 A 
ATOM     19  C   UNL     1      84.436  72.327  87.675  0.00  0.00    +0.000 A 
ENDBRANCH  13  17
ENDBRANCH   1  13
TORSDOF 4
ENDMDL
