MODEL 1
REMARK VINA RESULT:      -4.6      0.000      0.000
REMARK  Name = *****
REMARK  3 active torsions:
REMARK  status: ('A' for Active; 'I' for Inactive)
REMARK    1  A    between atoms: C_4  and  C_7
REMARK    2  A    between atoms: C_7  and  S_8
REMARK    3  A    between atoms: S_8  and  C_10
REMARK                            x       y       z     vdW  Elec       q    Type
REMARK                         _______ _______ _______ _____ _____    ______ ____
ROOT
ATOM      1  S   UNL     1      88.522  70.273  86.167  0.00  0.00    +0.000 S 
ATOM      2  O   UNL     1      89.897  70.876  86.229  0.00  0.00    +0.000 OA
ENDROOT
BRANCH   1   3
ATOM      3  C   UNL     1      88.757  68.503  86.454  0.00  0.00    +0.000 A 
ATOM      4  C   UNL     1      89.866  67.854  85.900  0.00  0.00    +0.000 A 
ATOM      5  C   UNL     1      90.051  66.490  86.122  0.00  0.00    +0.000 A 
ATOM      6  C   UNL     1      89.147  65.765  86.896  0.00  0.00    +0.000 A 
ATOM      7  C   UNL     1      88.047  66.412  87.459  0.00  0.00    +0.000 A 
ATOM      8  C   UNL     1      87.854  67.777  87.240  0.00  0.00    +0.000 A 
ATOM      9 CL   UNL     1      91.410  65.693  85.429  0.00  0.00    +0.000 Cl
ENDBRANCH   1   3
BRANCH   1  10
ATOM     10  C   UNL     1      87.681  70.645  87.747  0.00  0.00    +0.000 C 
BRANCH  10  14
ATOM     11  C   UNL     1      83.903  72.627  87.118  0.00  0.00    +0.000 A 
ATOM     12  C   UNL     1      84.333  72.345  88.412  0.00  0.00    +0.000 A 
ATOM     13  C   UNL     1      85.557  71.704  88.620  0.00  0.00    +0.000 A 
ATOM     14  C   UNL     1      86.364  71.344  87.531  0.00  0.00    +0.000 A 
ATOM     15  C   UNL     1      85.916  71.626  86.232  0.00  0.00    +0.000 A 
ATOM     16  C   UNL     1      84.693  72.267  86.028  0.00  0.00    +0.000 A 
ENDBRANCH  10  14
ENDBRANCH   1  10
TORSDOF 3
ENDMDL
