MODEL 1
REMARK VINA RESULT:      -4.3      0.000      0.000
REMARK  Name = *****
REMARK  4 active torsions:
REMARK  status: ('A' for Active; 'I' for Inactive)
REMARK    1  A    between atoms: C_1  and  C_2
REMARK    2  A    between atoms: C_2  and  C_3
REMARK    3  A    between atoms: C_2  and  O_9
REMARK    4  A    between atoms: O_9  and  C_10
REMARK                            x       y       z     vdW  Elec       q    Type
REMARK                         _______ _______ _______ _____ _____    ______ ____
ROOT
ATOM      1  C   UNL     1     103.342 128.750  83.174  0.00  0.00    +0.000 C 
ATOM      2  C   UNL     1     102.604 127.441  82.904  0.00  0.00    +0.000 C 
ENDROOT
BRANCH   2   3
ATOM      3  C   UNL     1     101.103 127.653  82.940  0.00  0.00    +0.000 A 
ATOM      4  C   UNL     1     100.542 128.796  83.531  0.00  0.00    +0.000 A 
ATOM      5  C   UNL     1      99.158 128.968  83.580  0.00  0.00    +0.000 A 
ATOM      6  C   UNL     1      98.315 127.996  83.044  0.00  0.00    +0.000 A 
ATOM      7  C   UNL     1      98.856 126.853  82.459  0.00  0.00    +0.000 A 
ATOM      8  C   UNL     1     100.241 126.681  82.409  0.00  0.00    +0.000 A 
ENDBRANCH   2   3
BRANCH   2   9
ATOM      9  O   UNL     1     102.975 126.950  81.612  0.00  0.00    +0.000 OA
BRANCH   9  10
ATOM     10  C   UNL     1     103.949 125.904  81.633  0.00  0.00    +0.000 C 
ATOM     11  C   UNL     1     103.998 125.300  80.226  0.00  0.00    +0.000 C 
ATOM     12  C   UNL     1     104.929 124.095  80.157  0.00  0.00    +0.000 C 
ATOM     13  C   UNL     1     104.554 123.039  81.193  0.00  0.00    +0.000 C 
ATOM     14  C   UNL     1     104.488 123.627  82.599  0.00  0.00    +0.000 C 
ATOM     15  C   UNL     1     103.558 124.835  82.660  0.00  0.00    +0.000 C 
ENDBRANCH   9  10
ENDBRANCH   2   9
TORSDOF 3
ENDMDL
