MODEL 1
REMARK VINA RESULT:      -4.5      0.000      0.000
REMARK  Name = *****
REMARK  4 active torsions:
REMARK  status: ('A' for Active; 'I' for Inactive)
REMARK    1  A    between atoms: C_4  and  C_7
REMARK    2  A    between atoms: C_7  and  C_8
REMARK    3  A    between atoms: C_7  and  C_10
REMARK    4  A    between atoms: C_10  and  C_12
REMARK                            x       y       z     vdW  Elec       q    Type
REMARK                         _______ _______ _______ _____ _____    ______ ____
ROOT
ATOM      1  C   UNL     1     102.901 125.654  82.013  0.00  0.00    +0.000 C 
ENDROOT
BRANCH   1   5
ATOM      2  C   UNL     1     105.173 129.191  80.961  0.00  0.00    +0.000 A 
ATOM      3  C   UNL     1     105.296 128.630  82.230  0.00  0.00    +0.000 A 
ATOM      4  C   UNL     1     104.562 127.493  82.567  0.00  0.00    +0.000 A 
ATOM      5  C   UNL     1     103.697 126.898  81.635  0.00  0.00    +0.000 A 
ATOM      6  C   UNL     1     103.574 127.481  80.363  0.00  0.00    +0.000 A 
ATOM      7  C   UNL     1     104.311 128.619  80.030  0.00  0.00    +0.000 A 
ENDBRANCH   1   5
BRANCH   1   8
ATOM      8  C   UNL     1     103.817 124.456  82.293  0.00  0.00    +0.000 C 
ATOM      9 BR   UNL     1     104.674 123.824  80.652  0.00  0.00    +0.000 Br
ENDBRANCH   1   8
BRANCH   1  10
ATOM     10  C   UNL     1     102.021 125.909  83.240  0.00  0.00    +0.000 C 
ATOM     11  O   UNL     1     102.167 125.264  84.282  0.00  0.00    +0.000 OA
BRANCH  10  12
ATOM     12  C   UNL     1     100.969 126.977  83.204  0.00  0.00    +0.000 A 
ATOM     13  C   UNL     1     101.133 128.231  83.803  0.00  0.00    +0.000 A 
ATOM     14  C   UNL     1     100.112 129.185  83.733  0.00  0.00    +0.000 A 
ATOM     15  C   UNL     1      98.924 128.895  83.065  0.00  0.00    +0.000 A 
ATOM     16  C   UNL     1      98.752 127.651  82.462  0.00  0.00    +0.000 A 
ATOM     17  C   UNL     1      99.770 126.697  82.529  0.00  0.00    +0.000 A 
ENDBRANCH  10  12
ENDBRANCH   1  10
TORSDOF 4
ENDMDL
