MODEL 1
REMARK VINA RESULT:      -5.1      0.000      0.000
REMARK  Name = *****
REMARK  3 active torsions:
REMARK  status: ('A' for Active; 'I' for Inactive)
REMARK    1  A    between atoms: C_1  and  C_2
REMARK    2  A    between atoms: C_3  and  C_10
REMARK    3  A    between atoms: C_10  and  C_11
REMARK                            x       y       z     vdW  Elec       q    Type
REMARK                         _______ _______ _______ _____ _____    ______ ____
ROOT
ATOM      1  C   UNL     1      90.052  70.811  85.052  0.00  0.00    +0.000 C 
ATOM      2  C   UNL     1      89.698  70.338  86.451  0.00  0.00    +0.000 C 
ATOM      3  C   UNL     1      88.213  70.467  87.008  0.00  0.00    +0.000 C 
ATOM      4  C   UNL     1      88.211  68.952  87.023  0.00  0.00    +0.000 A 
ATOM      5  C   UNL     1      87.449  67.845  87.322  0.00  0.00    +0.000 A 
ATOM      6  C   UNL     1      88.032  66.592  87.119  0.00  0.00    +0.000 A 
ATOM      7  C   UNL     1      89.348  66.483  86.631  0.00  0.00    +0.000 A 
ATOM      8  C   UNL     1      90.097  67.627  86.339  0.00  0.00    +0.000 A 
ATOM      9  C   UNL     1      89.494  68.846  86.547  0.00  0.00    +0.000 A 
ENDROOT
BRANCH   3  10
ATOM     10  C   UNL     1      87.083  71.051  86.159  0.00  0.00    +0.000 C 
BRANCH  10  11
ATOM     11  C   UNL     1      85.961  71.583  87.020  0.00  0.00    +0.000 A 
ATOM     12  C   UNL     1      86.062  71.533  88.418  0.00  0.00    +0.000 A 
ATOM     13  C   UNL     1      85.038  72.031  89.225  0.00  0.00    +0.000 A 
ATOM     14  C   UNL     1      83.904  72.594  88.644  0.00  0.00    +0.000 A 
ATOM     15  C   UNL     1      83.798  72.666  87.257  0.00  0.00    +0.000 A 
ATOM     16  C   UNL     1      84.823  72.169  86.449  0.00  0.00    +0.000 A 
ENDBRANCH  10  11
ENDBRANCH   3  10
TORSDOF 2
ENDMDL
