MODEL 1
REMARK VINA RESULT:      -4.1      0.000      0.000
REMARK  Name = *****
REMARK  5 active torsions:
REMARK  status: ('A' for Active; 'I' for Inactive)
REMARK    1  A    between atoms: C_1  and  C_2
REMARK    2  A    between atoms: C_2  and  C_16
REMARK    3  A    between atoms: C_6  and  C_8
REMARK    4  A    between atoms: C_8  and  C_9
REMARK    5  A    between atoms: C_9  and  C_10
REMARK                            x       y       z     vdW  Elec       q    Type
REMARK                         _______ _______ _______ _____ _____    ______ ____
ROOT
ATOM      1  C   UNL     1     103.908 127.621  80.183  0.00  0.00    +0.000 C 
ATOM      2  C   UNL     1     105.221 126.915  80.553  0.00  0.00    +0.000 C 
ATOM      3  C   UNL     1     105.381 125.569  79.824  0.00  0.00    +0.000 C 
ATOM      4  C   UNL     1     104.410 124.467  80.219  0.00  0.00    +0.000 C 
ATOM      5  S   UNL     1     104.714 123.871  81.899  0.00  0.00    +0.000 S 
ATOM      6  C   UNL     1     104.335 125.373  82.845  0.00  0.00    +0.000 C 
ATOM      7  S   UNL     1     105.399 126.780  82.382  0.00  0.00    +0.000 S 
ATOM      8  C   UNL     1     106.378 127.836  80.104  0.00  0.00    +0.000 C 
ENDROOT
BRANCH   6   9
ATOM      9  C   UNL     1     102.841 125.720  82.916  0.00  0.00    +0.000 C 
BRANCH   9  10
ATOM     10  C   UNL     1     102.597 127.175  83.344  0.00  0.00    +0.000 C 
BRANCH  10  11
ATOM     11  C   UNL     1     101.147 127.559  83.181  0.00  0.00    +0.000 A 
ATOM     12  C   UNL     1     100.251 126.691  82.542  0.00  0.00    +0.000 A 
ATOM     13  C   UNL     1      98.915 127.055  82.372  0.00  0.00    +0.000 A 
ATOM     14  C   UNL     1      98.462 128.289  82.834  0.00  0.00    +0.000 A 
ATOM     15  C   UNL     1      99.347 129.163  83.464  0.00  0.00    +0.000 A 
ATOM     16  C   UNL     1     100.685 128.801  83.635  0.00  0.00    +0.000 A 
ENDBRANCH  10  11
ENDBRANCH   9  10
ENDBRANCH   6   9
TORSDOF 3
ENDMDL
