MODEL 1
REMARK VINA RESULT:      -5.4      0.000      0.000
REMARK  Name = *****
REMARK  3 active torsions:
REMARK  status: ('A' for Active; 'I' for Inactive)
REMARK    1  A    between atoms: C_1  and  C_2
REMARK    2  A    between atoms: C_4  and  C_18
REMARK    3  A    between atoms: C_5  and  C_8
REMARK                            x       y       z     vdW  Elec       q    Type
REMARK                         _______ _______ _______ _____ _____    ______ ____
ROOT
ATOM      1  C   UNL     1     102.872 125.722  81.968  0.00  0.00    +0.000 A 
ATOM      2  C   UNL     1     103.419 124.731  82.772  0.00  0.00    +0.000 A 
ATOM      3  C   UNL     1     104.246 123.758  82.199  0.00  0.00    +0.000 A 
ATOM      4  C   UNL     1     104.822 122.731  82.968  0.00  0.00    +0.000 A 
ATOM      5  C   UNL     1     105.642 121.775  82.370  0.00  0.00    +0.000 A 
ATOM      6  C   UNL     1     105.891 121.840  81.004  0.00  0.00    +0.000 A 
ATOM      7  C   UNL     1     105.316 122.860  80.241  0.00  0.00    +0.000 A 
ATOM      8  C   UNL     1     104.496 123.824  80.817  0.00  0.00    +0.000 A 
ATOM      9  N   UNL     1     103.950 124.797  80.074  0.00  0.00    +0.000 NA
ATOM     10  N   UNL     1     103.137 125.753  80.646  0.00  0.00    +0.000 NA
ENDROOT
BRANCH   1  15
ATOM     11  C   UNL     1      99.295 129.810  84.023  0.00  0.00    +0.000 C 
ATOM     12  C   UNL     1     100.228 128.752  83.514  0.00  0.00    +0.000 A 
ATOM     13  C   UNL     1     101.612 128.955  83.536  0.00  0.00    +0.000 A 
ATOM     14  C   UNL     1     102.504 127.988  83.032  0.00  0.00    +0.000 A 
ATOM     15  C   UNL     1     102.000 126.780  82.496  0.00  0.00    +0.000 A 
ATOM     16  C   UNL     1     100.602 126.600  82.469  0.00  0.00    +0.000 A 
ATOM     17  C   UNL     1      99.729 127.572  82.962  0.00  0.00    +0.000 A 
ATOM     18  C   UNL     1     103.983 128.268  83.106  0.00  0.00    +0.000 C 
ENDBRANCH   1  15
TORSDOF 1
ENDMDL
