REMARK  Name = *****
REMARK  3 active torsions:
REMARK  status: ('A' for Active; 'I' for Inactive)
REMARK    1  A    between atoms: C_7  and  C_9
REMARK    2  A    between atoms: C_9  and  S_11
REMARK    3  A    between atoms: S_11  and  C_12
REMARK                            x       y       z     vdW  Elec       q    Type
REMARK                         _______ _______ _______ _____ _____    ______ ____
ROOT
ATOM      1  C   UNL     1       2.993   1.451  -0.991  0.00  0.00    +0.000 C 
ATOM      2  O   UNL     1       3.511   2.218  -0.191  0.00  0.00    +0.000 OA
ENDROOT
BRANCH   1   9
ATOM      3  C   UNL     1      -2.063  -0.110   0.010  0.00  0.00    +0.000 C 
ATOM      4  C   UNL     1      -1.343   1.222   0.220  0.00  0.00    +0.000 C 
ATOM      5  C   UNL     1      -0.079   1.320  -0.635  0.00  0.00    +0.000 C 
ATOM      6  C   UNL     1       0.803   0.118  -0.428  0.00  0.00    +0.000 C 
ATOM      7  C   UNL     1       0.131  -1.219  -0.571  0.00  0.00    +0.000 C 
ATOM      8  C   UNL     1      -1.132  -1.291   0.285  0.00  0.00    +0.000 C 
ATOM      9  C   UNL     1       2.314   0.200  -0.589  0.00  0.00    +0.000 C 
ATOM     10  O   UNL     1       1.671   0.226   0.704  0.00  0.00    +0.000 OA
ENDBRANCH   1   9
BRANCH   1  11
ATOM     11  S   UNL     1       2.996   1.731  -2.727  0.00  0.00    +0.000 S 
BRANCH  11  12
ATOM     12  C   UNL     1       4.734   1.567  -3.082  0.00  0.00    +0.000 A 
ATOM     13  C   UNL     1       5.160   0.571  -3.969  0.00  0.00    +0.000 A 
ATOM     14  C   UNL     1       6.516   0.430  -4.274  0.00  0.00    +0.000 A 
ATOM     15  C   UNL     1       7.452   1.288  -3.701  0.00  0.00    +0.000 A 
ATOM     16  C   UNL     1       7.035   2.290  -2.827  0.00  0.00    +0.000 A 
ATOM     17  C   UNL     1       5.679   2.432  -2.522  0.00  0.00    +0.000 A 
ENDBRANCH  11  12
ENDBRANCH   1  11
TORSDOF 3
