REMARK  Name = *****
REMARK  5 active torsions:
REMARK  status: ('A' for Active; 'I' for Inactive)
REMARK    1  A    between atoms: C_1  and  C_2
REMARK    2  A    between atoms: C_2  and  O_3
REMARK    3  A    between atoms: O_3  and  C_4
REMARK    4  A    between atoms: C_7  and  C_10
REMARK    5  A    between atoms: C_11  and  C_12
REMARK                            x       y       z     vdW  Elec       q    Type
REMARK                         _______ _______ _______ _____ _____    ______ ____
ROOT
ATOM      1  C   UNL     1       4.273   0.362   1.614  0.00  0.00    +0.000 A 
ATOM      2  C   UNL     1       5.102   0.930   0.648  0.00  0.00    +0.000 A 
ATOM      3  C   UNL     1       6.483   1.024   0.871  0.00  0.00    +0.000 A 
ATOM      4  C   UNL     1       7.051   0.564   2.065  0.00  0.00    +0.000 A 
ATOM      5  C   UNL     1       6.214  -0.020   3.022  0.00  0.00    +0.000 A 
ATOM      6  C   UNL     1       4.837  -0.114   2.798  0.00  0.00    +0.000 A 
ENDROOT
BRANCH   4   7
ATOM      7  C   UNL     1       8.498   0.615   2.320  0.00  0.00    +0.000 C 
ATOM      8  C   UNL     1       9.288   1.634   1.944  0.00  0.00    +0.000 C 
BRANCH   8   9
ATOM      9  C   UNL     1      10.732   1.692   2.216  0.00  0.00    +0.000 A 
ATOM     10  C   UNL     1      11.555   0.558   2.129  0.00  0.00    +0.000 A 
ATOM     11  C   UNL     1      12.928   0.660   2.365  0.00  0.00    +0.000 A 
ATOM     12  C   UNL     1      13.481   1.896   2.675  0.00  0.00    +0.000 A 
ATOM     13  C   UNL     1      12.687   3.034   2.750  0.00  0.00    +0.000 A 
ATOM     14  C   UNL     1      11.314   2.933   2.515  0.00  0.00    +0.000 A 
ATOM     15  F   UNL     1      14.798   1.993   2.899  0.00  0.00    +0.000 F 
ENDBRANCH   8   9
ENDBRANCH   4   7
BRANCH   1  16
ATOM     16  O   UNL     1       2.918   0.208   1.524  0.00  0.00    +0.000 OA
BRANCH  16  18
ATOM     17  C   UNL     1       0.797   0.423   0.462  0.00  0.00    +0.000 C 
ATOM     18  C   UNL     1       2.286   0.689   0.339  0.00  0.00    +0.000 C 
ENDBRANCH  16  18
ENDBRANCH   1  16
TORSDOF 4
