REMARK  Name = *****
REMARK  1 active torsions:
REMARK  status: ('A' for Active; 'I' for Inactive)
REMARK    1  A    between atoms: C_5  and  C_6
REMARK                            x       y       z     vdW  Elec       q    Type
REMARK                         _______ _______ _______ _____ _____    ______ ____
ROOT
ATOM      1  C   UNL     1       1.968   0.426  -0.453  0.00  0.00    +0.000 C 
ATOM      2  C   UNL     1       1.360  -0.961  -0.249  0.00  0.00    +0.000 C 
ATOM      3  C   UNL     1      -0.074  -1.040  -0.777  0.00  0.00    +0.000 C 
ATOM      4  C   UNL     1      -0.929   0.055  -0.179  0.00  0.00    +0.000 C 
ATOM      5  C   UNL     1      -2.085  -0.102   0.496  0.00  0.00    +0.000 C 
ATOM      6  C   UNL     1      -0.348   1.440  -0.387  0.00  0.00    +0.000 C 
ATOM      7  C   UNL     1       1.083   1.519   0.144  0.00  0.00    +0.000 C 
ENDROOT
BRANCH   5   8
ATOM      8  C   UNL     1      -2.766  -1.349   0.770  0.00  0.00    +0.000 C 
ATOM      9  C   UNL     1      -3.886  -1.515   1.500  0.00  0.00    +0.000 C 
ATOM     10  C   UNL     1      -4.667  -0.435   2.217  0.00  0.00    +0.000 C 
ATOM     11  C   UNL     1      -4.823  -0.770   3.702  0.00  0.00    +0.000 C 
ATOM     12  C   UNL     1      -5.426  -2.159   3.913  0.00  0.00    +0.000 C 
ATOM     13  C   UNL     1      -4.632  -3.232   3.170  0.00  0.00    +0.000 C 
ATOM     14  C   UNL     1      -4.480  -2.897   1.687  0.00  0.00    +0.000 C 
ENDBRANCH   5   8
TORSDOF 1
