MODEL 1
REMARK VINA RESULT:      -4.5      0.000      0.000
REMARK  Name = *****
REMARK  5 active torsions:
REMARK  status: ('A' for Active; 'I' for Inactive)
REMARK    1  A    between atoms: C_1  and  O_2
REMARK    2  A    between atoms: O_2  and  N_3
REMARK    3  A    between atoms: C_4  and  C_5
REMARK    4  A    between atoms: C_10  and  C_11
REMARK    5  A    between atoms: C_12  and  C_13
REMARK                            x       y       z     vdW  Elec       q    Type
REMARK                         _______ _______ _______ _____ _____    ______ ____
ROOT
ATOM      1  C   UNL     1     101.360 128.241  83.304  0.00  0.00    +0.000 A 
ATOM      2  C   UNL     1     100.337 129.055  83.801  0.00  0.00    +0.000 A 
ATOM      3  C   UNL     1      99.004 128.702  83.583  0.00  0.00    +0.000 A 
ATOM      4  C   UNL     1      98.698 127.549  82.862  0.00  0.00    +0.000 A 
ATOM      5  C   UNL     1      99.722 126.747  82.350  0.00  0.00    +0.000 A 
ATOM      6  C   UNL     1     101.063 127.090  82.562  0.00  0.00    +0.000 A 
ENDROOT
BRANCH   1   8
ATOM      7  N   UNL     1     103.544 128.312  84.493  0.00  0.00    +0.000 NA
ATOM      8  C   UNL     1     102.745 128.687  83.541  0.00  0.00    +0.000 C 
BRANCH   7  10
ATOM      9  C   UNL     1     103.681 126.220  85.419  0.00  0.00    +0.000 C 
ATOM     10  O   UNL     1     102.912 127.414  85.366  0.00  0.00    +0.000 OA
ENDBRANCH   7  10
ENDBRANCH   1   8
BRANCH   6  11
ATOM     11  C   UNL     1     102.086 126.270  81.984  0.00  0.00    +0.000 C 
ATOM     12  C   UNL     1     102.956 125.613  81.481  0.00  0.00    +0.000 C 
BRANCH  12  13
ATOM     13  C   UNL     1     104.007 124.872  80.858  0.00  0.00    +0.000 A 
ATOM     14  C   UNL     1     104.735 125.430  79.804  0.00  0.00    +0.000 A 
ATOM     15  C   UNL     1     105.759 124.698  79.200  0.00  0.00    +0.000 A 
ATOM     16  C   UNL     1     106.058 123.412  79.650  0.00  0.00    +0.000 A 
ATOM     17  C   UNL     1     105.332 122.854  80.702  0.00  0.00    +0.000 A 
ATOM     18  C   UNL     1     104.307 123.583  81.307  0.00  0.00    +0.000 A 
ENDBRANCH  12  13
ENDBRANCH   6  11
TORSDOF 4
ENDMDL
