MODEL 1
REMARK VINA RESULT:      -4.7      0.000      0.000
REMARK  Name = *****
REMARK  4 active torsions:
REMARK  status: ('A' for Active; 'I' for Inactive)
REMARK    1  A    between atoms: C_2  and  C_3
REMARK    2  A    between atoms: C_2  and  O_9
REMARK    3  A    between atoms: O_9  and  C_10
REMARK    4  A    between atoms: C_10  and  C_12
REMARK                            x       y       z     vdW  Elec       q    Type
REMARK                         _______ _______ _______ _____ _____    ______ ____
ROOT
ATOM      1  O   UNL     1     102.152 125.624  81.532  0.00  0.00    +0.000 OA
ENDROOT
BRANCH   1   3
ATOM      2  C   UNL     1     103.493 127.336  80.527  0.00  0.00    +0.000 C 
ATOM      3  C   UNL     1     103.325 126.058  80.895  0.00  0.00    +0.000 C 
BRANCH   3   4
ATOM      4  C   UNL     1     104.280 124.990  80.551  0.00  0.00    +0.000 A 
ATOM      5  C   UNL     1     105.249 125.178  79.554  0.00  0.00    +0.000 A 
ATOM      6  C   UNL     1     106.160 124.165  79.246  0.00  0.00    +0.000 A 
ATOM      7  C   UNL     1     106.116 122.954  79.933  0.00  0.00    +0.000 A 
ATOM      8  C   UNL     1     105.165 122.756  80.932  0.00  0.00    +0.000 A 
ATOM      9  C   UNL     1     104.255 123.770  81.242  0.00  0.00    +0.000 A 
ENDBRANCH   3   4
ENDBRANCH   1   3
BRANCH   1  10
ATOM     10  C   UNL     1     102.038 126.027  82.835  0.00  0.00    +0.000 C 
ATOM     11  O   UNL     1     102.692 125.632  83.791  0.00  0.00    +0.000 OA
BRANCH  10  12
ATOM     12  C   UNL     1     100.975 127.064  82.934  0.00  0.00    +0.000 C 
ATOM     13  C   UNL     1     101.282 128.222  83.545  0.00  0.00    +0.000 C 
ATOM     14  C   UNL     1     100.319 129.290  83.663  0.00  0.00    +0.000 C 
ATOM     15  C   UNL     1      99.032 129.104  83.343  0.00  0.00    +0.000 C 
ATOM     16  C   UNL     1      98.515 127.792  82.826  0.00  0.00    +0.000 C 
ATOM     17  C   UNL     1      99.605 126.805  82.362  0.00  0.00    +0.000 C 
ENDBRANCH  10  12
ENDBRANCH   1  10
TORSDOF 4
ENDMDL
