REMARK  Name = *****
REMARK  5 active torsions:
REMARK  status: ('A' for Active; 'I' for Inactive)
REMARK    1  A    between atoms: C_1  and  C_2
REMARK    2  A    between atoms: C_4  and  C_17
REMARK    3  A    between atoms: C_6  and  O_8
REMARK    4  A    between atoms: O_8  and  C_9
REMARK    5  A    between atoms: C_9  and  C_11
REMARK                            x       y       z     vdW  Elec       q    Type
REMARK                         _______ _______ _______ _____ _____    ______ ____
ROOT
ATOM      1  O   UNL     1       0.125  -3.503  -1.072  0.00  0.00    +0.000 OA
ENDROOT
BRANCH   1   7
ATOM      2  C   UNL     1       2.267   0.945  -1.444  0.00  0.00    +0.000 C 
ATOM      3  C   UNL     1       1.055   0.061  -1.469  0.00  0.00    +0.000 A 
ATOM      4  C   UNL     1      -0.224   0.615  -1.636  0.00  0.00    +0.000 A 
ATOM      5  C   UNL     1      -1.370  -0.195  -1.638  0.00  0.00    +0.000 A 
ATOM      6  C   UNL     1      -1.231  -1.571  -1.426  0.00  0.00    +0.000 A 
ATOM      7  C   UNL     1       0.037  -2.113  -1.224  0.00  0.00    +0.000 A 
ATOM      8  C   UNL     1       1.180  -1.317  -1.260  0.00  0.00    +0.000 A 
ATOM      9  C   UNL     1      -2.731   0.414  -1.800  0.00  0.00    +0.000 C 
ENDBRANCH   1   7
BRANCH   1  10
ATOM     10  C   UNL     1       0.663  -3.952   0.133  0.00  0.00    +0.000 C 
ATOM     11  O   UNL     1       1.062  -3.257   1.058  0.00  0.00    +0.000 OA
BRANCH  10  12
ATOM     12  C   UNL     1       0.674  -5.473   0.117  0.00  0.00    +0.000 C 
ATOM     13  C   UNL     1       0.798  -6.036   1.539  0.00  0.00    +0.000 C 
ATOM     14  C   UNL     1       0.870  -7.560   1.534  0.00  0.00    +0.000 C 
ATOM     15  C   UNL     1       2.000  -8.064   0.641  0.00  0.00    +0.000 C 
ATOM     16  C   UNL     1       1.892  -7.504  -0.774  0.00  0.00    +0.000 C 
ATOM     17  C   UNL     1       1.811  -5.979  -0.775  0.00  0.00    +0.000 C 
ENDBRANCH  10  12
ENDBRANCH   1  10
TORSDOF 3
