REMARK  Name = *****
REMARK  2 active torsions:
REMARK  status: ('A' for Active; 'I' for Inactive)
REMARK    1  A    between atoms: C_5  and  C_8
REMARK    2  A    between atoms: C_9  and  C_10
REMARK                            x       y       z     vdW  Elec       q    Type
REMARK                         _______ _______ _______ _____ _____    ______ ____
ROOT
ATOM      1  C   UNL     1      -2.124   2.188  -0.446  0.00  0.00    +0.000 C 
ATOM      2  C   UNL     1      -2.730   2.256  -1.643  0.00  0.00    +0.000 C 
ENDROOT
BRANCH   1   7
ATOM      3  C   UNL     1       1.570  -0.520   0.109  0.00  0.00    +0.000 C 
ATOM      4  C   UNL     1       0.516  -1.492  -0.416  0.00  0.00    +0.000 C 
ATOM      5  C   UNL     1      -0.839  -1.380   0.279  0.00  0.00    +0.000 C 
ATOM      6  C   UNL     1      -1.644  -0.184  -0.130  0.00  0.00    +0.000 C 
ATOM      7  C   UNL     1      -1.249   1.099  -0.036  0.00  0.00    +0.000 C 
ATOM      8  C   UNL     1       0.077   1.518   0.553  0.00  0.00    +0.000 C 
ATOM      9  C   UNL     1       1.290   0.952  -0.188  0.00  0.00    +0.000 C 
ENDBRANCH   1   7
BRANCH   2  10
ATOM     10  C   UNL     1      -3.608   3.356  -2.068  0.00  0.00    +0.000 A 
ATOM     11  C   UNL     1      -3.373   4.689  -1.707  0.00  0.00    +0.000 A 
ATOM     12  C   UNL     1      -4.215   5.708  -2.159  0.00  0.00    +0.000 A 
ATOM     13  C   UNL     1      -5.295   5.407  -2.987  0.00  0.00    +0.000 A 
ATOM     14  C   UNL     1      -5.530   4.087  -3.367  0.00  0.00    +0.000 A 
ATOM     15  C   UNL     1      -4.687   3.069  -2.914  0.00  0.00    +0.000 A 
ENDBRANCH   2  10
TORSDOF 2
