REMARK  Name = *****
REMARK  4 active torsions:
REMARK  status: ('A' for Active; 'I' for Inactive)
REMARK    1  A    between atoms: C_6  and  O_7
REMARK    2  A    between atoms: O_7  and  C_8
REMARK    3  A    between atoms: C_8  and  O_10
REMARK    4  A    between atoms: O_10  and  C_11
REMARK                            x       y       z     vdW  Elec       q    Type
REMARK                         _______ _______ _______ _____ _____    ______ ____
ROOT
ATOM      1  C   UNL     1       4.461   0.521  -0.959  0.00  0.00    +0.000 C 
ATOM      2  O   UNL     1       4.131   1.691  -1.101  0.00  0.00    +0.000 OA
ENDROOT
BRANCH   1   3
ATOM      3  O   UNL     1       3.642  -0.518  -0.534  0.00  0.00    +0.000 OA
BRANCH   3   9
ATOM      4  C   UNL     1       1.459   0.196  -1.319  0.00  0.00    +0.000 A 
ATOM      5  C   UNL     1       0.129   0.505  -1.031  0.00  0.00    +0.000 A 
ATOM      6  C   UNL     1      -0.328   0.447   0.287  0.00  0.00    +0.000 A 
ATOM      7  C   UNL     1       0.533   0.077   1.323  0.00  0.00    +0.000 A 
ATOM      8  C   UNL     1       1.865  -0.231   1.040  0.00  0.00    +0.000 A 
ATOM      9  C   UNL     1       2.319  -0.150  -0.276  0.00  0.00    +0.000 A 
ATOM     10 CL   UNL     1      -1.970   0.823   0.639  0.00  0.00    +0.000 Cl
ENDBRANCH   3   9
ENDBRANCH   1   3
BRANCH   1  11
ATOM     11  O   UNL     1       5.719  -0.015  -1.192  0.00  0.00    +0.000 OA
BRANCH  11  12
ATOM     12  C   UNL     1       6.639   0.930  -1.646  0.00  0.00    +0.000 A 
ATOM     13  C   UNL     1       7.402   1.644  -0.723  0.00  0.00    +0.000 A 
ATOM     14  C   UNL     1       8.353   2.554  -1.185  0.00  0.00    +0.000 A 
ATOM     15  C   UNL     1       8.539   2.726  -2.559  0.00  0.00    +0.000 A 
ATOM     16  C   UNL     1       7.785   1.991  -3.477  0.00  0.00    +0.000 A 
ATOM     17  C   UNL     1       6.832   1.080  -3.019  0.00  0.00    +0.000 A 
ATOM     18 CL   UNL     1       9.715   3.846  -3.126  0.00  0.00    +0.000 Cl
ENDBRANCH  11  12
ENDBRANCH   1  11
TORSDOF 4
