REMARK  Name = *****
REMARK  6 active torsions:
REMARK  status: ('A' for Active; 'I' for Inactive)
REMARK    1  A    between atoms: C_1  and  C_2
REMARK    2  A    between atoms: C_2  and  C_3
REMARK    3  A    between atoms: C_2  and  C_11
REMARK    4  A    between atoms: C_2  and  O_17
REMARK    5  A    between atoms: C_3  and  C_4
REMARK    6  A    between atoms: O_17  and  C_18
REMARK                            x       y       z     vdW  Elec       q    Type
REMARK                         _______ _______ _______ _____ _____    ______ ____
ROOT
ATOM      1  C   UNL     1       0.874  -0.090  -0.131  0.00  0.00    +0.000 C 
ATOM      2  C   UNL     1       2.407   0.049  -0.021  0.00  0.00    +0.000 C 
ENDROOT
BRANCH   2   3
ATOM      3  C   UNL     1       2.932  -0.213   1.406  0.00  0.00    +0.000 A 
ATOM      4  C   UNL     1       2.126  -0.106   2.553  0.00  0.00    +0.000 A 
ATOM      5  C   UNL     1       2.654  -0.319   3.832  0.00  0.00    +0.000 A 
ATOM      6  C   UNL     1       3.997  -0.641   3.993  0.00  0.00    +0.000 A 
ATOM      7  C   UNL     1       4.818  -0.751   2.876  0.00  0.00    +0.000 A 
ATOM      8  C   UNL     1       4.292  -0.537   1.600  0.00  0.00    +0.000 A 
ENDBRANCH   2   3
BRANCH   2   9
ATOM      9  O   UNL     1       3.044  -0.980  -0.823  0.00  0.00    +0.000 OA
ATOM     10  C   UNL     1       2.624  -1.139  -2.168  0.00  0.00    +0.000 C 
ENDBRANCH   2   9
BRANCH   2  11
ATOM     11  C   UNL     1       2.886   1.453  -0.513  0.00  0.00    +0.000 C 
BRANCH  11  12
ATOM     12  C   UNL     1       2.377   2.659   0.250  0.00  0.00    +0.000 A 
ATOM     13  C   UNL     1       3.065   3.132   1.376  0.00  0.00    +0.000 A 
ATOM     14  C   UNL     1       2.592   4.239   2.085  0.00  0.00    +0.000 A 
ATOM     15  C   UNL     1       1.431   4.882   1.667  0.00  0.00    +0.000 A 
ATOM     16  C   UNL     1       0.739   4.431   0.546  0.00  0.00    +0.000 A 
ATOM     17  C   UNL     1       1.212   3.323  -0.162  0.00  0.00    +0.000 A 
ATOM     18 CL   UNL     1       0.846   6.245   2.541  0.00  0.00    +0.000 Cl
ENDBRANCH  11  12
ENDBRANCH   2  11
TORSDOF 4
