MODEL 1
REMARK VINA RESULT:      -4.4      0.000      0.000
REMARK  Name = *****
REMARK  2 active torsions:
REMARK  status: ('A' for Active; 'I' for Inactive)
REMARK    1  A    between atoms: C_4  and  C_7
REMARK    2  A    between atoms: C_8  and  C_9
REMARK                            x       y       z     vdW  Elec       q    Type
REMARK                         _______ _______ _______ _____ _____    ______ ____
ROOT
ATOM      1  C   UNL     1      97.408 117.623  80.821  0.00  0.00    +0.000 C 
ATOM      2  C   UNL     1      98.217 118.651  80.510  0.00  0.00    +0.000 C 
ENDROOT
BRANCH   1   6
ATOM      3  C   UNL     1      96.261 114.608  78.009  0.00  0.00    +0.000 A 
ATOM      4  C   UNL     1      95.736 114.579  79.299  0.00  0.00    +0.000 A 
ATOM      5  C   UNL     1      96.109 115.552  80.230  0.00  0.00    +0.000 A 
ATOM      6  C   UNL     1      97.019 116.558  79.885  0.00  0.00    +0.000 A 
ATOM      7  C   UNL     1      97.528 116.586  78.579  0.00  0.00    +0.000 A 
ATOM      8  C   UNL     1      97.156 115.613  77.648  0.00  0.00    +0.000 A 
ENDBRANCH   1   6
BRANCH   2   9
ATOM      9  C   UNL     1      98.607 119.728  81.481  0.00  0.00    +0.000 C 
ATOM     10  C   UNL     1      98.916 119.173  82.848  0.00  0.00    +0.000 C 
ATOM     11  C   UNL     1      98.080 119.702  83.757  0.00  0.00    +0.000 C 
ATOM     12  C   UNL     1      97.178 120.615  83.102  0.00  0.00    +0.000 C 
ATOM     13  C   UNL     1      97.455 120.650  81.790  0.00  0.00    +0.000 C 
ENDBRANCH   2   9
TORSDOF 2
ENDMDL
