MODEL 1
REMARK VINA RESULT:      -5.0      0.000      0.000
REMARK  Name = *****
REMARK  2 active torsions:
REMARK  status: ('A' for Active; 'I' for Inactive)
REMARK    1  A    between atoms: C_3  and  C_8
REMARK    2  A    between atoms: C_9  and  C_10
REMARK                            x       y       z     vdW  Elec       q    Type
REMARK                         _______ _______ _______ _____ _____    ______ ____
ROOT
ATOM      1  C   UNL     1     101.869 125.962  82.308  0.00  0.00    +0.000 C 
ATOM      2  C   UNL     1     102.870 126.156  81.434  0.00  0.00    +0.000 C 
ENDROOT
BRANCH   1   5
ATOM      3  C   UNL     1      98.615 127.811  82.721  0.00  0.00    +0.000 A 
ATOM      4  C   UNL     1      99.556 126.832  82.389  0.00  0.00    +0.000 A 
ATOM      5  C   UNL     1     100.911 127.005  82.702  0.00  0.00    +0.000 A 
ATOM      6  C   UNL     1     101.314 128.192  83.329  0.00  0.00    +0.000 A 
ATOM      7  C   UNL     1     100.371 129.167  83.658  0.00  0.00    +0.000 A 
ATOM      8  C   UNL     1      99.024 128.980  83.359  0.00  0.00    +0.000 A 
ATOM      9 CL   UNL     1     100.878 130.617  84.435  0.00  0.00    +0.000 Cl
ENDBRANCH   1   5
BRANCH   2  10
ATOM     10  C   UNL     1     103.839 125.116  81.055  0.00  0.00    +0.000 A 
ATOM     11  C   UNL     1     104.618 125.208  79.891  0.00  0.00    +0.000 A 
ATOM     12  C   UNL     1     105.549 124.214  79.582  0.00  0.00    +0.000 A 
ATOM     13  C   UNL     1     105.711 123.134  80.441  0.00  0.00    +0.000 A 
ATOM     14  C   UNL     1     104.962 123.031  81.606  0.00  0.00    +0.000 A 
ATOM     15  C   UNL     1     104.030 124.024  81.916  0.00  0.00    +0.000 A 
ATOM     16  F   UNL     1     106.605 122.183  80.145  0.00  0.00    +0.000 F 
ENDBRANCH   2  10
TORSDOF 2
ENDMDL
