MODEL 1
REMARK VINA RESULT:      -4.2      0.000      0.000
REMARK  Name = *****
REMARK  2 active torsions:
REMARK  status: ('A' for Active; 'I' for Inactive)
REMARK    1  A    between atoms: C_7  and  S_8
REMARK    2  A    between atoms: S_8  and  C_9
REMARK                            x       y       z     vdW  Elec       q    Type
REMARK                         _______ _______ _______ _____ _____    ______ ____
ROOT
ATOM      1  C   UNL     1     101.885 129.443  84.118  0.00  0.00    +0.000 C 
ATOM      2  C   UNL     1     100.935 128.598  83.701  0.00  0.00    +0.000 C 
ATOM      3  C   UNL     1      99.469 128.720  83.833  0.00  0.00    +0.000 C 
ATOM      4  C   UNL     1      98.787 127.379  83.934  0.00  0.00    +0.000 C 
ATOM      5  C   UNL     1      98.750 128.151  82.636  0.00  0.00    +0.000 C 
ATOM      6  C   UNL     1      99.645 126.951  82.777  0.00  0.00    +0.000 C 
ATOM      7  C   UNL     1     101.109 127.308  82.930  0.00  0.00    +0.000 C 
ENDROOT
BRANCH   7   8
ATOM      8  S   UNL     1     101.979 126.055  83.911  0.00  0.00    +0.000 S 
BRANCH   8   9
ATOM      9  C   UNL     1     102.987 125.306  82.646  0.00  0.00    +0.000 A 
ATOM     10  C   UNL     1     103.825 124.222  82.925  0.00  0.00    +0.000 A 
ATOM     11  C   UNL     1     104.599 123.650  81.913  0.00  0.00    +0.000 A 
ATOM     12  C   UNL     1     104.533 124.155  80.615  0.00  0.00    +0.000 A 
ATOM     13  C   UNL     1     103.688 125.225  80.326  0.00  0.00    +0.000 A 
ATOM     14  C   UNL     1     102.913 125.796  81.338  0.00  0.00    +0.000 A 
ENDBRANCH   8   9
ENDBRANCH   7   8
TORSDOF 2
ENDMDL
