REMARK  Name = *****
REMARK  6 active torsions:
REMARK  status: ('A' for Active; 'I' for Inactive)
REMARK    1  A    between atoms: C_1  and  C_2
REMARK    2  A    between atoms: C_2  and  C_4
REMARK    3  A    between atoms: C_4  and  C_5
REMARK    4  A    between atoms: C_5  and  C_6
REMARK    5  A    between atoms: C_5  and  C_13
REMARK    6  A    between atoms: C_6  and  C_7
REMARK                            x       y       z     vdW  Elec       q    Type
REMARK                         _______ _______ _______ _____ _____    ______ ____
ROOT
ATOM      1  C   UNL     1       4.692   1.184  -0.929  0.00  0.00    +0.000 C 
ENDROOT
BRANCH   1   2
ATOM      2  C   UNL     1       5.544   2.140  -1.756  0.00  0.00    +0.000 A 
ATOM      3  C   UNL     1       5.854   3.405  -1.227  0.00  0.00    +0.000 A 
ATOM      4  C   UNL     1       6.625   4.317  -1.950  0.00  0.00    +0.000 A 
ATOM      5  C   UNL     1       7.097   3.980  -3.215  0.00  0.00    +0.000 A 
ATOM      6  C   UNL     1       6.793   2.734  -3.757  0.00  0.00    +0.000 A 
ATOM      7  C   UNL     1       6.020   1.821  -3.035  0.00  0.00    +0.000 A 
ENDBRANCH   1   2
BRANCH   1   8
ATOM      8  C   UNL     1       4.960  -0.314  -1.159  0.00  0.00    +0.000 C 
BRANCH   8  10
ATOM      9  C   UNL     1       7.022  -0.368   0.417  0.00  0.00    +0.000 C 
ATOM     10  C   UNL     1       6.396  -0.736  -0.903  0.00  0.00    +0.000 C 
ATOM     11  O   UNL     1       7.013  -1.413  -1.728  0.00  0.00    +0.000 OA
ENDBRANCH   8  10
ENDBRANCH   1   8
BRANCH   1  12
ATOM     12  C   UNL     1       3.180   1.521  -1.026  0.00  0.00    +0.000 C 
BRANCH  12  13
ATOM     13  C   UNL     1       2.500   1.187  -2.333  0.00  0.00    +0.000 A 
ATOM     14  C   UNL     1       2.558   2.074  -3.416  0.00  0.00    +0.000 A 
ATOM     15  C   UNL     1       1.935   1.759  -4.626  0.00  0.00    +0.000 A 
ATOM     16  C   UNL     1       1.243   0.558  -4.763  0.00  0.00    +0.000 A 
ATOM     17  C   UNL     1       1.171  -0.328  -3.691  0.00  0.00    +0.000 A 
ATOM     18  C   UNL     1       1.795  -0.016  -2.482  0.00  0.00    +0.000 A 
ENDBRANCH  12  13
ENDBRANCH   1  12
TORSDOF 5
