MODEL 1
REMARK VINA RESULT:      -5.1      0.000      0.000
REMARK  Name = *****
REMARK  4 active torsions:
REMARK  status: ('A' for Active; 'I' for Inactive)
REMARK    1  A    between atoms: C_4  and  O_7
REMARK    2  A    between atoms: O_7  and  C_8
REMARK    3  A    between atoms: C_8  and  C_9
REMARK    4  A    between atoms: C_12  and  C_15
REMARK                            x       y       z     vdW  Elec       q    Type
REMARK                         _______ _______ _______ _____ _____    ______ ____
ROOT
ATOM      1  C   UNL     1     103.491 127.112  81.898  0.00  0.00    +0.000 C 
ATOM      2  F   UNL     1     102.750 127.542  80.837  0.00  0.00    +0.000 F 
ATOM      3  F   UNL     1     104.589 127.917  81.962  0.00  0.00    +0.000 F 
ENDROOT
BRANCH   1   4
ATOM      4  C   UNL     1     103.860 125.647  81.785  0.00  0.00    +0.000 A 
ATOM      5  C   UNL     1     103.908 124.833  82.927  0.00  0.00    +0.000 A 
ATOM      6  C   UNL     1     104.264 123.485  82.824  0.00  0.00    +0.000 A 
ATOM      7  C   UNL     1     104.592 122.926  81.580  0.00  0.00    +0.000 A 
ATOM      8  C   UNL     1     104.541 123.740  80.437  0.00  0.00    +0.000 A 
ATOM      9  C   UNL     1     104.184 125.088  80.541  0.00  0.00    +0.000 A 
BRANCH   7  10
ATOM     10  C   UNL     1     104.955 121.466  81.461  0.00  0.00    +0.000 C 
ATOM     11  F   UNL     1     106.103 121.254  80.758  0.00  0.00    +0.000 F 
ATOM     12  F   UNL     1     105.146 120.880  82.674  0.00  0.00    +0.000 F 
ATOM     13  F   UNL     1     103.995 120.729  80.834  0.00  0.00    +0.000 F 
ENDBRANCH   7  10
ENDBRANCH   1   4
BRANCH   1  14
ATOM     14  O   UNL     1     102.726 127.276  83.093  0.00  0.00    +0.000 OA
BRANCH  14  18
ATOM     15  C   UNL     1      98.658 128.145  82.917  0.00  0.00    +0.000 A 
ATOM     16  C   UNL     1      99.091 126.918  82.419  0.00  0.00    +0.000 A 
ATOM     17  C   UNL     1     100.448 126.581  82.456  0.00  0.00    +0.000 A 
ATOM     18  C   UNL     1     101.378 127.471  82.993  0.00  0.00    +0.000 A 
ATOM     19  C   UNL     1     100.934 128.700  83.491  0.00  0.00    +0.000 A 
ATOM     20  C   UNL     1      99.580 129.038  83.454  0.00  0.00    +0.000 A 
ENDBRANCH  14  18
ENDBRANCH   1  14
TORSDOF 4
ENDMDL
