REMARK  Name = *****
REMARK  8 active torsions:
REMARK  status: ('A' for Active; 'I' for Inactive)
REMARK    1  A    between atoms: C_1  and  C_2
REMARK    2  A    between atoms: C_2  and  P_3
REMARK    3  A    between atoms: P_3  and  C_4
REMARK    4  A    between atoms: P_3  and  N_12
REMARK    5  A    between atoms: C_5  and  C_11
REMARK    6  A    between atoms: C_9  and  C_10
REMARK    7  A    between atoms: N_12  and  C_13
REMARK    8  A    between atoms: N_12  and  C_14
REMARK                            x       y       z     vdW  Elec       q    Type
REMARK                         _______ _______ _______ _____ _____    ______ ____
ROOT
ATOM      1  P   UNL     1       3.039  -1.420  -0.302  0.00  0.00    +0.000 P 
ENDROOT
BRANCH   1   2
ATOM      2  C   UNL     1       2.563  -2.108  -1.948  0.00  0.00    +0.000 A 
ATOM      3  C   UNL     1       1.814  -1.435  -2.954  0.00  0.00    +0.000 A 
ATOM      4  C   UNL     1       1.536  -2.080  -4.181  0.00  0.00    +0.000 A 
ATOM      5  C   UNL     1       1.967  -3.372  -4.441  0.00  0.00    +0.000 A 
ATOM      6  C   UNL     1       2.676  -4.055  -3.469  0.00  0.00    +0.000 A 
ATOM      7  C   UNL     1       2.966  -3.457  -2.227  0.00  0.00    +0.000 A 
ATOM      8  C   UNL     1       3.741  -4.318  -1.251  0.00  0.00    +0.000 C 
ATOM      9  C   UNL     1       1.267  -0.038  -2.835  0.00  0.00    +0.000 C 
ENDBRANCH   1   2
BRANCH   1  11
ATOM     10  C   UNL     1       2.814   0.771   1.386  0.00  0.00    +0.000 C 
ATOM     11  C   UNL     1       2.392   0.250   0.016  0.00  0.00    +0.000 C 
ENDBRANCH   1  11
BRANCH   1  12
ATOM     12  N   UNL     1       4.686  -1.250  -0.475  0.00  0.00    +0.000 N 
ATOM     13  C   UNL     1       5.177  -0.487  -1.633  0.00  0.00    +0.000 C 
BRANCH  12  14
ATOM     14  C   UNL     1       5.687  -1.702   0.439  0.00  0.00    +0.000 A 
ATOM     15  C   UNL     1       5.343  -2.268   1.684  0.00  0.00    +0.000 A 
ATOM     16  C   UNL     1       6.307  -2.723   2.592  0.00  0.00    +0.000 A 
ATOM     17  C   UNL     1       7.657  -2.629   2.280  0.00  0.00    +0.000 A 
ATOM     18  C   UNL     1       8.036  -2.086   1.059  0.00  0.00    +0.000 A 
ATOM     19  C   UNL     1       7.065  -1.633   0.155  0.00  0.00    +0.000 A 
ENDBRANCH  12  14
ENDBRANCH   1  12
TORSDOF 4
