MODEL 1
REMARK VINA RESULT:      -4.6      0.000      0.000
REMARK  Name = *****
REMARK  4 active torsions:
REMARK  status: ('A' for Active; 'I' for Inactive)
REMARK    1  A    between atoms: C_5  and  C_7
REMARK    2  A    between atoms: C_7  and  C_8
REMARK    3  A    between atoms: C_7  and  C_16
REMARK    4  A    between atoms: C_8  and  C_9
REMARK                            x       y       z     vdW  Elec       q    Type
REMARK                         _______ _______ _______ _____ _____    ______ ____
ROOT
ATOM      1  C   UNL     1     103.164 125.755  82.657  0.00  0.00    +0.000 C 
ENDROOT
BRANCH   1   6
ATOM      2  C   UNL     1     105.152 123.276  80.524  0.00  0.00    +0.000 A 
ATOM      3  C   UNL     1     105.650 124.085  79.508  0.00  0.00    +0.000 A 
ATOM      4  C   UNL     1     105.355 125.448  79.501  0.00  0.00    +0.000 A 
ATOM      5  C   UNL     1     104.561 126.006  80.510  0.00  0.00    +0.000 A 
ATOM      6  C   UNL     1     104.050 125.203  81.546  0.00  0.00    +0.000 A 
ATOM      7  C   UNL     1     104.359 123.828  81.532  0.00  0.00    +0.000 A 
ATOM      8 CL   UNL     1     104.252 127.703  80.413  0.00  0.00    +0.000 Cl
ENDBRANCH   1   6
BRANCH   1   9
ATOM      9  C   UNL     1     103.277 124.881  83.896  0.00  0.00    +0.000 C 
ATOM     10  O   UNL     1     102.512 124.926  84.854  0.00  0.00    +0.000 OA
ENDBRANCH   1   9
BRANCH   1  11
ATOM     11  C   UNL     1     101.690 125.909  82.229  0.00  0.00    +0.000 C 
BRANCH  11  12
ATOM     12  C   UNL     1     101.049 127.175  82.757  0.00  0.00    +0.000 A 
ATOM     13  C   UNL     1      99.661 127.353  82.679  0.00  0.00    +0.000 A 
ATOM     14  C   UNL     1      99.066 128.507  83.195  0.00  0.00    +0.000 A 
ATOM     15  C   UNL     1      99.857 129.486  83.791  0.00  0.00    +0.000 A 
ATOM     16  C   UNL     1     101.238 129.322  83.874  0.00  0.00    +0.000 A 
ATOM     17  C   UNL     1     101.833 128.170  83.359  0.00  0.00    +0.000 A 
ATOM     18 CL   UNL     1      99.125 130.906  84.429  0.00  0.00    +0.000 Cl
ENDBRANCH  11  12
ENDBRANCH   1  11
TORSDOF 4
ENDMDL
