REMARK  Name = *****
REMARK  5 active torsions:
REMARK  status: ('A' for Active; 'I' for Inactive)
REMARK    1  A    between atoms: C_4  and  C_7
REMARK    2  A    between atoms: C_7  and  C_8
REMARK    3  A    between atoms: C_8  and  C_9
REMARK    4  A    between atoms: C_9  and  C_10
REMARK    5  A    between atoms: C_10  and  C_11
REMARK                            x       y       z     vdW  Elec       q    Type
REMARK                         _______ _______ _______ _____ _____    ______ ____
ROOT
ATOM      1  C   UNL     1      -3.553  -0.769  -0.443  0.00  0.00    +0.000 C 
ENDROOT
BRANCH   1   2
ATOM      2  C   UNL     1      -5.081  -0.596  -0.423  0.00  0.00    +0.000 C 
ATOM      3 CL   UNL     1      -5.813  -2.168  -0.888  0.00  0.00    +0.000 Cl
BRANCH   2   4
ATOM      4  C   UNL     1      -5.568   0.513  -1.357  0.00  0.00    +0.000 C 
BRANCH   4   5
ATOM      5  C   UNL     1      -7.024   0.863  -1.146  0.00  0.00    +0.000 C 
ATOM      6  F   UNL     1      -7.254   1.203   0.141  0.00  0.00    +0.000 F 
ATOM      7  F   UNL     1      -7.354   1.931  -1.909  0.00  0.00    +0.000 F 
ATOM      8  F   UNL     1      -7.861  -0.137  -1.474  0.00  0.00    +0.000 F 
ENDBRANCH   4   5
ENDBRANCH   2   4
ENDBRANCH   1   2
BRANCH   1   9
ATOM      9  C   UNL     1      -2.803   0.419   0.171  0.00  0.00    +0.000 C 
BRANCH   9  13
ATOM     10  C   UNL     1       1.425  -0.390   0.428  0.00  0.00    +0.000 A 
ATOM     11  C   UNL     1       0.886   0.138  -0.744  0.00  0.00    +0.000 A 
ATOM     12  C   UNL     1      -0.482   0.405  -0.826  0.00  0.00    +0.000 A 
ATOM     13  C   UNL     1      -1.322   0.149   0.266  0.00  0.00    +0.000 A 
ATOM     14  C   UNL     1      -0.771  -0.388   1.437  0.00  0.00    +0.000 A 
ATOM     15  C   UNL     1       0.597  -0.654   1.517  0.00  0.00    +0.000 A 
ENDBRANCH   9  13
ENDBRANCH   1   9
TORSDOF 5
