REMARK  Name = *****
REMARK  2 active torsions:
REMARK  status: ('A' for Active; 'I' for Inactive)
REMARK    1  A    between atoms: C_4  and  O_7
REMARK    2  A    between atoms: O_7  and  C_8
REMARK                            x       y       z     vdW  Elec       q    Type
REMARK                         _______ _______ _______ _____ _____    ______ ____
ROOT
ATOM      1  C   UNL     1      -4.088   0.758  -0.545  0.00  0.00    +0.000 A 
ATOM      2  N   UNL     1      -3.938   1.400  -1.709  0.00  0.00    +0.000 NA
ATOM      3  O   UNL     1      -5.183   1.322  -2.324  0.00  0.00    +0.000 OA
ATOM      4  C   UNL     1      -6.037   0.618  -1.531  0.00  0.00    +0.000 A 
ATOM      5  C   UNL     1      -7.368   0.321  -1.813  0.00  0.00    +0.000 A 
ATOM      6  C   UNL     1      -8.054  -0.425  -0.847  0.00  0.00    +0.000 A 
ATOM      7  C   UNL     1      -7.423  -0.843   0.330  0.00  0.00    +0.000 A 
ATOM      8  C   UNL     1      -6.080  -0.526   0.583  0.00  0.00    +0.000 A 
ATOM      9  C   UNL     1      -5.381   0.225  -0.377  0.00  0.00    +0.000 A 
ENDROOT
BRANCH   1  10
ATOM     10  O   UNL     1      -3.053   0.603   0.313  0.00  0.00    +0.000 OA
BRANCH  10  14
ATOM     11  C   UNL     1       0.362   2.978   0.402  0.00  0.00    +0.000 A 
ATOM     12  C   UNL     1      -0.887   3.592   0.306  0.00  0.00    +0.000 A 
ATOM     13  C   UNL     1      -2.046   2.816   0.261  0.00  0.00    +0.000 A 
ATOM     14  C   UNL     1      -1.951   1.423   0.295  0.00  0.00    +0.000 A 
ATOM     15  C   UNL     1      -0.703   0.810   0.412  0.00  0.00    +0.000 A 
ATOM     16  C   UNL     1       0.455   1.588   0.458  0.00  0.00    +0.000 A 
ENDBRANCH  10  14
ENDBRANCH   1  10
TORSDOF 2
