REMARK  Name = *****
REMARK  2 active torsions:
REMARK  status: ('A' for Active; 'I' for Inactive)
REMARK    1  A    between atoms: C_1  and  C_2
REMARK    2  A    between atoms: C_6  and  C_12
REMARK                            x       y       z     vdW  Elec       q    Type
REMARK                         _______ _______ _______ _____ _____    ______ ____
ROOT
ATOM      1  C   UNL     1       0.989  -0.059   0.362  0.00  0.00    +0.000 C 
ATOM      2  C   UNL     1       2.469   0.005   0.101  0.00  0.00    +0.000 A 
ATOM      3  C   UNL     1       3.163   1.235   0.092  0.00  0.00    +0.000 A 
ATOM      4  C   UNL     1       2.474   2.542   0.334  0.00  0.00    +0.000 C 
ATOM      5  O   UNL     1       3.317   3.705   0.323  0.00  0.00    +0.000 OA
ATOM      6  C   UNL     1       4.634   3.569   0.060  0.00  0.00    +0.000 C 
ATOM      7  N   UNL     1       5.252   2.459  -0.172  0.00  0.00    +0.000 NA
ATOM      8  C   UNL     1       4.535   1.264  -0.153  0.00  0.00    +0.000 A 
ATOM      9  C   UNL     1       5.222   0.072  -0.387  0.00  0.00    +0.000 A 
ATOM     10  C   UNL     1       4.550  -1.148  -0.378  0.00  0.00    +0.000 A 
ATOM     11  C   UNL     1       3.179  -1.181  -0.134  0.00  0.00    +0.000 A 
ENDROOT
BRANCH   6  12
ATOM     12  C   UNL     1       5.321   4.888   0.065  0.00  0.00    +0.000 A 
ATOM     13  C   UNL     1       4.641   6.079   0.360  0.00  0.00    +0.000 A 
ATOM     14  C   UNL     1       5.322   7.299   0.355  0.00  0.00    +0.000 A 
ATOM     15  C   UNL     1       6.683   7.340   0.057  0.00  0.00    +0.000 A 
ATOM     16  C   UNL     1       7.368   6.161  -0.237  0.00  0.00    +0.000 A 
ATOM     17  C   UNL     1       6.690   4.940  -0.233  0.00  0.00    +0.000 A 
ENDBRANCH   6  12
TORSDOF 1
