MODEL 1
REMARK VINA RESULT:      -4.3      0.000      0.000
REMARK  Name = *****
REMARK  3 active torsions:
REMARK  status: ('A' for Active; 'I' for Inactive)
REMARK    1  A    between atoms: C_5  and  C_7
REMARK    2  A    between atoms: C_7  and  C_9
REMARK    3  A    between atoms: C_9  and  C_10
REMARK                            x       y       z     vdW  Elec       q    Type
REMARK                         _______ _______ _______ _____ _____    ______ ____
ROOT
ATOM      1  C   UNL     1     105.331 124.286  80.761  0.00  0.00    +0.000 C 
ATOM      2  O   UNL     1     106.496 124.674  80.802  0.00  0.00    +0.000 OA
ENDROOT
BRANCH   1   7
ATOM      3  C   UNL     1     104.452 120.701  81.406  0.00  0.00    +0.000 A 
ATOM      4  C   UNL     1     104.288 120.680  82.790  0.00  0.00    +0.000 A 
ATOM      5  C   UNL     1     104.446 121.852  83.532  0.00  0.00    +0.000 A 
ATOM      6  C   UNL     1     104.781 123.051  82.894  0.00  0.00    +0.000 A 
ATOM      7  C   UNL     1     104.964 123.066  81.510  0.00  0.00    +0.000 A 
ATOM      8  C   UNL     1     104.785 121.892  80.763  0.00  0.00    +0.000 A 
ATOM      9 CL   UNL     1     104.899 124.471  83.867  0.00  0.00    +0.000 Cl
ENDBRANCH   1   7
BRANCH   1  10
ATOM     10  C   UNL     1     104.229 125.062  80.066  0.00  0.00    +0.000 C 
BRANCH  10  11
ATOM     11  C   UNL     1     103.535 126.036  80.987  0.00  0.00    +0.000 A 
ATOM     12  C   UNL     1     104.096 127.300  81.227  0.00  0.00    +0.000 A 
ATOM     13  C   UNL     1     103.472 128.196  82.095  0.00  0.00    +0.000 A 
ATOM     14  C   UNL     1     102.286 127.834  82.730  0.00  0.00    +0.000 A 
ATOM     15  C   UNL     1     101.719 126.582  82.502  0.00  0.00    +0.000 A 
ATOM     16  C   UNL     1     102.343 125.683  81.633  0.00  0.00    +0.000 A 
ATOM     17 CL   UNL     1     101.518 128.938  83.802  0.00  0.00    +0.000 Cl
ENDBRANCH  10  11
ENDBRANCH   1  10
TORSDOF 3
ENDMDL
