MODEL 1
REMARK VINA RESULT:      -3.9      0.000      0.000
REMARK  Name = *****
REMARK  3 active torsions:
REMARK  status: ('A' for Active; 'I' for Inactive)
REMARK    1  A    between atoms: N_4  and  C_7
REMARK    2  A    between atoms: C_7  and  S_9
REMARK    3  A    between atoms: S_9  and  C_10
REMARK                            x       y       z     vdW  Elec       q    Type
REMARK                         _______ _______ _______ _____ _____    ______ ____
ROOT
ATOM      1  C   UNL     1      88.156  66.083  87.243  0.00  0.00    +0.000 C 
ATOM      2  S   UNL     1      89.564  65.985  86.322  0.00  0.00    +0.000 S 
ENDROOT
BRANCH   1   6
ATOM      3  C   UNL     1      87.369  63.849  90.844  0.00  0.00    +0.000 C 
ATOM      4  C   UNL     1      86.587  65.103  90.474  0.00  0.00    +0.000 C 
ATOM      5  C   UNL     1      86.504  65.292  88.960  0.00  0.00    +0.000 C 
ATOM      6  N   UNL     1      87.835  65.254  88.332  0.00  0.00    +0.000 N 
ATOM      7  C   UNL     1      88.607  64.045  88.667  0.00  0.00    +0.000 C 
ATOM      8  C   UNL     1      88.738  63.858  90.175  0.00  0.00    +0.000 C 
ENDBRANCH   1   6
BRANCH   1   9
ATOM      9  S   UNL     1      86.961  67.309  86.785  0.00  0.00    +0.000 S 
BRANCH   9  10
ATOM     10  C   UNL     1      87.471  68.704  87.776  0.00  0.00    +0.000 A 
ATOM     11  C   UNL     1      86.754  69.000  88.944  0.00  0.00    +0.000 A 
ATOM     12  C   UNL     1      87.122  70.084  89.745  0.00  0.00    +0.000 A 
ATOM     13  C   UNL     1      88.216  70.869  89.387  0.00  0.00    +0.000 A 
ATOM     14  C   UNL     1      88.947  70.575  88.239  0.00  0.00    +0.000 A 
ATOM     15  C   UNL     1      88.578  69.490  87.438  0.00  0.00    +0.000 A 
ATOM     16 CL   UNL     1      88.668  72.206  90.371  0.00  0.00    +0.000 Cl
ENDBRANCH   9  10
ENDBRANCH   1   9
TORSDOF 3
ENDMDL
