REMARK  Name = *****
REMARK  4 active torsions:
REMARK  status: ('A' for Active; 'I' for Inactive)
REMARK    1  A    between atoms: C_1  and  C_2
REMARK    2  A    between atoms: C_7  and  O_8
REMARK    3  A    between atoms: O_8  and  C_9
REMARK    4  A    between atoms: C_9  and  C_10
REMARK                            x       y       z     vdW  Elec       q    Type
REMARK                         _______ _______ _______ _____ _____    ______ ____
ROOT
ATOM      1  C   UNL     1       2.109   2.080   1.639  0.00  0.00    +0.000 C 
ATOM      2  C   UNL     1       1.790   0.934   0.729  0.00  0.00    +0.000 A 
ATOM      3  C   UNL     1       0.475   0.477   0.579  0.00  0.00    +0.000 A 
ATOM      4  C   UNL     1       0.215  -0.590  -0.273  0.00  0.00    +0.000 A 
ATOM      5  C   UNL     1       1.275  -1.170  -0.950  0.00  0.00    +0.000 A 
ATOM      6  N   UNL     1       2.559  -0.757  -0.832  0.00  0.00    +0.000 NA
ATOM      7  C   UNL     1       2.789   0.283   0.003  0.00  0.00    +0.000 A 
ATOM      8 BR   UNL     1      -1.543  -1.232  -0.499  0.00  0.00    +0.000 Br
ENDROOT
BRANCH   7   9
ATOM      9  O   UNL     1       4.080   0.744   0.162  0.00  0.00    +0.000 OA
BRANCH   9  10
ATOM     10  C   UNL     1       5.037   0.033  -0.621  0.00  0.00    +0.000 C 
BRANCH  10  11
ATOM     11  C   UNL     1       6.394   0.650  -0.375  0.00  0.00    +0.000 A 
ATOM     12  C   UNL     1       6.660   1.961  -0.797  0.00  0.00    +0.000 A 
ATOM     13  C   UNL     1       7.912   2.537  -0.576  0.00  0.00    +0.000 A 
ATOM     14  C   UNL     1       8.910   1.809   0.070  0.00  0.00    +0.000 A 
ATOM     15  C   UNL     1       8.656   0.506   0.496  0.00  0.00    +0.000 A 
ATOM     16  C   UNL     1       7.404  -0.071   0.276  0.00  0.00    +0.000 A 
ENDBRANCH  10  11
ENDBRANCH   9  10
ENDBRANCH   7   9
TORSDOF 3
