MODEL 1
REMARK VINA RESULT:      -4.5      0.000      0.000
REMARK  Name = *****
REMARK  3 active torsions:
REMARK  status: ('A' for Active; 'I' for Inactive)
REMARK    1  A    between atoms: C_5  and  C_7
REMARK    2  A    between atoms: C_7  and  C_8
REMARK    3  A    between atoms: C_9  and  C_10
REMARK                            x       y       z     vdW  Elec       q    Type
REMARK                         _______ _______ _______ _____ _____    ______ ____
ROOT
ATOM      1  C   UNL     1      87.295  70.576  87.418  0.00  0.00    +0.000 C 
ATOM      2  C   UNL     1      86.498  71.376  88.144  0.00  0.00    +0.000 C 
ENDROOT
BRANCH   2   3
ATOM      3  C   UNL     1      85.242  71.962  87.655  0.00  0.00    +0.000 A 
ATOM      4  C   UNL     1      84.244  72.428  88.522  0.00  0.00    +0.000 A 
ATOM      5  C   UNL     1      83.078  73.008  88.018  0.00  0.00    +0.000 A 
ATOM      6  C   UNL     1      82.900  73.138  86.642  0.00  0.00    +0.000 A 
ATOM      7  C   UNL     1      83.891  72.693  85.770  0.00  0.00    +0.000 A 
ATOM      8  C   UNL     1      85.058  72.114  86.275  0.00  0.00    +0.000 A 
ENDBRANCH   2   3
BRANCH   1   9
ATOM      9  C   UNL     1      88.580  69.986  87.937  0.00  0.00    +0.000 C 
BRANCH   9  14
ATOM     10  C   UNL     1      90.360  70.578  84.519  0.00  0.00    +0.000 C 
ATOM     11  C   UNL     1      90.004  69.207  83.945  0.00  0.00    +0.000 C 
ATOM     12  C   UNL     1      89.842  68.160  85.007  0.00  0.00    +0.000 C 
ATOM     13  C   UNL     1      89.716  68.448  86.311  0.00  0.00    +0.000 C 
ATOM     14  C   UNL     1      89.681  69.860  86.861  0.00  0.00    +0.000 C 
ATOM     15  C   UNL     1      89.506  70.907  85.741  0.00  0.00    +0.000 C 
ENDBRANCH   9  14
ENDBRANCH   1   9
TORSDOF 3
ENDMDL
