REMARK  Name = *****
REMARK  4 active torsions:
REMARK  status: ('A' for Active; 'I' for Inactive)
REMARK    1  A    between atoms: C_1  and  C_2
REMARK    2  A    between atoms: C_2  and  C_4
REMARK    3  A    between atoms: C_8  and  C_10
REMARK    4  A    between atoms: C_11  and  C_12
REMARK                            x       y       z     vdW  Elec       q    Type
REMARK                         _______ _______ _______ _____ _____    ______ ____
ROOT
ATOM      1  C   UNL     1       3.224  -1.246   0.413  0.00  0.00    +0.000 A 
ATOM      2  C   UNL     1       2.763  -2.540   0.146  0.00  0.00    +0.000 A 
ATOM      3  C   UNL     1       3.557  -3.643   0.463  0.00  0.00    +0.000 A 
ATOM      4  C   UNL     1       4.815  -3.460   1.042  0.00  0.00    +0.000 A 
ATOM      5  C   UNL     1       5.298  -2.173   1.302  0.00  0.00    +0.000 A 
ATOM      6  C   UNL     1       4.488  -1.071   0.998  0.00  0.00    +0.000 A 
ENDROOT
BRANCH   1   8
ATOM      7  C   UNL     1       1.073  -0.201  -0.566  0.00  0.00    +0.000 C 
ATOM      8  C   UNL     1       2.413  -0.032   0.101  0.00  0.00    +0.000 C 
ATOM      9  O   UNL     1       2.843   1.084   0.388  0.00  0.00    +0.000 OA
ENDBRANCH   1   8
BRANCH   5  10
ATOM     10  C   UNL     1       6.603  -1.942   1.938  0.00  0.00    +0.000 C 
ATOM     11  C   UNL     1       7.707  -2.646   1.643  0.00  0.00    +0.000 C 
BRANCH  11  12
ATOM     12  C   UNL     1       9.011  -2.413   2.289  0.00  0.00    +0.000 A 
ATOM     13  C   UNL     1       9.523  -1.107   2.370  0.00  0.00    +0.000 A 
ATOM     14  C   UNL     1      10.769  -0.859   2.951  0.00  0.00    +0.000 A 
ATOM     15  C   UNL     1      11.528  -1.914   3.451  0.00  0.00    +0.000 A 
ATOM     16  C   UNL     1      11.043  -3.218   3.367  0.00  0.00    +0.000 A 
ATOM     17  C   UNL     1       9.795  -3.469   2.786  0.00  0.00    +0.000 A 
ATOM     18 CL   UNL     1       9.261  -5.116   2.727  0.00  0.00    +0.000 Cl
ENDBRANCH  11  12
ENDBRANCH   5  10
TORSDOF 3
