MODEL 1
REMARK VINA RESULT:      -4.3      0.000      0.000
REMARK  Name = *****
REMARK  4 active torsions:
REMARK  status: ('A' for Active; 'I' for Inactive)
REMARK    1  A    between atoms: C_1  and  C_2
REMARK    2  A    between atoms: C_5  and  O_8
REMARK    3  A    between atoms: O_8  and  C_9
REMARK    4  A    between atoms: C_9  and  C_11
REMARK                            x       y       z     vdW  Elec       q    Type
REMARK                         _______ _______ _______ _____ _____    ______ ____
ROOT
ATOM      1  O   UNL     1     103.236 126.618  83.219  0.00  0.00    +0.000 OA
ENDROOT
BRANCH   1   6
ATOM      2  C   UNL     1     105.549 123.370  80.136  0.00  0.00    +0.000 C 
ATOM      3  C   UNL     1     104.264 123.854  80.812  0.00  0.00    +0.000 C 
ATOM      4  C   UNL     1     104.398 123.864  82.346  0.00  0.00    +0.000 C 
ATOM      5  C   UNL     1     105.125 125.111  82.856  0.00  0.00    +0.000 C 
ATOM      6  C   UNL     1     104.411 126.400  82.420  0.00  0.00    +0.000 C 
ATOM      7  C   UNL     1     103.931 126.336  80.995  0.00  0.00    +0.000 C 
ATOM      8  C   UNL     1     103.882 125.209  80.269  0.00  0.00    +0.000 C 
ENDBRANCH   1   6
BRANCH   1   9
ATOM      9  C   UNL     1     102.728 127.873  83.191  0.00  0.00    +0.000 C 
ATOM     10  O   UNL     1     103.369 128.909  83.265  0.00  0.00    +0.000 OA
BRANCH   9  11
ATOM     11  C   UNL     1     101.247 127.831  83.058  0.00  0.00    +0.000 A 
ATOM     12  C   UNL     1     100.508 128.921  83.540  0.00  0.00    +0.000 A 
ATOM     13  C   UNL     1      99.115 128.928  83.439  0.00  0.00    +0.000 A 
ATOM     14  C   UNL     1      98.453 127.848  82.858  0.00  0.00    +0.000 A 
ATOM     15  C   UNL     1      99.179 126.759  82.377  0.00  0.00    +0.000 A 
ATOM     16  C   UNL     1     100.573 126.748  82.476  0.00  0.00    +0.000 A 
ENDBRANCH   9  11
ENDBRANCH   1   9
TORSDOF 3
ENDMDL
