MODEL 1
REMARK VINA RESULT:      -4.9      0.000      0.000
REMARK  Name = *****
REMARK  3 active torsions:
REMARK  status: ('A' for Active; 'I' for Inactive)
REMARK    1  A    between atoms: C_4  and  C_7
REMARK    2  A    between atoms: C_7  and  C_8
REMARK    3  A    between atoms: C_8  and  C_10
REMARK                            x       y       z     vdW  Elec       q    Type
REMARK                         _______ _______ _______ _____ _____    ______ ____
ROOT
ATOM      1  C   UNL     1      88.844  70.172  86.588  0.00  0.00    +0.000 C 
ATOM      2  O   UNL     1      89.656  70.856  87.212  0.00  0.00    +0.000 OA
ENDROOT
BRANCH   1   3
ATOM      3  C   UNL     1      88.934  68.682  86.681  0.00  0.00    +0.000 A 
ATOM      4  C   UNL     1      90.028  67.959  86.198  0.00  0.00    +0.000 A 
ATOM      5  C   UNL     1      90.048  66.569  86.326  0.00  0.00    +0.000 A 
ATOM      6  C   UNL     1      88.993  65.886  86.928  0.00  0.00    +0.000 A 
ATOM      7  C   UNL     1      87.896  66.598  87.407  0.00  0.00    +0.000 A 
ATOM      8  C   UNL     1      87.867  67.991  87.282  0.00  0.00    +0.000 A 
ATOM      9 CL   UNL     1      89.029  64.173  87.087  0.00  0.00    +0.000 Cl
ATOM     10  F   UNL     1      91.113  65.902  85.856  0.00  0.00    +0.000 F 
ENDBRANCH   1   3
BRANCH   1  11
ATOM     11  C   UNL     1      87.774  70.817  85.727  0.00  0.00    +0.000 C 
BRANCH  11  15
ATOM     12  C   UNL     1      84.370  72.343  87.898  0.00  0.00    +0.000 A 
ATOM     13  C   UNL     1      85.441  71.785  88.592  0.00  0.00    +0.000 A 
ATOM     14  C   UNL     1      86.542  71.284  87.894  0.00  0.00    +0.000 A 
ATOM     15  C   UNL     1      86.577  71.322  86.493  0.00  0.00    +0.000 A 
ATOM     16  C   UNL     1      85.500  71.904  85.807  0.00  0.00    +0.000 A 
ATOM     17  C   UNL     1      84.401  72.406  86.507  0.00  0.00    +0.000 A 
ENDBRANCH  11  15
ENDBRANCH   1  11
TORSDOF 3
ENDMDL
