MODEL 1
REMARK VINA RESULT:      -5.0      0.000      0.000
REMARK  Name = *****
REMARK  2 active torsions:
REMARK  status: ('A' for Active; 'I' for Inactive)
REMARK    1  A    between atoms: C_1  and  C_2
REMARK    2  A    between atoms: C_10  and  C_12
REMARK                            x       y       z     vdW  Elec       q    Type
REMARK                         _______ _______ _______ _____ _____    ______ ____
ROOT
ATOM      1  C   UNL     1     103.179 130.049  84.523  0.00  0.00    +0.000 C 
ATOM      2  C   UNL     1     101.741 129.761  84.189  0.00  0.00    +0.000 A 
ATOM      3  C   UNL     1     101.361 128.557  83.570  0.00  0.00    +0.000 A 
ATOM      4  C   UNL     1     100.014 128.320  83.296  0.00  0.00    +0.000 A 
ATOM      5  C   UNL     1      99.039 129.259  83.660  0.00  0.00    +0.000 A 
ATOM      6  C   UNL     1      99.412 130.443  84.289  0.00  0.00    +0.000 A 
ATOM      7  C   UNL     1     100.757 130.692  84.555  0.00  0.00    +0.000 A 
ATOM      8  C   UNL     1      99.636 127.029  82.649  0.00  0.00    +0.000 C 
ATOM      9  O   UNL     1     100.733 126.279  82.111  0.00  0.00    +0.000 OA
ATOM     10  C   UNL     1     101.986 126.583  82.519  0.00  0.00    +0.000 C 
ATOM     11  N   UNL     1     102.329 127.611  83.222  0.00  0.00    +0.000 NA
ENDROOT
BRANCH  10  12
ATOM     12  C   UNL     1     102.958 125.558  82.060  0.00  0.00    +0.000 A 
ATOM     13  C   UNL     1     103.366 125.473  80.721  0.00  0.00    +0.000 A 
ATOM     14  C   UNL     1     104.289 124.500  80.328  0.00  0.00    +0.000 A 
ATOM     15  C   UNL     1     104.807 123.608  81.266  0.00  0.00    +0.000 A 
ATOM     16  C   UNL     1     104.407 123.687  82.599  0.00  0.00    +0.000 A 
ATOM     17  C   UNL     1     103.488 124.661  82.997  0.00  0.00    +0.000 A 
ENDBRANCH  10  12
TORSDOF 1
ENDMDL
