MODEL 1
REMARK VINA RESULT:      -5.2      0.000      0.000
REMARK  Name = *****
REMARK  3 active torsions:
REMARK  status: ('A' for Active; 'I' for Inactive)
REMARK    1  A    between atoms: C_1  and  C_2
REMARK    2  A    between atoms: C_9  and  C_11
REMARK    3  A    between atoms: C_12  and  C_13
REMARK                            x       y       z     vdW  Elec       q    Type
REMARK                         _______ _______ _______ _____ _____    ______ ____
ROOT
ATOM      1  C   UNL     1     107.513 120.377  81.544  0.00  0.00    +0.000 C 
ATOM      2  C   UNL     1     106.640 121.549  81.334  0.00  0.00    +0.000 A 
ATOM      3  N   UNL     1     105.622 121.962  82.064  0.00  0.00    +0.000 NA
ATOM      4  C   UNL     1     105.190 123.086  81.406  0.00  0.00    +0.000 A 
ATOM      5  C   UNL     1     105.977 123.309  80.290  0.00  0.00    +0.000 A 
ATOM      6  O   UNL     1     106.916 122.320  80.236  0.00  0.00    +0.000 OA
ATOM      7  C   UNL     1     105.815 124.365  79.406  0.00  0.00    +0.000 A 
ATOM      8  C   UNL     1     104.764 125.246  79.702  0.00  0.00    +0.000 A 
ATOM      9  C   UNL     1     103.923 125.058  80.816  0.00  0.00    +0.000 A 
ATOM     10  C   UNL     1     104.142 123.974  81.687  0.00  0.00    +0.000 A 
ENDROOT
BRANCH   9  11
ATOM     11  C   UNL     1     102.843 126.004  81.140  0.00  0.00    +0.000 C 
ATOM     12  C   UNL     1     102.130 125.966  82.278  0.00  0.00    +0.000 C 
BRANCH  12  13
ATOM     13  C   UNL     1     101.062 126.922  82.606  0.00  0.00    +0.000 A 
ATOM     14  C   UNL     1      99.714 126.665  82.324  0.00  0.00    +0.000 A 
ATOM     15  C   UNL     1      98.725 127.585  82.681  0.00  0.00    +0.000 A 
ATOM     16  C   UNL     1      99.071 128.766  83.334  0.00  0.00    +0.000 A 
ATOM     17  C   UNL     1     100.407 129.027  83.634  0.00  0.00    +0.000 A 
ATOM     18  C   UNL     1     101.396 128.106  83.278  0.00  0.00    +0.000 A 
ENDBRANCH  12  13
ENDBRANCH   9  11
TORSDOF 2
ENDMDL
