REMARK  Name = *****
REMARK  6 active torsions:
REMARK  status: ('A' for Active; 'I' for Inactive)
REMARK    1  A    between atoms: C_1  and  C_2
REMARK    2  A    between atoms: C_5  and  C_8
REMARK    3  A    between atoms: C_8  and  O_10
REMARK    4  A    between atoms: O_10  and  C_11
REMARK    5  A    between atoms: C_12  and  C_18
REMARK    6  A    between atoms: C_15  and  C_17
REMARK                            x       y       z     vdW  Elec       q    Type
REMARK                         _______ _______ _______ _____ _____    ______ ____
ROOT
ATOM      1  C   UNL     1      -3.944   2.337  -1.489  0.00  0.00    +0.000 C 
ATOM      2  O   UNL     1      -4.241   3.426  -1.021  0.00  0.00    +0.000 OA
ENDROOT
BRANCH   1   7
ATOM      3  C   UNL     1       1.009   1.569  -4.416  0.00  0.00    +0.000 C 
ATOM      4  C   UNL     1      -0.261   1.747  -3.637  0.00  0.00    +0.000 A 
ATOM      5  C   UNL     1      -1.125   0.664  -3.435  0.00  0.00    +0.000 A 
ATOM      6  C   UNL     1      -2.325   0.832  -2.737  0.00  0.00    +0.000 A 
ATOM      7  C   UNL     1      -2.681   2.093  -2.241  0.00  0.00    +0.000 A 
ATOM      8  C   UNL     1      -1.823   3.180  -2.455  0.00  0.00    +0.000 A 
ATOM      9  C   UNL     1      -0.625   3.008  -3.154  0.00  0.00    +0.000 A 
ENDBRANCH   1   7
BRANCH   1  10
ATOM     10  O   UNL     1      -4.677   1.167  -1.423  0.00  0.00    +0.000 OA
BRANCH  10  11
ATOM     11  C   UNL     1      -5.884   1.287  -0.722  0.00  0.00    +0.000 A 
ATOM     12  C   UNL     1      -5.990   0.717   0.552  0.00  0.00    +0.000 A 
ATOM     13  C   UNL     1      -7.217   0.815   1.217  0.00  0.00    +0.000 A 
ATOM     14  C   UNL     1      -8.311   1.440   0.608  0.00  0.00    +0.000 A 
ATOM     15  C   UNL     1      -8.204   1.970  -0.685  0.00  0.00    +0.000 A 
ATOM     16  C   UNL     1      -6.976   1.894  -1.349  0.00  0.00    +0.000 A 
ATOM     17  C   UNL     1      -9.369   2.669  -1.319  0.00  0.00    +0.000 C 
ATOM     18  C   UNL     1      -4.817   0.053   1.208  0.00  0.00    +0.000 C 
ENDBRANCH  10  11
ENDBRANCH   1  10
TORSDOF 3
