MODEL 1
REMARK VINA RESULT:      -4.3      0.000      0.000
REMARK  Name = *****
REMARK  3 active torsions:
REMARK  status: ('A' for Active; 'I' for Inactive)
REMARK    1  A    between atoms: C_4  and  C_7
REMARK    2  A    between atoms: C_7  and  O_9
REMARK    3  A    between atoms: O_9  and  C_10
REMARK                            x       y       z     vdW  Elec       q    Type
REMARK                         _______ _______ _______ _____ _____    ______ ____
ROOT
ATOM      1  C   UNL     1      87.806  70.692  87.895  0.00  0.00    +0.000 C 
ATOM      2  S   UNL     1      88.354  70.812  89.467  0.00  0.00    +0.000 S 
ENDROOT
BRANCH   1   6
ATOM      3  C   UNL     1      84.255  72.456  86.247  0.00  0.00    +0.000 A 
ATOM      4  C   UNL     1      85.260  71.997  85.399  0.00  0.00    +0.000 A 
ATOM      5  C   UNL     1      86.418  71.420  85.930  0.00  0.00    +0.000 A 
ATOM      6  C   UNL     1      86.577  71.298  87.318  0.00  0.00    +0.000 A 
ATOM      7  C   UNL     1      85.558  71.766  88.163  0.00  0.00    +0.000 A 
ATOM      8  C   UNL     1      84.402  72.341  87.628  0.00  0.00    +0.000 A 
ENDBRANCH   1   6
BRANCH   1   9
ATOM      9  O   UNL     1      88.490  70.019  86.878  0.00  0.00    +0.000 OA
BRANCH   9  10
ATOM     10  C   UNL     1      88.741  68.630  86.885  0.00  0.00    +0.000 A 
ATOM     11  C   UNL     1      87.773  67.763  87.388  0.00  0.00    +0.000 A 
ATOM     12  C   UNL     1      88.011  66.390  87.343  0.00  0.00    +0.000 A 
ATOM     13  C   UNL     1      89.197  65.904  86.786  0.00  0.00    +0.000 A 
ATOM     14  C   UNL     1      90.147  66.787  86.268  0.00  0.00    +0.000 A 
ATOM     15  C   UNL     1      89.918  68.161  86.309  0.00  0.00    +0.000 A 
ENDBRANCH   9  10
ENDBRANCH   1   9
TORSDOF 3
ENDMDL
