MODEL 1
REMARK VINA RESULT:      -4.5      0.000      0.000
REMARK  Name = *****
REMARK  4 active torsions:
REMARK  status: ('A' for Active; 'I' for Inactive)
REMARK    1  A    between atoms: C_1  and  C_2
REMARK    2  A    between atoms: C_4  and  O_8
REMARK    3  A    between atoms: O_8  and  C_9
REMARK    4  A    between atoms: C_9  and  C_11
REMARK                            x       y       z     vdW  Elec       q    Type
REMARK                         _______ _______ _______ _____ _____    ______ ____
ROOT
ATOM      1  O   UNL     1      88.142  69.561  87.243  0.00  0.00    +0.000 OA
ENDROOT
BRANCH   1   5
ATOM      2  C   UNL     1      90.413  71.786  83.855  0.00  0.00    +0.000 C 
ATOM      3  C   UNL     1      90.082  70.595  84.705  0.00  0.00    +0.000 C 
ATOM      4  C   UNL     1      89.841  70.703  86.025  0.00  0.00    +0.000 C 
ATOM      5  C   UNL     1      89.546  69.540  86.933  0.00  0.00    +0.000 C 
ATOM      6  C   UNL     1      89.859  68.190  86.271  0.00  0.00    +0.000 C 
ATOM      7  C   UNL     1      89.379  68.154  84.822  0.00  0.00    +0.000 C 
ATOM      8  C   UNL     1      90.031  69.265  83.993  0.00  0.00    +0.000 C 
ENDBRANCH   1   5
BRANCH   1   9
ATOM      9  C   UNL     1      87.738  70.498  88.133  0.00  0.00    +0.000 C 
ATOM     10  O   UNL     1      88.271  70.754  89.201  0.00  0.00    +0.000 OA
BRANCH   9  11
ATOM     11  C   UNL     1      86.526  71.202  87.632  0.00  0.00    +0.000 A 
ATOM     12  C   UNL     1      85.590  71.657  88.571  0.00  0.00    +0.000 A 
ATOM     13  C   UNL     1      84.435  72.322  88.151  0.00  0.00    +0.000 A 
ATOM     14  C   UNL     1      84.211  72.536  86.792  0.00  0.00    +0.000 A 
ATOM     15  C   UNL     1      85.138  72.088  85.851  0.00  0.00    +0.000 A 
ATOM     16  C   UNL     1      86.293  71.422  86.267  0.00  0.00    +0.000 A 
ENDBRANCH   9  11
ENDBRANCH   1   9
TORSDOF 3
ENDMDL
