MODEL 1
REMARK VINA RESULT:      -4.6      0.000      0.000
REMARK  Name = *****
REMARK  4 active torsions:
REMARK  status: ('A' for Active; 'I' for Inactive)
REMARK    1  A    between atoms: C_1  and  O_2
REMARK    2  A    between atoms: O_2  and  C_3
REMARK    3  A    between atoms: C_3  and  C_13
REMARK    4  A    between atoms: N_4  and  C_5
REMARK                            x       y       z     vdW  Elec       q    Type
REMARK                         _______ _______ _______ _____ _____    ______ ____
ROOT
ATOM      1  C   UNL     1     102.664 126.477  82.332  0.00  0.00    +0.000 C 
ATOM      2  N   UNL     1     101.922 126.608  83.387  0.00  0.00    +0.000 NA
ENDROOT
BRANCH   2   3
ATOM      3  C   UNL     1     101.148 127.766  83.576  0.00  0.00    +0.000 A 
ATOM      4  C   UNL     1      99.835 127.867  83.077  0.00  0.00    +0.000 A 
ATOM      5  C   UNL     1      99.097 129.040  83.243  0.00  0.00    +0.000 A 
ATOM      6  C   UNL     1      99.677 130.121  83.894  0.00  0.00    +0.000 A 
ATOM      7  C   UNL     1     100.977 130.054  84.379  0.00  0.00    +0.000 A 
ATOM      8  C   UNL     1     101.713 128.880  84.212  0.00  0.00    +0.000 A 
ATOM      9  F   UNL     1      98.972 131.248  84.055  0.00  0.00    +0.000 F 
ATOM     10 CL   UNL     1      99.083 126.543  82.258  0.00  0.00    +0.000 Cl
ENDBRANCH   2   3
BRANCH   1  11
ATOM     11  C   UNL     1     103.424 125.235  82.032  0.00  0.00    +0.000 A 
ATOM     12  C   UNL     1     103.806 124.897  80.726  0.00  0.00    +0.000 A 
ATOM     13  C   UNL     1     104.521 123.722  80.485  0.00  0.00    +0.000 A 
ATOM     14  C   UNL     1     104.858 122.878  81.543  0.00  0.00    +0.000 A 
ATOM     15  C   UNL     1     104.480 123.205  82.844  0.00  0.00    +0.000 A 
ATOM     16  C   UNL     1     103.764 124.379  83.090  0.00  0.00    +0.000 A 
ENDBRANCH   1  11
BRANCH   1  18
ATOM     17  C   UNL     1     104.003 128.217  81.485  0.00  0.00    +0.000 C 
ATOM     18  O   UNL     1     102.827 127.408  81.360  0.00  0.00    +0.000 OA
ENDBRANCH   1  18
TORSDOF 3
ENDMDL
