REMARK  Name = *****
REMARK  4 active torsions:
REMARK  status: ('A' for Active; 'I' for Inactive)
REMARK    1  A    between atoms: C_1  and  C_2
REMARK    2  A    between atoms: C_5  and  S_8
REMARK    3  A    between atoms: S_8  and  C_9
REMARK    4  A    between atoms: C_9  and  C_10
REMARK                            x       y       z     vdW  Elec       q    Type
REMARK                         _______ _______ _______ _____ _____    ______ ____
ROOT
ATOM      1  S   UNL     1      -3.551  -0.085   0.377  0.00  0.00    +0.000 S 
ENDROOT
BRANCH   1   6
ATOM      2  C   UNL     1       2.547  -0.029   0.228  0.00  0.00    +0.000 C 
ATOM      3  C   UNL     1       1.048  -0.016   0.250  0.00  0.00    +0.000 A 
ATOM      4  C   UNL     1       0.360   0.902   1.051  0.00  0.00    +0.000 A 
ATOM      5  C   UNL     1      -1.038   0.896   1.099  0.00  0.00    +0.000 A 
ATOM      6  C   UNL     1      -1.767  -0.026   0.344  0.00  0.00    +0.000 A 
ATOM      7  C   UNL     1      -1.080  -0.963  -0.432  0.00  0.00    +0.000 A 
ATOM      8  C   UNL     1       0.317  -0.960  -0.479  0.00  0.00    +0.000 A 
ENDBRANCH   1   6
BRANCH   1   9
ATOM      9  C   UNL     1      -3.978   1.651  -0.002  0.00  0.00    +0.000 C 
BRANCH   9  10
ATOM     10  C   UNL     1      -3.493   2.119  -1.348  0.00  0.00    +0.000 A 
ATOM     11  C   UNL     1      -3.969   1.544  -2.537  0.00  0.00    +0.000 A 
ATOM     12  C   UNL     1      -3.509   1.994  -3.777  0.00  0.00    +0.000 A 
ATOM     13  C   UNL     1      -2.572   3.025  -3.846  0.00  0.00    +0.000 A 
ATOM     14  C   UNL     1      -2.098   3.609  -2.673  0.00  0.00    +0.000 A 
ATOM     15  C   UNL     1      -2.560   3.156  -1.441  0.00  0.00    +0.000 A 
ATOM     16  F   UNL     1      -2.099   3.744  -0.327  0.00  0.00    +0.000 F 
ENDBRANCH   9  10
ENDBRANCH   1   9
TORSDOF 3
