MODEL 1
REMARK VINA RESULT:      -4.5      0.000      0.000
REMARK  Name = *****
REMARK  5 active torsions:
REMARK  status: ('A' for Active; 'I' for Inactive)
REMARK    1  A    between atoms: C_1  and  C_2
REMARK    2  A    between atoms: C_5  and  S_8
REMARK    3  A    between atoms: S_8  and  O_10
REMARK    4  A    between atoms: O_10  and  C_11
REMARK    5  A    between atoms: C_16  and  C_18
REMARK                            x       y       z     vdW  Elec       q    Type
REMARK                         _______ _______ _______ _____ _____    ______ ____
ROOT
ATOM      1  S   UNL     1      89.202  66.554  86.334  0.00  0.00    +0.000 S 
ATOM      2  O   UNL     1      90.690  66.711  86.221  0.00  0.00    +0.000 OA
ENDROOT
BRANCH   1   7
ATOM      3  C   UNL     1      87.236  71.554  89.276  0.00  0.00    +0.000 C 
ATOM      4  C   UNL     1      87.728  70.322  88.576  0.00  0.00    +0.000 A 
ATOM      5  C   UNL     1      88.913  70.354  87.831  0.00  0.00    +0.000 A 
ATOM      6  C   UNL     1      89.353  69.216  87.152  0.00  0.00    +0.000 A 
ATOM      7  C   UNL     1      88.606  68.032  87.194  0.00  0.00    +0.000 A 
ATOM      8  C   UNL     1      87.417  68.002  87.931  0.00  0.00    +0.000 A 
ATOM      9  C   UNL     1      86.978  69.140  88.611  0.00  0.00    +0.000 A 
ENDBRANCH   1   7
BRANCH   1  10
ATOM     10  O   UNL     1      88.907  65.596  87.595  0.00  0.00    +0.000 OA
BRANCH  10  11
ATOM     11  C   UNL     1      88.188  64.399  87.306  0.00  0.00    +0.000 C 
ATOM     12  C   UNL     1      86.886  64.737  86.549  0.00  0.00    +0.000 C 
ATOM     13  C   UNL     1      85.785  64.253  87.508  0.00  0.00    +0.000 C 
ATOM     14  C   UNL     1      85.784  62.716  87.528  0.00  0.00    +0.000 C 
ATOM     15  C   UNL     1      87.068  62.380  88.300  0.00  0.00    +0.000 C 
ATOM     16  C   UNL     1      87.655  63.772  88.625  0.00  0.00    +0.000 C 
ATOM     17  C   UNL     1      86.381  64.589  88.875  0.00  0.00    +0.000 C 
ATOM     18  C   UNL     1      88.640  63.759  89.778  0.00  0.00    +0.000 C 
ENDBRANCH  10  11
ENDBRANCH   1  10
TORSDOF 3
ENDMDL
