MODEL 1
REMARK VINA RESULT:      -4.8      0.000      0.000
REMARK  Name = *****
REMARK  4 active torsions:
REMARK  status: ('A' for Active; 'I' for Inactive)
REMARK    1  A    between atoms: C_1  and  C_2
REMARK    2  A    between atoms: C_2  and  C_16
REMARK    3  A    between atoms: C_6  and  C_8
REMARK    4  A    between atoms: C_9  and  C_10
REMARK                            x       y       z     vdW  Elec       q    Type
REMARK                         _______ _______ _______ _____ _____    ______ ____
ROOT
ATOM      1  C   UNL     1     105.989 122.669  82.853  0.00  0.00    +0.000 C 
ATOM      2  C   UNL     1     105.305 122.959  81.508  0.00  0.00    +0.000 C 
ATOM      3  C   UNL     1     106.370 123.438  80.498  0.00  0.00    +0.000 C 
ATOM      4  C   UNL     1     105.756 124.192  79.322  0.00  0.00    +0.000 C 
ATOM      5  C   UNL     1     104.928 125.389  79.792  0.00  0.00    +0.000 C 
ATOM      6  C   UNL     1     104.013 125.072  80.953  0.00  0.00    +0.000 C 
ATOM      7  C   UNL     1     104.186 123.962  81.697  0.00  0.00    +0.000 C 
ENDROOT
BRANCH   6   8
ATOM      8  C   UNL     1     102.914 125.979  81.270  0.00  0.00    +0.000 C 
ATOM      9  C   UNL     1     102.173 125.967  82.390  0.00  0.00    +0.000 C 
BRANCH   9  10
ATOM     10  C   UNL     1     101.075 126.909  82.655  0.00  0.00    +0.000 A 
ATOM     11  C   UNL     1      99.749 126.630  82.300  0.00  0.00    +0.000 A 
ATOM     12  C   UNL     1      98.727 127.537  82.596  0.00  0.00    +0.000 A 
ATOM     13  C   UNL     1      99.020 128.726  83.261  0.00  0.00    +0.000 A 
ATOM     14  C   UNL     1     100.333 129.007  83.634  0.00  0.00    +0.000 A 
ATOM     15  C   UNL     1     101.354 128.100  83.337  0.00  0.00    +0.000 A 
ENDBRANCH   9  10
ENDBRANCH   6   8
BRANCH   2  16
ATOM     16  C   UNL     1     104.648 121.673  81.001  0.00  0.00    +0.000 C 
ATOM     17  O   UNL     1     104.947 120.543  81.385  0.00  0.00    +0.000 OA
ENDBRANCH   2  16
TORSDOF 3
ENDMDL
