MODEL 1
REMARK VINA RESULT:      -4.3      0.000      0.000
REMARK  Name = *****
REMARK  5 active torsions:
REMARK  status: ('A' for Active; 'I' for Inactive)
REMARK    1  A    between atoms: C_1  and  N_2
REMARK    2  A    between atoms: N_2  and  C_3
REMARK    3  A    between atoms: C_4  and  C_5
REMARK    4  A    between atoms: C_4  and  C_12
REMARK    5  A    between atoms: C_5  and  C_6
REMARK                            x       y       z     vdW  Elec       q    Type
REMARK                         _______ _______ _______ _____ _____    ______ ____
ROOT
ATOM      1  C   UNL     1     106.127 124.935  80.246  0.00  0.00    +0.000 C 
ATOM      2  C   UNL     1     104.790 124.458  80.722  0.00  0.00    +0.000 C 
ENDROOT
BRANCH   2   3
ATOM      3  C   UNL     1     104.653 123.170  81.435  0.00  0.00    +0.000 A 
ATOM      4  C   UNL     1     104.550 123.140  82.833  0.00  0.00    +0.000 A 
ATOM      5  C   UNL     1     104.437 121.924  83.511  0.00  0.00    +0.000 A 
ATOM      6  C   UNL     1     104.424 120.726  82.800  0.00  0.00    +0.000 A 
ATOM      7  C   UNL     1     104.519 120.741  81.410  0.00  0.00    +0.000 A 
ATOM      8  C   UNL     1     104.632 121.957  80.731  0.00  0.00    +0.000 A 
ENDBRANCH   2   3
BRANCH   1  10
ATOM      9  C   UNL     1     107.693 123.588  79.238  0.00  0.00    +0.000 C 
ATOM     10  N   UNL     1     107.229 124.289  80.432  0.00  0.00    +0.000 NA
ENDBRANCH   1  10
BRANCH   2  11
ATOM     11  C   UNL     1     103.678 125.181  80.482  0.00  0.00    +0.000 C 
BRANCH  11  12
ATOM     12  C   UNL     1     103.082 126.177  81.375  0.00  0.00    +0.000 A 
ATOM     13  C   UNL     1     101.868 125.909  82.014  0.00  0.00    +0.000 A 
ATOM     14  C   UNL     1     101.293 126.864  82.855  0.00  0.00    +0.000 A 
ATOM     15  C   UNL     1     101.930 128.088  83.058  0.00  0.00    +0.000 A 
ATOM     16  C   UNL     1     103.142 128.359  82.424  0.00  0.00    +0.000 A 
ATOM     17  C   UNL     1     103.719 127.406  81.583  0.00  0.00    +0.000 A 
ENDBRANCH  11  12
ENDBRANCH   2  11
TORSDOF 4
ENDMDL
