MODEL 1
REMARK VINA RESULT:      -4.7      0.000      0.000
REMARK  Name = *****
REMARK  3 active torsions:
REMARK  status: ('A' for Active; 'I' for Inactive)
REMARK    1  A    between atoms: C_6  and  C_7
REMARK    2  A    between atoms: C_7  and  O_9
REMARK    3  A    between atoms: O_9  and  C_10
REMARK                            x       y       z     vdW  Elec       q    Type
REMARK                         _______ _______ _______ _____ _____    ______ ____
ROOT
ATOM      1  C   UNL     1     103.522 127.611  82.559  0.00  0.00    +0.000 C 
ATOM      2  O   UNL     1     103.972 128.673  82.157  0.00  0.00    +0.000 OA
ENDROOT
BRANCH   1   8
ATOM      3  C   UNL     1     104.003 126.150  80.537  0.00  0.00    +0.000 A 
ATOM      4  C   UNL     1     104.298 124.893  80.000  0.00  0.00    +0.000 A 
ATOM      5  C   UNL     1     104.426 123.795  80.843  0.00  0.00    +0.000 A 
ATOM      6  C   UNL     1     104.265 123.926  82.217  0.00  0.00    +0.000 A 
ATOM      7  C   UNL     1     103.971 125.179  82.759  0.00  0.00    +0.000 A 
ATOM      8  C   UNL     1     103.838 126.300  81.923  0.00  0.00    +0.000 A 
ATOM      9  F   UNL     1     104.707 122.594  80.324  0.00  0.00    +0.000 F 
ENDBRANCH   1   8
BRANCH   1  10
ATOM     10  O   UNL     1     102.670 127.421  83.631  0.00  0.00    +0.000 OA
BRANCH  10  11
ATOM     11  C   UNL     1     101.339 127.721  83.333  0.00  0.00    +0.000 A 
ATOM     12  C   UNL     1     100.510 126.740  82.793  0.00  0.00    +0.000 A 
ATOM     13  C   UNL     1      99.178 127.053  82.550  0.00  0.00    +0.000 A 
ATOM     14  C   UNL     1      98.666 128.311  82.850  0.00  0.00    +0.000 A 
ATOM     15  C   UNL     1      99.511 129.265  83.408  0.00  0.00    +0.000 A 
ATOM     16  C   UNL     1     100.849 128.983  83.661  0.00  0.00    +0.000 A 
ATOM     17  F   UNL     1      99.026 130.475  83.712  0.00  0.00    +0.000 F 
ATOM     18  F   UNL     1      98.369 126.124  82.025  0.00  0.00    +0.000 F 
ENDBRANCH  10  11
ENDBRANCH   1  10
TORSDOF 3
ENDMDL
