MODEL 1
REMARK VINA RESULT:      -4.4      0.000      0.000
REMARK  Name = *****
REMARK  6 active torsions:
REMARK  status: ('A' for Active; 'I' for Inactive)
REMARK    1  A    between atoms: C_1  and  C_2
REMARK    2  A    between atoms: C_4  and  C_17
REMARK    3  A    between atoms: C_5  and  C_9
REMARK    4  A    between atoms: C_6  and  C_8
REMARK    5  A    between atoms: C_9  and  S_10
REMARK    6  A    between atoms: S_10  and  C_11
REMARK                            x       y       z     vdW  Elec       q    Type
REMARK                         _______ _______ _______ _____ _____    ______ ____
ROOT
ATOM      1  C   UNL     1      82.900  73.471  84.945  0.00  0.00    +0.000 C 
ATOM      2  C   UNL     1      84.008  72.784  85.686  0.00  0.00    +0.000 A 
ATOM      3  C   UNL     1      83.988  72.685  87.077  0.00  0.00    +0.000 A 
ATOM      4  C   UNL     1      85.015  72.026  87.777  0.00  0.00    +0.000 A 
ATOM      5  C   UNL     1      86.097  71.451  87.063  0.00  0.00    +0.000 A 
ATOM      6  C   UNL     1      86.105  71.533  85.648  0.00  0.00    +0.000 A 
ATOM      7  C   UNL     1      85.064  72.200  84.981  0.00  0.00    +0.000 A 
ATOM      8  C   UNL     1      87.214  70.939  84.818  0.00  0.00    +0.000 C 
ATOM      9  C   UNL     1      84.929  71.974  89.280  0.00  0.00    +0.000 C 
ENDROOT
BRANCH   5  10
ATOM     10  C   UNL     1      87.217  70.736  87.803  0.00  0.00    +0.000 C 
BRANCH  10  11
ATOM     11  S   UNL     1      86.727  69.047  88.289  0.00  0.00    +0.000 S 
BRANCH  11  12
ATOM     12  C   UNL     1      88.004  68.102  87.480  0.00  0.00    +0.000 A 
ATOM     13  C   UNL     1      89.055  68.782  86.873  0.00  0.00    +0.000 A 
ATOM     14  C   UNL     1      90.058  68.048  86.245  0.00  0.00    +0.000 A 
ATOM     15  C   UNL     1      89.986  66.662  86.244  0.00  0.00    +0.000 A 
ATOM     16  C   UNL     1      88.908  66.066  86.876  0.00  0.00    +0.000 A 
ATOM     17  N   UNL     1      87.920  66.753  87.490  0.00  0.00    +0.000 NA
ENDBRANCH  11  12
ENDBRANCH  10  11
ENDBRANCH   5  10
TORSDOF 3
ENDMDL
