MODEL 1
REMARK VINA RESULT:      -4.6      0.000      0.000
REMARK  Name = *****
REMARK  7 active torsions:
REMARK  status: ('A' for Active; 'I' for Inactive)
REMARK    1  A    between atoms: C_1  and  C_2
REMARK    2  A    between atoms: C_5  and  N_8
REMARK    3  A    between atoms: N_8  and  C_9
REMARK    4  A    between atoms: N_8  and  C_10
REMARK    5  A    between atoms: C_10  and  N_11
REMARK    6  A    between atoms: C_10  and  C_18
REMARK    7  A    between atoms: N_11  and  C_12
REMARK                            x       y       z     vdW  Elec       q    Type
REMARK                         _______ _______ _______ _____ _____    ______ ____
ROOT
ATOM      1  C   UNL     1      89.032  64.172  86.652  0.00  0.00    +0.000 C 
ATOM      2  C   UNL     1      89.858  63.564  85.526  0.00  0.00    +0.000 C 
ENDROOT
BRANCH   1   3
ATOM      3  N   UNL     1      88.122  65.185  86.319  0.00  0.00    +0.000 N 
ATOM      4  C   UNL     1      87.290  65.071  85.119  0.00  0.00    +0.000 C 
BRANCH   3   9
ATOM      5  C   UNL     1      89.373  70.699  87.426  0.00  0.00    +0.000 C 
ATOM      6  C   UNL     1      89.064  69.255  87.168  0.00  0.00    +0.000 A 
ATOM      7  C   UNL     1      89.872  68.498  86.316  0.00  0.00    +0.000 A 
ATOM      8  C   UNL     1      89.560  67.162  86.043  0.00  0.00    +0.000 A 
ATOM      9  C   UNL     1      88.430  66.549  86.606  0.00  0.00    +0.000 A 
ATOM     10  C   UNL     1      87.612  67.329  87.439  0.00  0.00    +0.000 A 
ATOM     11  C   UNL     1      87.922  68.664  87.716  0.00  0.00    +0.000 A 
ENDBRANCH   3   9
ENDBRANCH   1   3
BRANCH   1  12
ATOM     12  N   UNL     1      89.256  63.636  87.818  0.00  0.00    +0.000 N 
ATOM     13  H   UNL     1      90.171  63.367  88.063  0.00  0.00    +0.000 HD
BRANCH  12  14
ATOM     14  C   UNL     1      88.205  63.440  88.724  0.00  0.00    +0.000 A 
ATOM     15  C   UNL     1      87.181  62.521  88.469  0.00  0.00    +0.000 A 
ATOM     16  C   UNL     1      86.161  62.317  89.401  0.00  0.00    +0.000 A 
ATOM     17  C   UNL     1      86.167  63.019  90.605  0.00  0.00    +0.000 A 
ATOM     18  C   UNL     1      87.197  63.917  90.880  0.00  0.00    +0.000 A 
ATOM     19  C   UNL     1      88.216  64.117  89.946  0.00  0.00    +0.000 A 
ENDBRANCH  12  14
ENDBRANCH   1  12
TORSDOF 4
ENDMDL
