REMARK  Name = *****
REMARK  2 active torsions:
REMARK  status: ('A' for Active; 'I' for Inactive)
REMARK    1  A    between atoms: C_2  and  C_9
REMARK    2  A    between atoms: N_10  and  C_11
REMARK                            x       y       z     vdW  Elec       q    Type
REMARK                         _______ _______ _______ _____ _____    ______ ____
ROOT
ATOM      1  C   UNL     1       0.138  -3.374  -0.125  0.00  0.00    +0.000 C 
ATOM      2  N   UNL     1       1.154  -4.045   0.315  0.00  0.00    +0.000 NA
ENDROOT
BRANCH   1   4
ATOM      3  C   UNL     1       1.170  -1.177   0.466  0.00  0.00    +0.000 A 
ATOM      4  C   UNL     1       0.097  -1.901  -0.062  0.00  0.00    +0.000 A 
ATOM      5  C   UNL     1      -1.034  -1.237  -0.541  0.00  0.00    +0.000 A 
ATOM      6  C   UNL     1      -1.077   0.153  -0.484  0.00  0.00    +0.000 A 
ATOM      7  C   UNL     1      -0.021   0.887   0.038  0.00  0.00    +0.000 A 
ATOM      8  C   UNL     1       1.097   0.211   0.510  0.00  0.00    +0.000 A 
ATOM      9  F   UNL     1       2.122   0.908   1.015  0.00  0.00    +0.000 F 
ATOM     10  F   UNL     1      -2.161   0.793  -0.941  0.00  0.00    +0.000 F 
ENDBRANCH   1   4
BRANCH   2  11
ATOM     11  C   UNL     1       1.073  -5.439   0.200  0.00  0.00    +0.000 A 
ATOM     12  C   UNL     1       1.669  -6.086  -0.884  0.00  0.00    +0.000 A 
ATOM     13  C   UNL     1       1.605  -7.472  -0.983  0.00  0.00    +0.000 A 
ATOM     14  C   UNL     1       0.964  -8.232  -0.014  0.00  0.00    +0.000 A 
ATOM     15  C   UNL     1       0.388  -7.582   1.068  0.00  0.00    +0.000 A 
ATOM     16  C   UNL     1       0.441  -6.197   1.187  0.00  0.00    +0.000 A 
ATOM     17  F   UNL     1      -0.229  -8.301   2.015  0.00  0.00    +0.000 F 
ATOM     18  F   UNL     1       2.172  -8.085  -2.030  0.00  0.00    +0.000 F 
ENDBRANCH   2  11
TORSDOF 2
