MODEL 1
REMARK VINA RESULT:      -4.0      0.000      0.000
REMARK  Name = *****
REMARK  5 active torsions:
REMARK  status: ('A' for Active; 'I' for Inactive)
REMARK    1  A    between atoms: C_1  and  C_2
REMARK    2  A    between atoms: C_2  and  C_7
REMARK    3  A    between atoms: C_8  and  C_9
REMARK    4  A    between atoms: C_14  and  O_15
REMARK    5  A    between atoms: O_15  and  C_16
REMARK                            x       y       z     vdW  Elec       q    Type
REMARK                         _______ _______ _______ _____ _____    ______ ____
ROOT
ATOM      1  C   UNL     1     100.972 126.503  82.559  0.00  0.00    +0.000 C 
ATOM      2  C   UNL     1     102.091 125.959  83.071  0.00  0.00    +0.000 C 
ENDROOT
BRANCH   1   4
ATOM      3  C   UNL     1      98.609 127.542  82.539  0.00  0.00    +0.000 C 
ATOM      4  C   UNL     1      99.915 127.285  83.299  0.00  0.00    +0.000 C 
ATOM      5  S   UNL     1     100.633 128.914  83.754  0.00  0.00    +0.000 S 
ATOM      6  C   UNL     1     100.866 128.568  85.515  0.00  0.00    +0.000 C 
ATOM      7  C   UNL     1      99.687 127.740  85.980  0.00  0.00    +0.000 C 
ATOM      8  S   UNL     1      99.510 126.353  84.833  0.00  0.00    +0.000 S 
ENDBRANCH   1   4
BRANCH   2   9
ATOM      9  C   UNL     1     103.071 125.213  82.264  0.00  0.00    +0.000 A 
ATOM     10  C   UNL     1     103.240 125.603  80.926  0.00  0.00    +0.000 A 
ATOM     11  C   UNL     1     104.151 124.944  80.096  0.00  0.00    +0.000 A 
ATOM     12  C   UNL     1     104.906 123.882  80.589  0.00  0.00    +0.000 A 
ATOM     13  C   UNL     1     104.741 123.470  81.911  0.00  0.00    +0.000 A 
ATOM     14  C   UNL     1     103.813 124.114  82.733  0.00  0.00    +0.000 A 
BRANCH  14  15
ATOM     15  O   UNL     1     103.708 123.667  84.026  0.00  0.00    +0.000 OA
ATOM     16  C   UNL     1     104.453 122.460  84.191  0.00  0.00    +0.000 C 
ENDBRANCH  14  15
ENDBRANCH   2   9
TORSDOF 3
ENDMDL
