MODEL 1
REMARK VINA RESULT:      -5.0      0.000      0.000
REMARK  Name = *****
REMARK  4 active torsions:
REMARK  status: ('A' for Active; 'I' for Inactive)
REMARK    1  A    between atoms: C_1  and  C_2
REMARK    2  A    between atoms: C_5  and  C_8
REMARK    3  A    between atoms: C_8  and  C_9
REMARK    4  A    between atoms: C_9  and  C_10
REMARK                            x       y       z     vdW  Elec       q    Type
REMARK                         _______ _______ _______ _____ _____    ______ ____
ROOT
ATOM      1  C   UNL     1      88.781  70.167  86.789  0.00  0.00    +0.000 C 
ATOM      2  F   UNL     1      90.015  70.698  86.507  0.00  0.00    +0.000 F 
ENDROOT
BRANCH   1   3
ATOM      3  C   UNL     1      88.862  68.650  86.830  0.00  0.00    +0.000 A 
ATOM      4  C   UNL     1      87.858  67.825  87.360  0.00  0.00    +0.000 A 
ATOM      5  C   UNL     1      88.003  66.435  87.359  0.00  0.00    +0.000 A 
ATOM      6  C   UNL     1      89.144  65.861  86.818  0.00  0.00    +0.000 A 
ATOM      7  C   UNL     1      90.146  66.650  86.271  0.00  0.00    +0.000 A 
ATOM      8  C   UNL     1      90.004  68.039  86.273  0.00  0.00    +0.000 A 
ATOM      9  F   UNL     1      89.279  64.529  86.817  0.00  0.00    +0.000 F 
ENDBRANCH   1   3
BRANCH   1  10
ATOM     10  C   UNL     1      87.793  70.819  85.806  0.00  0.00    +0.000 C 
BRANCH  10  15
ATOM     11  C   UNL     1      82.914  73.038  88.122  0.00  0.00    +0.000 C 
ATOM     12  C   UNL     1      84.176  72.495  87.520  0.00  0.00    +0.000 A 
ATOM     13  C   UNL     1      84.347  72.474  86.133  0.00  0.00    +0.000 A 
ATOM     14  C   UNL     1      85.508  71.940  85.565  0.00  0.00    +0.000 A 
ATOM     15  C   UNL     1      86.527  71.422  86.374  0.00  0.00    +0.000 A 
ATOM     16  C   UNL     1      86.333  71.411  87.764  0.00  0.00    +0.000 A 
ATOM     17  C   UNL     1      85.171  71.943  88.331  0.00  0.00    +0.000 A 
ENDBRANCH  10  15
ENDBRANCH   1  10
TORSDOF 3
ENDMDL
