REMARK  Name = *****
REMARK  5 active torsions:
REMARK  status: ('A' for Active; 'I' for Inactive)
REMARK    1  A    between atoms: C_1  and  O_2
REMARK    2  A    between atoms: O_2  and  C_3
REMARK    3  A    between atoms: C_6  and  C_9
REMARK    4  A    between atoms: C_10  and  S_11
REMARK    5  A    between atoms: S_11  and  C_12
REMARK                            x       y       z     vdW  Elec       q    Type
REMARK                         _______ _______ _______ _____ _____    ______ ____
ROOT
ATOM      1  C   UNL     1       5.386   1.590   4.286  0.00  0.00    +0.000 C 
ATOM      2  C   UNL     1       4.928   1.555   5.547  0.00  0.00    +0.000 C 
ENDROOT
BRANCH   1   6
ATOM      3  C   UNL     1       3.239   0.777   0.675  0.00  0.00    +0.000 A 
ATOM      4  C   UNL     1       2.903   1.888   1.449  0.00  0.00    +0.000 A 
ATOM      5  C   UNL     1       3.599   2.156   2.634  0.00  0.00    +0.000 A 
ATOM      6  C   UNL     1       4.632   1.315   3.059  0.00  0.00    +0.000 A 
ATOM      7  C   UNL     1       4.975   0.209   2.276  0.00  0.00    +0.000 A 
ATOM      8  C   UNL     1       4.279  -0.056   1.094  0.00  0.00    +0.000 A 
BRANCH   3  10
ATOM      9  C   UNL     1       1.546   1.190  -0.940  0.00  0.00    +0.000 C 
ATOM     10  O   UNL     1       2.643   0.401  -0.497  0.00  0.00    +0.000 OA
ENDBRANCH   3  10
ENDBRANCH   1   6
BRANCH   2  11
ATOM     11  S   UNL     1       3.302   1.163   6.001  0.00  0.00    +0.000 S 
BRANCH  11  12
ATOM     12  C   UNL     1       3.559   0.852   7.736  0.00  0.00    +0.000 A 
ATOM     13  C   UNL     1       3.355   1.868   8.674  0.00  0.00    +0.000 A 
ATOM     14  C   UNL     1       3.554   1.620  10.034  0.00  0.00    +0.000 A 
ATOM     15  C   UNL     1       3.953   0.354  10.461  0.00  0.00    +0.000 A 
ATOM     16  C   UNL     1       4.151  -0.666   9.531  0.00  0.00    +0.000 A 
ATOM     17  C   UNL     1       3.952  -0.418   8.172  0.00  0.00    +0.000 A 
ENDBRANCH  11  12
ENDBRANCH   2  11
TORSDOF 4
