REMARK  Name = *****
REMARK  5 active torsions:
REMARK  status: ('A' for Active; 'I' for Inactive)
REMARK    1  A    between atoms: C_3  and  S_16
REMARK    2  A    between atoms: C_6  and  C_7
REMARK    3  A    between atoms: C_7  and  C_8
REMARK    4  A    between atoms: C_8  and  C_9
REMARK    5  A    between atoms: C_12  and  S_15
REMARK                            x       y       z     vdW  Elec       q    Type
REMARK                         _______ _______ _______ _____ _____    ______ ____
ROOT
ATOM      1  C   UNL     1      -3.864  -0.048  -0.244  0.00  0.00    +0.000 C 
ENDROOT
BRANCH   1   7
ATOM      2  C   UNL     1      -1.514   0.028  -1.168  0.00  0.00    +0.000 A 
ATOM      3  C   UNL     1      -0.128   0.091  -0.996  0.00  0.00    +0.000 A 
ATOM      4  C   UNL     1       0.421   0.121   0.288  0.00  0.00    +0.000 A 
ATOM      5  C   UNL     1      -0.427   0.101   1.398  0.00  0.00    +0.000 A 
ATOM      6  C   UNL     1      -1.812   0.038   1.227  0.00  0.00    +0.000 A 
ATOM      7  C   UNL     1      -2.367  -0.005  -0.058  0.00  0.00    +0.000 A 
BRANCH   4   8
ATOM      8  S   UNL     1       2.182   0.212   0.522  0.00  0.00    +0.000 S 
ATOM      9  H   UNL     1       2.801   0.220  -0.689  0.00  0.00    +0.000 HD
ENDBRANCH   4   8
ENDBRANCH   1   7
BRANCH   1  10
ATOM     10  C   UNL     1      -4.461   1.359  -0.339  0.00  0.00    +0.000 C 
BRANCH  10  11
ATOM     11  C   UNL     1      -5.959   1.316  -0.521  0.00  0.00    +0.000 A 
ATOM     12  C   UNL     1      -6.811   1.322   0.590  0.00  0.00    +0.000 A 
ATOM     13  C   UNL     1      -8.197   1.266   0.421  0.00  0.00    +0.000 A 
ATOM     14  C   UNL     1      -8.748   1.194  -0.861  0.00  0.00    +0.000 A 
ATOM     15  C   UNL     1      -7.902   1.188  -1.972  0.00  0.00    +0.000 A 
ATOM     16  C   UNL     1      -6.516   1.244  -1.804  0.00  0.00    +0.000 A 
BRANCH  14  17
ATOM     17  S   UNL     1     -10.511   1.132  -1.092  0.00  0.00    +0.000 S 
ATOM     18  H   UNL     1     -11.128   1.148   0.119  0.00  0.00    +0.000 HD
ENDBRANCH  14  17
ENDBRANCH  10  11
ENDBRANCH   1  10
TORSDOF 5
