MODEL 1
REMARK VINA RESULT:      -4.3      0.000      0.000
REMARK  Name = *****
REMARK  4 active torsions:
REMARK  status: ('A' for Active; 'I' for Inactive)
REMARK    1  A    between atoms: C_2  and  C_3
REMARK    2  A    between atoms: C_2  and  O_9
REMARK    3  A    between atoms: O_9  and  C_10
REMARK    4  A    between atoms: C_10  and  C_12
REMARK                            x       y       z     vdW  Elec       q    Type
REMARK                         _______ _______ _______ _____ _____    ______ ____
ROOT
ATOM      1  O   UNL     1      89.610  68.609  86.465  0.00  0.00    +0.000 OA
ENDROOT
BRANCH   1   3
ATOM      2  C   UNL     1      89.950  70.732  85.433  0.00  0.00    +0.000 C 
ATOM      3  C   UNL     1      89.302  69.970  86.325  0.00  0.00    +0.000 C 
BRANCH   3   4
ATOM      4  C   UNL     1      88.324  70.505  87.288  0.00  0.00    +0.000 A 
ATOM      5  C   UNL     1      87.071  70.971  86.865  0.00  0.00    +0.000 A 
ATOM      6  C   UNL     1      86.146  71.464  87.788  0.00  0.00    +0.000 A 
ATOM      7  C   UNL     1      86.462  71.494  89.145  0.00  0.00    +0.000 A 
ATOM      8  C   UNL     1      87.700  71.027  89.581  0.00  0.00    +0.000 A 
ATOM      9  C   UNL     1      88.625  70.532  88.658  0.00  0.00    +0.000 A 
ENDBRANCH   3   4
ENDBRANCH   1   3
BRANCH   1  10
ATOM     10  C   UNL     1      88.633  67.787  85.978  0.00  0.00    +0.000 C 
ATOM     11  O   UNL     1      88.169  67.766  84.848  0.00  0.00    +0.000 OA
BRANCH  10  12
ATOM     12  C   UNL     1      88.178  66.857  87.051  0.00  0.00    +0.000 A 
ATOM     13  C   UNL     1      87.099  67.147  87.900  0.00  0.00    +0.000 A 
ATOM     14  C   UNL     1      86.717  66.234  88.890  0.00  0.00    +0.000 A 
ATOM     15  C   UNL     1      87.409  65.034  89.034  0.00  0.00    +0.000 A 
ATOM     16  C   UNL     1      88.482  64.734  88.197  0.00  0.00    +0.000 A 
ATOM     17  C   UNL     1      88.866  65.643  87.208  0.00  0.00    +0.000 A 
ATOM     18 CL   UNL     1      86.935  63.915  90.251  0.00  0.00    +0.000 Cl
ENDBRANCH  10  12
ENDBRANCH   1  10
TORSDOF 4
ENDMDL
