MODEL 1
REMARK VINA RESULT:      -4.5      0.000      0.000
REMARK  Name = *****
REMARK  3 active torsions:
REMARK  status: ('A' for Active; 'I' for Inactive)
REMARK    1  A    between atoms: C_1  and  C_2
REMARK    2  A    between atoms: C_5  and  C_8
REMARK    3  A    between atoms: C_9  and  C_10
REMARK                            x       y       z     vdW  Elec       q    Type
REMARK                         _______ _______ _______ _____ _____    ______ ____
ROOT
ATOM      1  C   UNL     1      99.211 129.865  84.149  0.00  0.00    +0.000 C 
ATOM      2  C   UNL     1     100.065 128.775  83.570  0.00  0.00    +0.000 A 
ATOM      3  C   UNL     1      99.479 127.650  82.981  0.00  0.00    +0.000 A 
ATOM      4  C   UNL     1     100.276 126.621  82.470  0.00  0.00    +0.000 A 
ATOM      5  C   UNL     1     101.673 126.699  82.541  0.00  0.00    +0.000 A 
ATOM      6  C   UNL     1     102.255 127.811  83.160  0.00  0.00    +0.000 A 
ATOM      7  C   UNL     1     101.458 128.841  83.669  0.00  0.00    +0.000 A 
ENDROOT
BRANCH   5   8
ATOM      8  C   UNL     1     102.542 125.623  82.045  0.00  0.00    +0.000 C 
ATOM      9  C   UNL     1     103.447 125.792  81.065  0.00  0.00    +0.000 C 
BRANCH   9  10
ATOM     10  C   UNL     1     104.320 124.788  80.550  0.00  0.00    +0.000 A 
ATOM     11  C   UNL     1     105.214 124.902  79.508  0.00  0.00    +0.000 A 
ATOM     12  O   UNL     1     105.871 123.729  79.311  0.00  0.00    +0.000 OA
ATOM     13  C   UNL     1     105.397 122.852  80.234  0.00  0.00    +0.000 A 
ATOM     14  C   UNL     1     104.442 123.455  81.021  0.00  0.00    +0.000 A 
ENDBRANCH   9  10
ENDBRANCH   5   8
TORSDOF 2
ENDMDL
