MODEL 1
REMARK VINA RESULT:      -4.5      0.000      0.000
REMARK  Name = *****
REMARK  5 active torsions:
REMARK  status: ('A' for Active; 'I' for Inactive)
REMARK    1  A    between atoms: C_1  and  C_2
REMARK    2  A    between atoms: C_2  and  O_3
REMARK    3  A    between atoms: O_3  and  C_4
REMARK    4  A    between atoms: C_9  and  C_10
REMARK    5  A    between atoms: C_11  and  C_12
REMARK                            x       y       z     vdW  Elec       q    Type
REMARK                         _______ _______ _______ _____ _____    ______ ____
ROOT
ATOM      1  C   UNL     1     101.434 128.035  83.594  0.00  0.00    +0.000 A 
ATOM      2  C   UNL     1     100.401 128.952  83.822  0.00  0.00    +0.000 A 
ATOM      3  C   UNL     1      99.122 128.728  83.304  0.00  0.00    +0.000 A 
ATOM      4  C   UNL     1      98.864 127.589  82.548  0.00  0.00    +0.000 A 
ATOM      5  C   UNL     1      99.884 126.670  82.311  0.00  0.00    +0.000 A 
ATOM      6  C   UNL     1     101.170 126.874  82.836  0.00  0.00    +0.000 A 
ENDROOT
BRANCH   6   7
ATOM      7  C   UNL     1     102.189 125.856  82.524  0.00  0.00    +0.000 C 
ATOM      8  C   UNL     1     102.833 125.805  81.347  0.00  0.00    +0.000 C 
BRANCH   8   9
ATOM      9  C   UNL     1     103.869 124.818  81.016  0.00  0.00    +0.000 A 
ATOM     10  C   UNL     1     104.683 124.939  79.882  0.00  0.00    +0.000 A 
ATOM     11  C   UNL     1     105.679 123.993  79.617  0.00  0.00    +0.000 A 
ATOM     12  C   UNL     1     105.878 122.926  80.489  0.00  0.00    +0.000 A 
ATOM     13  C   UNL     1     105.087 122.805  81.630  0.00  0.00    +0.000 A 
ATOM     14  C   UNL     1     104.092 123.750  81.894  0.00  0.00    +0.000 A 
ENDBRANCH   8   9
ENDBRANCH   6   7
BRANCH   1  15
ATOM     15  O   UNL     1     102.719 128.195  84.045  0.00  0.00    +0.000 OA
BRANCH  15  17
ATOM     16  C   UNL     1     104.397 129.035  82.583  0.00  0.00    +0.000 C 
ATOM     17  C   UNL     1     103.412 129.386  83.683  0.00  0.00    +0.000 C 
ENDBRANCH  15  17
ENDBRANCH   1  15
TORSDOF 4
ENDMDL
