MODEL 1
REMARK VINA RESULT:      -4.5      0.000      0.000
REMARK  Name = *****
REMARK  3 active torsions:
REMARK  status: ('A' for Active; 'I' for Inactive)
REMARK    1  A    between atoms: C_5  and  O_7
REMARK    2  A    between atoms: O_7  and  C_8
REMARK    3  A    between atoms: C_8  and  C_10
REMARK                            x       y       z     vdW  Elec       q    Type
REMARK                         _______ _______ _______ _____ _____    ______ ____
ROOT
ATOM      1  C   UNL     1      88.228  64.786  86.341  0.00  0.00    +0.000 C 
ATOM      2  O   UNL     1      87.791  64.279  85.323  0.00  0.00    +0.000 OA
ENDROOT
BRANCH   1   3
ATOM      3  C   UNL     1      88.554  66.215  86.504  0.00  0.00    +0.000 A 
ATOM      4  C   UNL     1      89.818  66.717  86.168  0.00  0.00    +0.000 A 
ATOM      5  C   UNL     1      90.102  68.072  86.362  0.00  0.00    +0.000 A 
ATOM      6  C   UNL     1      89.127  68.919  86.889  0.00  0.00    +0.000 A 
ATOM      7  C   UNL     1      87.866  68.429  87.222  0.00  0.00    +0.000 A 
ATOM      8  C   UNL     1      87.578  67.076  87.031  0.00  0.00    +0.000 A 
ATOM      9 CL   UNL     1      89.482  70.585  87.125  0.00  0.00    +0.000 Cl
ATOM     10 CL   UNL     1      91.056  65.740  85.464  0.00  0.00    +0.000 Cl
ENDBRANCH   1   3
BRANCH   1  11
ATOM     11  O   UNL     1      88.490  64.149  87.509  0.00  0.00    +0.000 OA
BRANCH  11  16
ATOM     12  C   UNL     1      85.911  61.920  89.120  0.00  0.00    +0.000 C 
ATOM     13  C   UNL     1      86.060  62.395  90.563  0.00  0.00    +0.000 C 
ATOM     14  C   UNL     1      86.331  63.899  90.644  0.00  0.00    +0.000 C 
ATOM     15  C   UNL     1      87.513  64.340  89.777  0.00  0.00    +0.000 C 
ATOM     16  C   UNL     1      87.339  63.849  88.324  0.00  0.00    +0.000 C 
ATOM     17  C   UNL     1      87.095  62.338  88.254  0.00  0.00    +0.000 C 
ATOM     18 CL   UNL     1      89.054  63.740  90.492  0.00  0.00    +0.000 Cl
ENDBRANCH  11  16
ENDBRANCH   1  11
TORSDOF 3
ENDMDL
