MODEL 1
REMARK VINA RESULT:      -4.3      0.000      0.000
REMARK  Name = *****
REMARK  4 active torsions:
REMARK  status: ('A' for Active; 'I' for Inactive)
REMARK    1  A    between atoms: C_4  and  C_7
REMARK    2  A    between atoms: C_7  and  S_8
REMARK    3  A    between atoms: S_8  and  C_9
REMARK    4  A    between atoms: C_14  and  C_15
REMARK                            x       y       z     vdW  Elec       q    Type
REMARK                         _______ _______ _______ _____ _____    ______ ____
ROOT
ATOM      1  C   UNL     1      88.335  65.017  86.257  0.00  0.00    +0.000 A 
ATOM      2  C   UNL     1      89.276  64.246  85.555  0.00  0.00    +0.000 A 
ATOM      3  C   UNL     1      90.542  64.752  85.265  0.00  0.00    +0.000 A 
ATOM      4  C   UNL     1      90.886  66.033  85.678  0.00  0.00    +0.000 A 
ATOM      5  C   UNL     1      89.964  66.806  86.384  0.00  0.00    +0.000 A 
ATOM      6  C   UNL     1      88.678  66.312  86.686  0.00  0.00    +0.000 A 
ENDROOT
BRANCH   6   7
ATOM      7  C   UNL     1      87.717  67.183  87.457  0.00  0.00    +0.000 C 
ATOM      8  F   UNL     1      87.326  66.642  88.643  0.00  0.00    +0.000 F 
ATOM      9  F   UNL     1      88.244  68.403  87.778  0.00  0.00    +0.000 F 
ATOM     10  F   UNL     1      86.578  67.465  86.764  0.00  0.00    +0.000 F 
ENDBRANCH   6   7
BRANCH   1  11
ATOM     11  S   UNL     1      86.745  64.270  86.585  0.00  0.00    +0.000 S 
BRANCH  11  12
ATOM     12  C   UNL     1      87.294  62.897  87.654  0.00  0.00    +0.000 C 
BRANCH  12  16
ATOM     13  C   UNL     1      88.133  64.229  91.669  0.00  0.00    +0.000 A 
ATOM     14  C   UNL     1      89.179  63.957  90.790  0.00  0.00    +0.000 A 
ATOM     15  C   UNL     1      88.909  63.527  89.490  0.00  0.00    +0.000 A 
ATOM     16  C   UNL     1      87.584  63.371  89.054  0.00  0.00    +0.000 A 
ATOM     17  C   UNL     1      86.539  63.638  89.950  0.00  0.00    +0.000 A 
ATOM     18  C   UNL     1      86.812  64.068  91.250  0.00  0.00    +0.000 A 
ENDBRANCH  12  16
ENDBRANCH  11  12
ENDBRANCH   1  11
TORSDOF 4
ENDMDL
