MODEL 1
REMARK VINA RESULT:      -4.8      0.000      0.000
REMARK  Name = *****
REMARK  4 active torsions:
REMARK  status: ('A' for Active; 'I' for Inactive)
REMARK    1  A    between atoms: C_2  and  C_3
REMARK    2  A    between atoms: C_2  and  O_10
REMARK    3  A    between atoms: O_10  and  C_11
REMARK    4  A    between atoms: C_11  and  C_13
REMARK                            x       y       z     vdW  Elec       q    Type
REMARK                         _______ _______ _______ _____ _____    ______ ____
ROOT
ATOM      1  C   UNL     1     103.559 127.464  80.215  0.00  0.00    +0.000 C 
ATOM      2  C   UNL     1     103.523 126.192  80.635  0.00  0.00    +0.000 C 
ENDROOT
BRANCH   2   3
ATOM      3  C   UNL     1     104.594 125.217  80.362  0.00  0.00    +0.000 A 
ATOM      4  C   UNL     1     105.846 125.632  79.877  0.00  0.00    +0.000 A 
ATOM      5  C   UNL     1     106.858 124.700  79.634  0.00  0.00    +0.000 A 
ATOM      6  C   UNL     1     106.623 123.353  79.881  0.00  0.00    +0.000 A 
ATOM      7  C   UNL     1     105.398 122.920  80.369  0.00  0.00    +0.000 A 
ATOM      8  C   UNL     1     104.385 123.851  80.614  0.00  0.00    +0.000 A 
ATOM      9  F   UNL     1     107.593 122.460  79.647  0.00  0.00    +0.000 F 
ENDBRANCH   2   3
BRANCH   2  10
ATOM     10  O   UNL     1     102.384 125.684  81.277  0.00  0.00    +0.000 OA
BRANCH  10  11
ATOM     11  C   UNL     1     102.304 126.044  82.592  0.00  0.00    +0.000 C 
ATOM     12  O   UNL     1     103.039 125.695  83.505  0.00  0.00    +0.000 OA
BRANCH  11  13
ATOM     13  C   UNL     1     101.152 126.968  82.793  0.00  0.00    +0.000 A 
ATOM     14  C   UNL     1      99.847 126.654  82.383  0.00  0.00    +0.000 A 
ATOM     15  C   UNL     1      98.806 127.561  82.597  0.00  0.00    +0.000 A 
ATOM     16  C   UNL     1      99.059 128.783  83.220  0.00  0.00    +0.000 A 
ATOM     17  C   UNL     1     100.352 129.104  83.630  0.00  0.00    +0.000 A 
ATOM     18  C   UNL     1     101.395 128.199  83.417  0.00  0.00    +0.000 A 
ENDBRANCH  11  13
ENDBRANCH  10  11
ENDBRANCH   2  10
TORSDOF 4
ENDMDL
