MODEL 1
REMARK VINA RESULT:      -4.5      0.000      0.000
REMARK  Name = *****
REMARK  3 active torsions:
REMARK  status: ('A' for Active; 'I' for Inactive)
REMARK    1  A    between atoms: C_4  and  C_7
REMARK    2  A    between atoms: C_7  and  O_9
REMARK    3  A    between atoms: O_9  and  C_10
REMARK                            x       y       z     vdW  Elec       q    Type
REMARK                         _______ _______ _______ _____ _____    ______ ____
ROOT
ATOM      1  C   UNL     1      88.000  70.509  87.990  0.00  0.00    +0.000 C 
ATOM      2  O   UNL     1      88.630  70.457  89.036  0.00  0.00    +0.000 OA
ENDROOT
BRANCH   1   6
ATOM      3  C   UNL     1      84.218  72.480  87.516  0.00  0.00    +0.000 A 
ATOM      4  C   UNL     1      84.689  72.214  88.801  0.00  0.00    +0.000 A 
ATOM      5  C   UNL     1      85.918  71.573  88.979  0.00  0.00    +0.000 A 
ATOM      6  C   UNL     1      86.683  71.196  87.866  0.00  0.00    +0.000 A 
ATOM      7  C   UNL     1      86.201  71.468  86.579  0.00  0.00    +0.000 A 
ATOM      8  C   UNL     1      84.973  72.108  86.404  0.00  0.00    +0.000 A 
ENDBRANCH   1   6
BRANCH   1   9
ATOM      9  O   UNL     1      88.364  69.972  86.770  0.00  0.00    +0.000 OA
BRANCH   9  10
ATOM     10  C   UNL     1      88.641  68.605  86.835  0.00  0.00    +0.000 A 
ATOM     11  C   UNL     1      89.852  68.126  86.341  0.00  0.00    +0.000 A 
ATOM     12  C   UNL     1      90.083  66.758  86.371  0.00  0.00    +0.000 A 
ATOM     13  C   UNL     1      89.127  65.875  86.869  0.00  0.00    +0.000 A 
ATOM     14  C   UNL     1      87.910  66.367  87.345  0.00  0.00    +0.000 A 
ATOM     15  C   UNL     1      87.660  67.740  87.322  0.00  0.00    +0.000 A 
ATOM     16  F   UNL     1      91.243  66.276  85.907  0.00  0.00    +0.000 F 
ENDBRANCH   9  10
ENDBRANCH   1   9
TORSDOF 3
ENDMDL
