REMARK  Name = *****
REMARK  4 active torsions:
REMARK  status: ('A' for Active; 'I' for Inactive)
REMARK    1  A    between atoms: C_4  and  S_8
REMARK    2  A    between atoms: S_8  and  C_9
REMARK    3  A    between atoms: C_9  and  C_10
REMARK    4  A    between atoms: C_10  and  C_11
REMARK                            x       y       z     vdW  Elec       q    Type
REMARK                         _______ _______ _______ _____ _____    ______ ____
ROOT
ATOM      1  S   UNL     1       0.179   2.546   0.299  0.00  0.00    +0.000 S 
ENDROOT
BRANCH   1   5
ATOM      2  C   UNL     1      -0.353  -2.012  -0.321  0.00  0.00    +0.000 A 
ATOM      3  C   UNL     1      -0.066  -1.186  -1.404  0.00  0.00    +0.000 A 
ATOM      4  C   UNL     1       0.092   0.194  -1.221  0.00  0.00    +0.000 A 
ATOM      5  C   UNL     1      -0.037   0.774   0.057  0.00  0.00    +0.000 A 
ATOM      6  C   UNL     1      -0.325  -0.079   1.141  0.00  0.00    +0.000 A 
ATOM      7  C   UNL     1      -0.482  -1.458   0.950  0.00  0.00    +0.000 A 
ATOM      8 CL   UNL     1      -0.514   0.501   2.764  0.00  0.00    +0.000 Cl
ATOM      9 CL   UNL     1       0.440   1.126  -2.642  0.00  0.00    +0.000 Cl
ENDBRANCH   1   5
BRANCH   1  10
ATOM     10  C   UNL     1      -1.553   3.066   0.067  0.00  0.00    +0.000 C 
BRANCH  10  11
ATOM     11  C   UNL     1      -1.668   4.584   0.205  0.00  0.00    +0.000 C 
BRANCH  11  12
ATOM     12  C   UNL     1      -3.094   5.042   0.023  0.00  0.00    +0.000 A 
ATOM     13  C   UNL     1      -3.957   5.144   1.117  0.00  0.00    +0.000 A 
ATOM     14  C   UNL     1      -5.265   5.547   0.895  0.00  0.00    +0.000 A 
ATOM     15  N   UNL     1      -5.764   5.845  -0.323  0.00  0.00    +0.000 NA
ATOM     16  C   UNL     1      -4.914   5.739  -1.367  0.00  0.00    +0.000 A 
ATOM     17  C   UNL     1      -3.590   5.344  -1.248  0.00  0.00    +0.000 A 
ENDBRANCH  11  12
ENDBRANCH  10  11
ENDBRANCH   1  10
TORSDOF 4
