MODEL 1
REMARK VINA RESULT:      -4.2      0.000      0.000
REMARK  Name = *****
REMARK  5 active torsions:
REMARK  status: ('A' for Active; 'I' for Inactive)
REMARK    1  A    between atoms: C_4  and  C_7
REMARK    2  A    between atoms: C_7  and  C_8
REMARK    3  A    between atoms: C_8  and  C_9
REMARK    4  A    between atoms: C_9  and  O_11
REMARK    5  A    between atoms: O_11  and  C_12
REMARK                            x       y       z     vdW  Elec       q    Type
REMARK                         _______ _______ _______ _____ _____    ______ ____
ROOT
ATOM      1  C   UNL     1      99.286 127.065  82.694  0.00  0.00    +0.000 C 
ATOM      2  O   UNL     1      98.227 127.090  82.083  0.00  0.00    +0.000 OA
ENDROOT
BRANCH   1   3
ATOM      3  C   UNL     1     100.527 126.361  82.206  0.00  0.00    +0.000 C 
BRANCH   3   4
ATOM      4  C   UNL     1     101.663 126.509  83.213  0.00  0.00    +0.000 C 
BRANCH   4   8
ATOM      5  C   UNL     1     104.502 128.676  80.668  0.00  0.00    +0.000 C 
ATOM      6  C   UNL     1     104.545 128.945  82.167  0.00  0.00    +0.000 C 
ATOM      7  C   UNL     1     103.275 128.464  82.868  0.00  0.00    +0.000 C 
ATOM      8  C   UNL     1     102.986 126.980  82.580  0.00  0.00    +0.000 C 
ATOM      9  C   UNL     1     102.954 126.724  81.063  0.00  0.00    +0.000 C 
ATOM     10  C   UNL     1     104.229 127.205  80.374  0.00  0.00    +0.000 C 
ENDBRANCH   4   8
ENDBRANCH   3   4
ENDBRANCH   1   3
BRANCH   1  11
ATOM     11  O   UNL     1      99.517 127.640  83.906  0.00  0.00    +0.000 OA
BRANCH  11  12
ATOM     12  C   UNL     1      98.960 128.952  84.100  0.00  0.00    +0.000 C 
ATOM     13  C   UNL     1      99.992 130.015  83.710  0.00  0.00    +0.000 C 
ATOM     14  C   UNL     1      99.508 131.422  84.050  0.00  0.00    +0.000 C 
ATOM     15  C   UNL     1      99.118 131.543  85.520  0.00  0.00    +0.000 C 
ATOM     16  C   UNL     1      98.097 130.481  85.921  0.00  0.00    +0.000 C 
ATOM     17  C   UNL     1      98.586 129.078  85.579  0.00  0.00    +0.000 C 
ENDBRANCH  11  12
ENDBRANCH   1  11
TORSDOF 5
ENDMDL
