MODEL 1
REMARK VINA RESULT:      -4.4      0.000      0.000
REMARK  Name = *****
REMARK  4 active torsions:
REMARK  status: ('A' for Active; 'I' for Inactive)
REMARK    1  A    between atoms: C_1  and  C_2
REMARK    2  A    between atoms: C_5  and  N_8
REMARK    3  A    between atoms: N_8  and  S_9
REMARK    4  A    between atoms: S_9  and  C_11
REMARK                            x       y       z     vdW  Elec       q    Type
REMARK                         _______ _______ _______ _____ _____    ______ ____
ROOT
ATOM      1  N   UNL     1     103.245 127.133  81.772  0.00  0.00    +0.000 N 
ATOM      2  H   UNL     1     103.073 127.730  81.008  0.00  0.00    +0.000 HD
ENDROOT
BRANCH   1   7
ATOM      3  C   UNL     1     105.220 121.787  81.014  0.00  0.00    +0.000 C 
ATOM      4  C   UNL     1     104.719 123.189  81.191  0.00  0.00    +0.000 A 
ATOM      5  C   UNL     1     104.684 124.081  80.117  0.00  0.00    +0.000 A 
ATOM      6  C   UNL     1     104.191 125.380  80.283  0.00  0.00    +0.000 A 
ATOM      7  C   UNL     1     103.686 125.813  81.516  0.00  0.00    +0.000 A 
ATOM      8  C   UNL     1     103.747 124.914  82.593  0.00  0.00    +0.000 A 
ATOM      9  C   UNL     1     104.242 123.615  82.433  0.00  0.00    +0.000 A 
ENDBRANCH   1   7
BRANCH   1  10
ATOM     10  S   UNL     1     103.000 127.719  83.323  0.00  0.00    +0.000 S 
ATOM     11  O   UNL     1     103.472 129.139  83.414  0.00  0.00    +0.000 OA
BRANCH  10  12
ATOM     12  C   UNL     1     101.199 127.801  83.134  0.00  0.00    +0.000 A 
ATOM     13  C   UNL     1     100.507 128.937  83.575  0.00  0.00    +0.000 A 
ATOM     14  C   UNL     1      99.121 129.015  83.433  0.00  0.00    +0.000 A 
ATOM     15  C   UNL     1      98.420 127.961  82.848  0.00  0.00    +0.000 A 
ATOM     16  C   UNL     1      99.103 126.829  82.404  0.00  0.00    +0.000 A 
ATOM     17  C   UNL     1     100.489 126.749  82.545  0.00  0.00    +0.000 A 
ENDBRANCH  10  12
ENDBRANCH   1  10
TORSDOF 3
ENDMDL
