MODEL 1
REMARK VINA RESULT:      -5.3      0.000      0.000
REMARK  Name = *****
REMARK  2 active torsions:
REMARK  status: ('A' for Active; 'I' for Inactive)
REMARK    1  A    between atoms: C_1  and  C_2
REMARK    2  A    between atoms: C_3  and  C_12
REMARK                            x       y       z     vdW  Elec       q    Type
REMARK                         _______ _______ _______ _____ _____    ______ ____
ROOT
ATOM      1  C   UNL     1     103.587 127.627  79.894  0.00  0.00    +0.000 C 
ATOM      2  C   UNL     1     103.578 126.427  80.769  0.00  0.00    +0.000 C 
ATOM      3  C   UNL     1     102.866 126.170  81.884  0.00  0.00    +0.000 C 
ATOM      4  C   UNL     1     103.156 124.812  82.482  0.00  0.00    +0.000 C 
ATOM      5  C   UNL     1     104.179 124.297  81.517  0.00  0.00    +0.000 A 
ATOM      6  C   UNL     1     104.417 125.254  80.516  0.00  0.00    +0.000 A 
ATOM      7  C   UNL     1     105.330 125.006  79.503  0.00  0.00    +0.000 A 
ATOM      8  C   UNL     1     106.005 123.782  79.501  0.00  0.00    +0.000 A 
ATOM      9  C   UNL     1     105.757 122.838  80.505  0.00  0.00    +0.000 A 
ATOM     10  C   UNL     1     104.842 123.081  81.525  0.00  0.00    +0.000 A 
ATOM     11  F   UNL     1     106.417 121.672  80.481  0.00  0.00    +0.000 F 
ENDROOT
BRANCH   3  12
ATOM     12  C   UNL     1     101.893 127.055  82.516  0.00  0.00    +0.000 A 
ATOM     13  C   UNL     1     102.324 128.181  83.225  0.00  0.00    +0.000 A 
ATOM     14  C   UNL     1     101.392 129.022  83.838  0.00  0.00    +0.000 A 
ATOM     15  C   UNL     1     100.029 128.739  83.744  0.00  0.00    +0.000 A 
ATOM     16  C   UNL     1      99.597 127.616  83.041  0.00  0.00    +0.000 A 
ATOM     17  C   UNL     1     100.526 126.773  82.429  0.00  0.00    +0.000 A 
ENDBRANCH   3  12
TORSDOF 1
ENDMDL
