MODEL 1
REMARK VINA RESULT:      -3.4      0.000      0.000
REMARK  Name = *****
REMARK  3 active torsions:
REMARK  status: ('A' for Active; 'I' for Inactive)
REMARK    1  A    between atoms: C_5  and  S_7
REMARK    2  A    between atoms: S_7  and  C_8
REMARK    3  A    between atoms: C_8  and  C_9
REMARK                            x       y       z     vdW  Elec       q    Type
REMARK                         _______ _______ _______ _____ _____    ______ ____
ROOT
ATOM      1  S   UNL     1     103.257 127.159  84.183  0.00  0.00    +0.000 S 
ENDROOT
BRANCH   1   6
ATOM      2  C   UNL     1     103.715 124.859  81.270  0.00  0.00    +0.000 C 
ATOM      3  C   UNL     1     103.762 125.756  80.034  0.00  0.00    +0.000 C 
ATOM      4  C   UNL     1     103.664 127.214  80.364  0.00  0.00    +0.000 C 
ATOM      5  C   UNL     1     103.916 127.709  81.584  0.00  0.00    +0.000 C 
ATOM      6  C   UNL     1     104.361 126.869  82.749  0.00  0.00    +0.000 C 
ATOM      7  C   UNL     1     104.592 125.386  82.409  0.00  0.00    +0.000 C 
ENDBRANCH   1   6
BRANCH   1   8
ATOM      8  C   UNL     1     102.228 128.535  83.585  0.00  0.00    +0.000 C 
BRANCH   8   9
ATOM      9  C   UNL     1     100.862 128.040  83.210  0.00  0.00    +0.000 A 
ATOM     10  C   UNL     1     100.517 126.834  82.629  0.00  0.00    +0.000 A 
ATOM     11  C   UNL     1      99.112 126.709  82.428  0.00  0.00    +0.000 A 
ATOM     12  C   UNL     1      98.429 127.821  82.867  0.00  0.00    +0.000 A 
ATOM     13  S   UNL     1      99.477 129.005  83.516  0.00  0.00    +0.000 S 
ENDBRANCH   8   9
ENDBRANCH   1   8
TORSDOF 3
ENDMDL
