MODEL 1
REMARK VINA RESULT:      -4.2      0.000      0.000
REMARK  Name = *****
REMARK  6 active torsions:
REMARK  status: ('A' for Active; 'I' for Inactive)
REMARK    1  A    between atoms: C_1  and  C_2
REMARK    2  A    between atoms: C_4  and  C_8
REMARK    3  A    between atoms: C_5  and  C_7
REMARK    4  A    between atoms: C_8  and  C_9
REMARK    5  A    between atoms: C_9  and  C_11
REMARK    6  A    between atoms: C_12  and  C_17
REMARK                            x       y       z     vdW  Elec       q    Type
REMARK                         _______ _______ _______ _____ _____    ______ ____
ROOT
ATOM      1  C   UNL     1     103.942 126.973  80.943  0.00  0.00    +0.000 C 
ATOM      2  O   UNL     1     103.596 127.706  80.017  0.00  0.00    +0.000 OA
ENDROOT
BRANCH   1   3
ATOM      3  C   UNL     1     104.596 125.673  80.673  0.00  0.00    +0.000 A 
ATOM      4  C   UNL     1     105.872 125.547  80.126  0.00  0.00    +0.000 A 
ATOM      5  S   UNL     1     106.343 123.905  79.939  0.00  0.00    +0.000 S 
ATOM      6  C   UNL     1     104.881 123.359  80.571  0.00  0.00    +0.000 A 
ATOM      7  C   UNL     1     104.030 124.371  80.927  0.00  0.00    +0.000 A 
ATOM      8 CL   UNL     1     104.584 121.674  80.715  0.00  0.00    +0.000 Cl
ATOM      9  C   UNL     1     106.829 126.622  79.706  0.00  0.00    +0.000 C 
ENDBRANCH   1   3
BRANCH   1  10
ATOM     10  C   UNL     1     103.724 127.353  82.407  0.00  0.00    +0.000 C 
BRANCH  10  14
ATOM     11  C   UNL     1      98.621 126.663  82.496  0.00  0.00    +0.000 C 
ATOM     12  C   UNL     1      99.971 127.232  82.773  0.00  0.00    +0.000 A 
ATOM     13  C   UNL     1     101.193 126.814  82.294  0.00  0.00    +0.000 A 
ATOM     14  C   UNL     1     102.287 127.611  82.773  0.00  0.00    +0.000 A 
ATOM     15  C   UNL     1     101.832 128.617  83.612  0.00  0.00    +0.000 A 
ATOM     16  S   UNL     1     100.130 128.584  83.798  0.00  0.00    +0.000 S 
ATOM     17  C   UNL     1     102.609 129.687  84.308  0.00  0.00    +0.000 C 
ENDBRANCH  10  14
ENDBRANCH   1  10
TORSDOF 3
ENDMDL
