REMARK  Name = *****
REMARK  3 active torsions:
REMARK  status: ('A' for Active; 'I' for Inactive)
REMARK    1  A    between atoms: C_6  and  C_7
REMARK    2  A    between atoms: C_7  and  O_9
REMARK    3  A    between atoms: O_9  and  C_10
REMARK                            x       y       z     vdW  Elec       q    Type
REMARK                         _______ _______ _______ _____ _____    ______ ____
ROOT
ATOM      1  C   UNL     1       3.589   0.042  -0.930  0.00  0.00    +0.000 C 
ATOM      2  O   UNL     1       4.203  -0.978  -1.203  0.00  0.00    +0.000 OA
ENDROOT
BRANCH   1   8
ATOM      3  C   UNL     1       1.512   1.207  -0.046  0.00  0.00    +0.000 A 
ATOM      4  C   UNL     1       0.219   1.135   0.485  0.00  0.00    +0.000 A 
ATOM      5  C   UNL     1      -0.376  -0.107   0.701  0.00  0.00    +0.000 A 
ATOM      6  C   UNL     1       0.309  -1.281   0.391  0.00  0.00    +0.000 A 
ATOM      7  C   UNL     1       1.600  -1.211  -0.139  0.00  0.00    +0.000 A 
ATOM      8  C   UNL     1       2.211   0.033  -0.362  0.00  0.00    +0.000 A 
ATOM      9 CL   UNL     1      -1.965  -0.191   1.354  0.00  0.00    +0.000 Cl
ENDBRANCH   1   8
BRANCH   1  10
ATOM     10  O   UNL     1       4.023   1.346  -1.082  0.00  0.00    +0.000 OA
BRANCH  10  11
ATOM     11  C   UNL     1       5.306   1.474  -1.623  0.00  0.00    +0.000 A 
ATOM     12  C   UNL     1       5.552   1.151  -2.958  0.00  0.00    +0.000 A 
ATOM     13  C   UNL     1       6.832   1.343  -3.481  0.00  0.00    +0.000 A 
ATOM     14  C   UNL     1       7.840   1.869  -2.671  0.00  0.00    +0.000 A 
ATOM     15  C   UNL     1       7.581   2.209  -1.342  0.00  0.00    +0.000 A 
ATOM     16  C   UNL     1       6.303   2.018  -0.814  0.00  0.00    +0.000 A 
ATOM     17 CL   UNL     1       9.416   2.108  -3.319  0.00  0.00    +0.000 Cl
ENDBRANCH  10  11
ENDBRANCH   1  10
TORSDOF 3
