MODEL 1
REMARK VINA RESULT:      -4.9      0.000      0.000
REMARK  Name = *****
REMARK  2 active torsions:
REMARK  status: ('A' for Active; 'I' for Inactive)
REMARK    1  A    between atoms: C_1  and  C_2
REMARK    2  A    between atoms: C_10  and  C_13
REMARK                            x       y       z     vdW  Elec       q    Type
REMARK                         _______ _______ _______ _____ _____    ______ ____
ROOT
ATOM      1  C   UNL     1      90.592  71.064  84.476  0.00  0.00    +0.000 C 
ATOM      2  C   UNL     1      89.187  70.483  84.659  0.00  0.00    +0.000 C 
ATOM      3  C   UNL     1      88.829  70.328  86.144  0.00  0.00    +0.000 C 
ATOM      4  C   UNL     1      89.560  69.164  86.813  0.00  0.00    +0.000 C 
ATOM      5  C   UNL     1      89.360  67.834  86.069  0.00  0.00    +0.000 C 
ATOM      6  C   UNL     1      89.762  67.995  84.594  0.00  0.00    +0.000 C 
ATOM      7  C   UNL     1      89.025  69.150  83.915  0.00  0.00    +0.000 C 
ATOM      8  O   UNL     1      90.192  66.872  86.741  0.00  0.00    +0.000 OA
ATOM      9  O   UNL     1      89.962  65.556  86.125  0.00  0.00    +0.000 OA
ATOM     10  C   UNL     1      88.577  65.218  86.315  0.00  0.00    +0.000 C 
ATOM     11  O   UNL     1      87.754  66.166  85.611  0.00  0.00    +0.000 OA
ATOM     12  O   UNL     1      87.970  67.489  86.218  0.00  0.00    +0.000 OA
ENDROOT
BRANCH  10  13
ATOM     13  C   UNL     1      88.177  64.991  87.769  0.00  0.00    +0.000 A 
ATOM     14  C   UNL     1      87.029  65.601  88.305  0.00  0.00    +0.000 A 
ATOM     15  C   UNL     1      86.642  65.361  89.626  0.00  0.00    +0.000 A 
ATOM     16  C   UNL     1      87.392  64.498  90.421  0.00  0.00    +0.000 A 
ATOM     17  C   UNL     1      88.522  63.870  89.906  0.00  0.00    +0.000 A 
ATOM     18  C   UNL     1      88.909  64.110  88.585  0.00  0.00    +0.000 A 
ATOM     19 CL   UNL     1      86.915  64.202  92.048  0.00  0.00    +0.000 Cl
ENDBRANCH  10  13
TORSDOF 1
ENDMDL
