REMARK  Name = *****
REMARK  3 active torsions:
REMARK  status: ('A' for Active; 'I' for Inactive)
REMARK    1  A    between atoms: C_4  and  N_7
REMARK    2  A    between atoms: N_7  and  S_8
REMARK    3  A    between atoms: S_8  and  C_9
REMARK                            x       y       z     vdW  Elec       q    Type
REMARK                         _______ _______ _______ _____ _____    ______ ____
ROOT
ATOM      1  N   UNL     1      -2.726  -0.226   0.272  0.00  0.00    +0.000 N 
ATOM      2  H   UNL     1      -3.159   0.438   0.856  0.00  0.00    +0.000 HD
ENDROOT
BRANCH   1   6
ATOM      3  C   UNL     1       1.469   0.135  -0.211  0.00  0.00    +0.000 A 
ATOM      4  C   UNL     1       0.854  -1.083  -0.485  0.00  0.00    +0.000 A 
ATOM      5  C   UNL     1      -0.531  -1.219  -0.345  0.00  0.00    +0.000 A 
ATOM      6  C   UNL     1      -1.331  -0.135   0.045  0.00  0.00    +0.000 A 
ATOM      7  C   UNL     1      -0.684   1.074   0.352  0.00  0.00    +0.000 A 
ATOM      8  C   UNL     1       0.701   1.214   0.215  0.00  0.00    +0.000 A 
ENDBRANCH   1   6
BRANCH   1   9
ATOM      9  S   UNL     1      -3.658  -1.425  -0.419  0.00  0.00    +0.000 S 
BRANCH   9  10
ATOM     10  C   UNL     1      -4.959  -1.531   0.800  0.00  0.00    +0.000 A 
ATOM     11  C   UNL     1      -6.294  -1.536   0.382  0.00  0.00    +0.000 A 
ATOM     12  C   UNL     1      -7.327  -1.629   1.319  0.00  0.00    +0.000 A 
ATOM     13  C   UNL     1      -7.025  -1.724   2.676  0.00  0.00    +0.000 A 
ATOM     14  C   UNL     1      -5.700  -1.729   3.104  0.00  0.00    +0.000 A 
ATOM     15  C   UNL     1      -4.668  -1.635   2.166  0.00  0.00    +0.000 A 
ATOM     16 CL   UNL     1      -8.297  -1.839   3.828  0.00  0.00    +0.000 Cl
ENDBRANCH   9  10
ENDBRANCH   1   9
TORSDOF 3
