MODEL 1
REMARK VINA RESULT:      -4.3      0.000      0.000
REMARK  Name = *****
REMARK  5 active torsions:
REMARK  status: ('A' for Active; 'I' for Inactive)
REMARK    1  A    between atoms: C_1  and  C_2
REMARK    2  A    between atoms: C_2  and  N_4
REMARK    3  A    between atoms: N_4  and  C_5
REMARK    4  A    between atoms: N_4  and  C_12
REMARK    5  A    between atoms: C_5  and  C_6
REMARK                            x       y       z     vdW  Elec       q    Type
REMARK                         _______ _______ _______ _____ _____    ______ ____
ROOT
ATOM      1  N   UNL     1     103.659 126.623  82.204  0.00  0.00    +0.000 N 
ENDROOT
BRANCH   1   2
ATOM      2  C   UNL     1     104.378 125.328  82.029  0.00  0.00    +0.000 C 
ATOM      3  C   UNL     1     104.027 124.610  80.715  0.00  0.00    +0.000 C 
ATOM      4  C   UNL     1     104.801 123.299  80.578  0.00  0.00    +0.000 C 
ATOM      5  C   UNL     1     104.582 122.390  81.784  0.00  0.00    +0.000 C 
ATOM      6  C   UNL     1     104.923 123.095  83.093  0.00  0.00    +0.000 C 
ATOM      7  C   UNL     1     104.158 124.410  83.244  0.00  0.00    +0.000 C 
ENDBRANCH   1   2
BRANCH   1   9
ATOM      8  C   UNL     1     104.580 128.970  81.992  0.00  0.00    +0.000 C 
ATOM      9  C   UNL     1     103.925 127.746  81.381  0.00  0.00    +0.000 C 
ATOM     10  C   UNL     1     103.648 127.805  80.066  0.00  0.00    +0.000 C 
ENDBRANCH   1   9
BRANCH   1  11
ATOM     11  C   UNL     1     102.852 126.749  83.444  0.00  0.00    +0.000 C 
BRANCH  11  12
ATOM     12  C   UNL     1     101.450 127.298  83.240  0.00  0.00    +0.000 A 
ATOM     13  C   UNL     1     100.504 126.488  82.587  0.00  0.00    +0.000 A 
ATOM     14  C   UNL     1      99.195 126.933  82.382  0.00  0.00    +0.000 A 
ATOM     15  C   UNL     1      98.811 128.193  82.831  0.00  0.00    +0.000 A 
ATOM     16  C   UNL     1      99.732 129.006  83.486  0.00  0.00    +0.000 A 
ATOM     17  C   UNL     1     101.039 128.560  83.690  0.00  0.00    +0.000 A 
ENDBRANCH  11  12
ENDBRANCH   1  11
TORSDOF 4
ENDMDL
