MODEL 1
REMARK VINA RESULT:      -5.4      0.000      0.000
REMARK  Name = *****
REMARK  2 active torsions:
REMARK  status: ('A' for Active; 'I' for Inactive)
REMARK    1  A    between atoms: C_1  and  C_2
REMARK    2  A    between atoms: C_4  and  C_12
REMARK                            x       y       z     vdW  Elec       q    Type
REMARK                         _______ _______ _______ _____ _____    ______ ____
ROOT
ATOM      1  C   UNL     1      86.919  71.805  84.018  0.00  0.00    +0.000 C 
ATOM      2  C   UNL     1      87.353  71.302  85.365  0.00  0.00    +0.000 C 
ATOM      3  C   UNL     1      88.507  70.625  85.509  0.00  0.00    +0.000 C 
ATOM      4  C   UNL     1      89.023  70.088  86.821  0.00  0.00    +0.000 C 
ATOM      5  C   UNL     1      88.397  70.792  88.041  0.00  0.00    +0.000 C 
ATOM      6  C   UNL     1      86.966  71.234  87.839  0.00  0.00    +0.000 A 
ATOM      7  C   UNL     1      86.148  71.435  88.964  0.00  0.00    +0.000 A 
ATOM      8  C   UNL     1      84.843  71.896  88.814  0.00  0.00    +0.000 A 
ATOM      9  C   UNL     1      84.350  72.172  87.544  0.00  0.00    +0.000 A 
ATOM     10  C   UNL     1      85.162  71.985  86.421  0.00  0.00    +0.000 A 
ATOM     11  C   UNL     1      86.480  71.516  86.547  0.00  0.00    +0.000 A 
ENDROOT
BRANCH   4  12
ATOM     12  C   UNL     1      88.908  68.569  86.890  0.00  0.00    +0.000 A 
ATOM     13  C   UNL     1      89.931  67.767  86.361  0.00  0.00    +0.000 A 
ATOM     14  C   UNL     1      89.848  66.373  86.416  0.00  0.00    +0.000 A 
ATOM     15  C   UNL     1      88.741  65.763  87.000  0.00  0.00    +0.000 A 
ATOM     16  C   UNL     1      87.715  66.544  87.526  0.00  0.00    +0.000 A 
ATOM     17  C   UNL     1      87.797  67.938  87.471  0.00  0.00    +0.000 A 
ENDBRANCH   4  12
TORSDOF 1
ENDMDL
