MODEL 1
REMARK VINA RESULT:      -5.0      0.000      0.000
REMARK  Name = *****
REMARK  2 active torsions:
REMARK  status: ('A' for Active; 'I' for Inactive)
REMARK    1  A    between atoms: C_1  and  C_2
REMARK    2  A    between atoms: C_5  and  C_8
REMARK                            x       y       z     vdW  Elec       q    Type
REMARK                         _______ _______ _______ _____ _____    ______ ____
ROOT
ATOM      1  C   UNL     1      87.862  70.762  85.715  0.00  0.00    +0.000 C 
ATOM      2  N   UNL     1      88.050  70.751  84.444  0.00  0.00    +0.000 NA
ATOM      3  C   UNL     1      89.354  70.319  83.966  0.00  0.00    +0.000 C 
ATOM      4  C   UNL     1      89.938  69.157  84.734  0.00  0.00    +0.000 C 
ATOM      5  C   UNL     1      89.396  67.751  84.350  0.00  0.00    +0.000 C 
ATOM      6  C   UNL     1      88.195  67.569  85.279  0.00  0.00    +0.000 C 
ATOM      7  C   UNL     1      89.017  67.834  86.546  0.00  0.00    +0.000 C 
ATOM      8  C   UNL     1      89.629  69.231  86.246  0.00  0.00    +0.000 C 
ATOM      9  O   UNL     1      88.717  70.267  86.634  0.00  0.00    +0.000 OA
ATOM     10  C   UNL     1      90.094  66.793  86.327  0.00  0.00    +0.000 C 
ATOM     11  C   UNL     1      90.319  66.738  85.004  0.00  0.00    +0.000 C 
ENDROOT
BRANCH   1  16
ATOM     12  C   UNL     1      83.152  72.927  88.319  0.00  0.00    +0.000 C 
ATOM     13  C   UNL     1      84.379  72.397  87.637  0.00  0.00    +0.000 A 
ATOM     14  C   UNL     1      84.471  72.398  86.241  0.00  0.00    +0.000 A 
ATOM     15  C   UNL     1      85.598  71.872  85.602  0.00  0.00    +0.000 A 
ATOM     16  C   UNL     1      86.647  71.328  86.354  0.00  0.00    +0.000 A 
ATOM     17  C   UNL     1      86.549  71.314  87.751  0.00  0.00    +0.000 A 
ATOM     18  C   UNL     1      85.420  71.839  88.387  0.00  0.00    +0.000 A 
ENDBRANCH   1  16
TORSDOF 1
ENDMDL
