MODEL 1
REMARK VINA RESULT:      -4.8      0.000      0.000
REMARK  Name = *****
REMARK  3 active torsions:
REMARK  status: ('A' for Active; 'I' for Inactive)
REMARK    1  A    between atoms: C_4  and  C_7
REMARK    2  A    between atoms: C_7  and  C_8
REMARK    3  A    between atoms: C_8  and  C_9
REMARK                            x       y       z     vdW  Elec       q    Type
REMARK                         _______ _______ _______ _____ _____    ______ ____
ROOT
ATOM      1  C   UNL     1      87.795  70.589  88.207  0.00  0.00    +0.000 C 
ATOM      2  F   UNL     1      88.541  71.375  89.043  0.00  0.00    +0.000 F 
ENDROOT
BRANCH   1   6
ATOM      3  C   UNL     1      84.145  72.528  86.952  0.00  0.00    +0.000 A 
ATOM      4  C   UNL     1      85.066  72.091  86.003  0.00  0.00    +0.000 A 
ATOM      5  C   UNL     1      86.247  71.470  86.410  0.00  0.00    +0.000 A 
ATOM      6  C   UNL     1      86.519  71.281  87.772  0.00  0.00    +0.000 A 
ATOM      7  C   UNL     1      85.583  71.722  88.720  0.00  0.00    +0.000 A 
ATOM      8  C   UNL     1      84.402  72.344  88.309  0.00  0.00    +0.000 A 
ENDBRANCH   1   6
BRANCH   1   9
ATOM      9  C   UNL     1      88.657  70.172  86.998  0.00  0.00    +0.000 C 
ATOM     10  F   UNL     1      89.859  70.828  87.053  0.00  0.00    +0.000 F 
BRANCH   9  11
ATOM     11  C   UNL     1      88.838  68.669  86.931  0.00  0.00    +0.000 A 
ATOM     12  C   UNL     1      87.859  67.816  87.459  0.00  0.00    +0.000 A 
ATOM     13  C   UNL     1      88.012  66.431  87.384  0.00  0.00    +0.000 A 
ATOM     14  C   UNL     1      89.142  65.885  86.782  0.00  0.00    +0.000 A 
ATOM     15  C   UNL     1      90.122  66.723  86.251  0.00  0.00    +0.000 A 
ATOM     16  C   UNL     1      89.972  68.109  86.323  0.00  0.00    +0.000 A 
ENDBRANCH   9  11
ENDBRANCH   1   9
TORSDOF 3
ENDMDL
