MODEL 1
REMARK VINA RESULT:      -4.9      0.000      0.000
REMARK  Name = *****
REMARK  2 active torsions:
REMARK  status: ('A' for Active; 'I' for Inactive)
REMARK    1  A    between atoms: C_1  and  C_2
REMARK    2  A    between atoms: C_5  and  C_8
REMARK                            x       y       z     vdW  Elec       q    Type
REMARK                         _______ _______ _______ _____ _____    ______ ____
ROOT
ATOM      1  C   UNL     1     103.006 125.735  82.015  0.00  0.00    +0.000 C 
ATOM      2  N   UNL     1     103.111 125.465  80.765  0.00  0.00    +0.000 NA
ATOM      3  C   UNL     1     104.151 124.560  80.283  0.00  0.00    +0.000 C 
ATOM      4  C   UNL     1     105.305 125.401  79.680  0.00  0.00    +0.000 C 
ATOM      5  C   UNL     1     106.267 124.466  78.924  0.00  0.00    +0.000 C 
ATOM      6  C   UNL     1     106.991 123.726  80.062  0.00  0.00    +0.000 C 
ATOM      7  C   UNL     1     106.307 124.290  81.324  0.00  0.00    +0.000 C 
ATOM      8  C   UNL     1     106.134 125.752  80.917  0.00  0.00    +0.000 C 
ATOM      9  C   UNL     1     104.858 123.734  81.363  0.00  0.00    +0.000 C 
ATOM     10  C   UNL     1     104.169 123.837  82.704  0.00  0.00    +0.000 C 
ATOM     11  O   UNL     1     103.726 125.155  83.000  0.00  0.00    +0.000 OA
ENDROOT
BRANCH   1  16
ATOM     12  C   UNL     1      99.264 129.689  84.013  0.00  0.00    +0.000 C 
ATOM     13  C   UNL     1     100.242 128.658  83.532  0.00  0.00    +0.000 A 
ATOM     14  C   UNL     1      99.785 127.499  82.894  0.00  0.00    +0.000 A 
ATOM     15  C   UNL     1     100.694 126.553  82.410  0.00  0.00    +0.000 A 
ATOM     16  C   UNL     1     102.071 126.755  82.553  0.00  0.00    +0.000 A 
ATOM     17  C   UNL     1     102.529 127.920  83.180  0.00  0.00    +0.000 A 
ATOM     18  C   UNL     1     101.620 128.867  83.661  0.00  0.00    +0.000 A 
ENDBRANCH   1  16
TORSDOF 1
ENDMDL
