MODEL 1
REMARK VINA RESULT:      -4.8      0.000      0.000
REMARK  Name = *****
REMARK  4 active torsions:
REMARK  status: ('A' for Active; 'I' for Inactive)
REMARK    1  A    between atoms: C_1  and  N_2
REMARK    2  A    between atoms: N_2  and  C_3
REMARK    3  A    between atoms: N_2  and  C_9
REMARK    4  A    between atoms: C_9  and  C_11
REMARK                            x       y       z     vdW  Elec       q    Type
REMARK                         _______ _______ _______ _____ _____    ______ ____
ROOT
ATOM      1  C   UNL     1      88.874  70.041  86.943  0.00  0.00    +0.000 C 
ATOM      2  C   UNL     1      89.661  70.721  86.091  0.00  0.00    +0.000 C 
ENDROOT
BRANCH   1   3
ATOM      3  C   UNL     1      88.914  68.558  86.893  0.00  0.00    +0.000 A 
ATOM      4  C   UNL     1      90.020  67.913  86.314  0.00  0.00    +0.000 A 
ATOM      5  C   UNL     1      90.085  66.519  86.264  0.00  0.00    +0.000 A 
ATOM      6  C   UNL     1      89.045  65.768  86.796  0.00  0.00    +0.000 A 
ATOM      7  C   UNL     1      87.942  66.383  87.379  0.00  0.00    +0.000 A 
ATOM      8  C   UNL     1      87.876  67.777  87.429  0.00  0.00    +0.000 A 
ATOM      9  F   UNL     1      89.107  64.431  86.751  0.00  0.00    +0.000 F 
ENDBRANCH   1   3
BRANCH   1  11
ATOM     10  C   UNL     1      88.475  70.772  89.292  0.00  0.00    +0.000 C 
ATOM     11  N   UNL     1      88.039  70.637  87.895  0.00  0.00    +0.000 N 
BRANCH  11  12
ATOM     12  C   UNL     1      86.782  71.231  87.579  0.00  0.00    +0.000 A 
ATOM     13  C   UNL     1      86.362  71.451  86.255  0.00  0.00    +0.000 A 
ATOM     14  C   UNL     1      85.114  72.019  85.962  0.00  0.00    +0.000 A 
ATOM     15  C   UNL     1      84.251  72.380  86.989  0.00  0.00    +0.000 A 
ATOM     16  C   UNL     1      84.636  72.178  88.308  0.00  0.00    +0.000 A 
ATOM     17  C   UNL     1      85.884  71.611  88.595  0.00  0.00    +0.000 A 
ENDBRANCH  11  12
ENDBRANCH   1  11
TORSDOF 3
ENDMDL
