REMARK  Name = *****
REMARK  2 active torsions:
REMARK  status: ('A' for Active; 'I' for Inactive)
REMARK    1  A    between atoms: C_1  and  C_2
REMARK    2  A    between atoms: C_5  and  C_8
REMARK                            x       y       z     vdW  Elec       q    Type
REMARK                         _______ _______ _______ _____ _____    ______ ____
ROOT
ATOM      1  C   UNL     1      -3.222   0.195  -0.308  0.00  0.00    +0.000 C 
ATOM      2  O   UNL     1      -3.803  -0.872  -0.103  0.00  0.00    +0.000 OA
ATOM      3  N   UNL     1      -4.021   1.310  -0.618  0.00  0.00    +0.000 N 
ATOM      4  C   UNL     1      -5.394   1.384  -0.813  0.00  0.00    +0.000 A 
ATOM      5  C   UNL     1      -5.618   2.733  -1.062  0.00  0.00    +0.000 A 
ATOM      6  C   UNL     1      -6.917   3.194  -1.315  0.00  0.00    +0.000 A 
ATOM      7  C   UNL     1      -7.959   2.263  -1.307  0.00  0.00    +0.000 A 
ATOM      8  C   UNL     1      -7.723   0.910  -1.055  0.00  0.00    +0.000 A 
ATOM      9  C   UNL     1      -6.429   0.438  -0.802  0.00  0.00    +0.000 A 
ATOM     10 CL   UNL     1      -9.567   2.797  -1.614  0.00  0.00    +0.000 Cl
ATOM     11  N   UNL     1      -4.437   3.414  -1.009  0.00  0.00    +0.000 NA
ATOM     12  N   UNL     1      -3.474   2.549  -0.728  0.00  0.00    +0.000 NA
ENDROOT
BRANCH   1  17
ATOM     13  C   UNL     1       2.553   0.055   0.250  0.00  0.00    +0.000 C 
ATOM     14  C   UNL     1       1.062   0.098   0.080  0.00  0.00    +0.000 A 
ATOM     15  C   UNL     1       0.469   0.964  -0.845  0.00  0.00    +0.000 A 
ATOM     16  C   UNL     1      -0.922   1.012  -0.987  0.00  0.00    +0.000 A 
ATOM     17  C   UNL     1      -1.737   0.204  -0.188  0.00  0.00    +0.000 A 
ATOM     18  C   UNL     1      -1.144  -0.672   0.732  0.00  0.00    +0.000 A 
ATOM     19  C   UNL     1       0.245  -0.718   0.870  0.00  0.00    +0.000 A 
ENDBRANCH   1  17
TORSDOF 1
