MODEL 1
REMARK VINA RESULT:      -4.2      0.000      0.000
REMARK  Name = *****
REMARK  2 active torsions:
REMARK  status: ('A' for Active; 'I' for Inactive)
REMARK    1  A    between atoms: C_4  and  C_7
REMARK    2  A    between atoms: C_8  and  C_9
REMARK                            x       y       z     vdW  Elec       q    Type
REMARK                         _______ _______ _______ _____ _____    ______ ____
ROOT
ATOM      1  C   UNL     1     102.041 127.970  83.151  0.00  0.00    +0.000 C 
ATOM      2  C   UNL     1     100.672 127.926  83.267  0.00  0.00    +0.000 C 
ATOM      3  S   UNL     1      99.466 126.840  82.519  0.00  0.00    +0.000 S 
ATOM      4  S   UNL     1     103.246 129.055  83.900  0.00  0.00    +0.000 S 
ENDROOT
BRANCH   1   8
ATOM      5  C   UNL     1     103.960 125.086  80.594  0.00  0.00    +0.000 A 
ATOM      6  C   UNL     1     103.541 124.717  81.873  0.00  0.00    +0.000 A 
ATOM      7  C   UNL     1     102.920 125.654  82.701  0.00  0.00    +0.000 A 
ATOM      8  C   UNL     1     102.706 126.969  82.262  0.00  0.00    +0.000 A 
ATOM      9  C   UNL     1     103.137 127.328  80.976  0.00  0.00    +0.000 A 
ATOM     10  C   UNL     1     103.759 126.393  80.145  0.00  0.00    +0.000 A 
ENDBRANCH   1   8
BRANCH   2  11
ATOM     11  C   UNL     1     100.005 128.928  84.154  0.00  0.00    +0.000 A 
ATOM     12  C   UNL     1      99.742 130.227  83.694  0.00  0.00    +0.000 A 
ATOM     13  C   UNL     1      99.121 131.165  84.522  0.00  0.00    +0.000 A 
ATOM     14  C   UNL     1      98.756 130.814  85.823  0.00  0.00    +0.000 A 
ATOM     15  C   UNL     1      99.017 129.528  86.296  0.00  0.00    +0.000 A 
ATOM     16  C   UNL     1      99.640 128.592  85.466  0.00  0.00    +0.000 A 
ENDBRANCH   2  11
TORSDOF 2
ENDMDL
