MODEL 1
REMARK VINA RESULT:      -4.7      0.000      0.000
REMARK  Name = *****
REMARK  2 active torsions:
REMARK  status: ('A' for Active; 'I' for Inactive)
REMARK    1  A    between atoms: C_2  and  C_11
REMARK    2  A    between atoms: C_3  and  C_4
REMARK                            x       y       z     vdW  Elec       q    Type
REMARK                         _______ _______ _______ _____ _____    ______ ____
ROOT
ATOM      1  C   UNL     1      89.574  65.706  85.876  0.00  0.00    +0.000 C 
ATOM      2  C   UNL     1      88.425  66.155  86.742  0.00  0.00    +0.000 C 
ATOM      3  C   UNL     1      89.720  66.956  86.706  0.00  0.00    +0.000 C 
ENDROOT
BRANCH   3   4
ATOM      4  C   UNL     1      89.744  68.311  86.041  0.00  0.00    +0.000 A 
ATOM      5  C   UNL     1      89.606  69.493  86.790  0.00  0.00    +0.000 A 
ATOM      6  C   UNL     1      89.641  70.751  86.179  0.00  0.00    +0.000 A 
ATOM      7  C   UNL     1      89.821  70.846  84.803  0.00  0.00    +0.000 A 
ATOM      8  C   UNL     1      89.971  69.696  84.036  0.00  0.00    +0.000 A 
ATOM      9  C   UNL     1      89.936  68.441  84.654  0.00  0.00    +0.000 A 
ATOM     10 CL   UNL     1      89.864  72.391  84.048  0.00  0.00    +0.000 Cl
ENDBRANCH   3   4
BRANCH   2  11
ATOM     11  C   UNL     1      88.058  65.372  87.980  0.00  0.00    +0.000 A 
ATOM     12  C   UNL     1      87.037  65.803  88.843  0.00  0.00    +0.000 A 
ATOM     13  C   UNL     1      86.685  65.069  89.980  0.00  0.00    +0.000 A 
ATOM     14  C   UNL     1      87.346  63.879  90.272  0.00  0.00    +0.000 A 
ATOM     15  C   UNL     1      88.354  63.425  89.428  0.00  0.00    +0.000 A 
ATOM     16  C   UNL     1      88.702  64.163  88.294  0.00  0.00    +0.000 A 
ENDBRANCH   2  11
TORSDOF 2
ENDMDL
