REMARK  Name = *****
REMARK  6 active torsions:
REMARK  status: ('A' for Active; 'I' for Inactive)
REMARK    1  A    between atoms: C_1  and  C_2
REMARK    2  A    between atoms: C_2  and  C_3
REMARK    3  A    between atoms: C_2  and  C_4
REMARK    4  A    between atoms: C_6  and  S_9
REMARK    5  A    between atoms: S_9  and  C_10
REMARK    6  A    between atoms: C_10  and  C_11
REMARK                            x       y       z     vdW  Elec       q    Type
REMARK                         _______ _______ _______ _____ _____    ______ ____
ROOT
ATOM      1  C   UNL     1       2.846  -0.955  -1.264  0.00  0.00    +0.000 A 
ATOM      2  N   UNL     1       2.470  -2.192  -1.525  0.00  0.00    +0.000 NA
ATOM      3  C   UNL     1       3.182  -2.518  -2.649  0.00  0.00    +0.000 A 
ATOM      4  C   UNL     1       3.970  -1.460  -3.027  0.00  0.00    +0.000 A 
ATOM      5  O   UNL     1       3.764  -0.444  -2.143  0.00  0.00    +0.000 OA
ENDROOT
BRANCH   1   7
ATOM      6  C   UNL     1       0.895   0.050  -0.101  0.00  0.00    +0.000 C 
ATOM      7  C   UNL     1       2.418  -0.058  -0.152  0.00  0.00    +0.000 C 
ATOM      8  C   UNL     1       2.970  -0.562   1.180  0.00  0.00    +0.000 C 
ENDBRANCH   1   7
BRANCH   3   9
ATOM      9  S   UNL     1       3.079  -4.059  -3.452  0.00  0.00    +0.000 S 
BRANCH   9  10
ATOM     10  C   UNL     1       1.829  -4.881  -2.423  0.00  0.00    +0.000 C 
BRANCH  10  11
ATOM     11  C   UNL     1       1.535  -6.275  -2.920  0.00  0.00    +0.000 A 
ATOM     12  C   UNL     1       2.267  -7.372  -2.440  0.00  0.00    +0.000 A 
ATOM     13  C   UNL     1       2.002  -8.660  -2.909  0.00  0.00    +0.000 A 
ATOM     14  C   UNL     1       1.008  -8.864  -3.864  0.00  0.00    +0.000 A 
ATOM     15  C   UNL     1       0.280  -7.782  -4.355  0.00  0.00    +0.000 A 
ATOM     16  C   UNL     1       0.543  -6.493  -3.887  0.00  0.00    +0.000 A 
ENDBRANCH  10  11
ENDBRANCH   9  10
ENDBRANCH   3   9
TORSDOF 4
