REMARK  Name = *****
REMARK  5 active torsions:
REMARK  status: ('A' for Active; 'I' for Inactive)
REMARK    1  A    between atoms: C_1  and  C_2
REMARK    2  A    between atoms: C_3  and  C_21
REMARK    3  A    between atoms: C_5  and  C_8
REMARK    4  A    between atoms: C_16  and  C_20
REMARK    5  A    between atoms: C_17  and  C_19
REMARK                            x       y       z     vdW  Elec       q    Type
REMARK                         _______ _______ _______ _____ _____    ______ ____
ROOT
ATOM      1  C   UNL     1      -3.191  -1.445  -0.582  0.00  0.00    +0.000 C 
ATOM      2  O   UNL     1      -3.501  -1.014  -1.690  0.00  0.00    +0.000 OA
ATOM      3  N   UNL     1      -4.167  -2.111   0.181  0.00  0.00    +0.000 N 
ATOM      4  C   UNL     1      -3.948  -2.788   1.363  0.00  0.00    +0.000 A 
ATOM      5  N   UNL     1      -5.036  -3.336   1.850  0.00  0.00    +0.000 NA
ATOM      6  C   UNL     1      -6.017  -3.029   0.947  0.00  0.00    +0.000 A 
ATOM      7  C   UNL     1      -5.518  -2.266  -0.103  0.00  0.00    +0.000 A 
ATOM      8  C   UNL     1      -6.338  -1.822  -1.152  0.00  0.00    +0.000 A 
ATOM      9  C   UNL     1      -7.701  -2.178  -1.133  0.00  0.00    +0.000 A 
ATOM     10  C   UNL     1      -8.223  -2.952  -0.076  0.00  0.00    +0.000 A 
ATOM     11  C   UNL     1      -7.375  -3.380   0.964  0.00  0.00    +0.000 A 
ATOM     12  C   UNL     1      -9.671  -3.360  -0.043  0.00  0.00    +0.000 C 
ATOM     13  C   UNL     1      -8.584  -1.702  -2.258  0.00  0.00    +0.000 C 
ENDROOT
BRANCH   1  18
ATOM     14  C   UNL     1       2.293  -0.746   1.109  0.00  0.00    +0.000 C 
ATOM     15  C   UNL     1       0.873  -0.932   0.644  0.00  0.00    +0.000 A 
ATOM     16  C   UNL     1       0.573  -1.649  -0.533  0.00  0.00    +0.000 A 
ATOM     17  C   UNL     1      -0.766  -1.787  -0.930  0.00  0.00    +0.000 A 
ATOM     18  C   UNL     1      -1.793  -1.260  -0.142  0.00  0.00    +0.000 A 
ATOM     19  C   UNL     1      -1.503  -0.556   1.026  0.00  0.00    +0.000 A 
ATOM     20  C   UNL     1      -0.173  -0.398   1.416  0.00  0.00    +0.000 A 
ATOM     21  C   UNL     1       1.656  -2.236  -1.397  0.00  0.00    +0.000 C 
ENDBRANCH   1  18
TORSDOF 1
