MODEL 1
REMARK VINA RESULT:      -4.6      0.000      0.000
REMARK  Name = *****
REMARK  2 active torsions:
REMARK  status: ('A' for Active; 'I' for Inactive)
REMARK    1  A    between atoms: C_6  and  C_8
REMARK    2  A    between atoms: C_9  and  C_10
REMARK                            x       y       z     vdW  Elec       q    Type
REMARK                         _______ _______ _______ _____ _____    ______ ____
ROOT
ATOM      1  C   UNL     1     102.795 126.118  81.371  0.00  0.00    +0.000 C 
ATOM      2  C   UNL     1     101.814 125.962  82.272  0.00  0.00    +0.000 C 
ENDROOT
BRANCH   1   8
ATOM      3  C   UNL     1     105.108 123.548  80.297  0.00  0.00    +0.000 C 
ATOM      4  C   UNL     1     104.665 123.211  81.676  0.00  0.00    +0.000 C 
ATOM      5  C   UNL     1     105.024 122.169  82.436  0.00  0.00    +0.000 C 
ATOM      6  I   UNL     1     106.327 120.696  81.892  0.00  0.00    +0.000 I 
ATOM      7  O   UNL     1     103.770 124.156  82.151  0.00  0.00    +0.000 OA
ATOM      8  C   UNL     1     103.711 125.003  81.084  0.00  0.00    +0.000 C 
ATOM      9  N   UNL     1     104.391 124.790  80.007  0.00  0.00    +0.000 NA
ENDBRANCH   1   8
BRANCH   2  10
ATOM     10  C   UNL     1     100.857 127.016  82.639  0.00  0.00    +0.000 A 
ATOM     11  C   UNL     1      99.482 126.901  82.398  0.00  0.00    +0.000 A 
ATOM     12  C   UNL     1      98.604 127.916  82.790  0.00  0.00    +0.000 A 
ATOM     13  C   UNL     1      99.090 129.049  83.438  0.00  0.00    +0.000 A 
ATOM     14  C   UNL     1     100.453 129.167  83.699  0.00  0.00    +0.000 A 
ATOM     15  C   UNL     1     101.332 128.153  83.306  0.00  0.00    +0.000 A 
ENDBRANCH   2  10
TORSDOF 2
ENDMDL
