REMARK  Name = *****
REMARK  4 active torsions:
REMARK  status: ('A' for Active; 'I' for Inactive)
REMARK    1  A    between atoms: C_1  and  O_2
REMARK    2  A    between atoms: O_2  and  C_3
REMARK    3  A    between atoms: C_6  and  C_9
REMARK    4  A    between atoms: C_10  and  C_11
REMARK                            x       y       z     vdW  Elec       q    Type
REMARK                         _______ _______ _______ _____ _____    ______ ____
ROOT
ATOM      1  C   UNL     1       4.704  -0.075  -5.238  0.00  0.00    +0.000 C 
ATOM      2  C   UNL     1       5.166  -0.119  -6.347  0.00  0.00    +0.000 C 
ENDROOT
BRANCH   2   3
ATOM      3  C   UNL     1       5.714  -0.174  -7.666  0.00  0.00    +0.000 A 
ATOM      4  C   UNL     1       6.037   1.007  -8.338  0.00  0.00    +0.000 A 
ATOM      5  C   UNL     1       6.569   0.942  -9.625  0.00  0.00    +0.000 A 
ATOM      6  C   UNL     1       6.781  -0.289 -10.245  0.00  0.00    +0.000 A 
ATOM      7  C   UNL     1       6.458  -1.468  -9.573  0.00  0.00    +0.000 A 
ATOM      8  C   UNL     1       5.924  -1.410  -8.284  0.00  0.00    +0.000 A 
ATOM      9 CL   UNL     1       6.968   2.395 -10.458  0.00  0.00    +0.000 Cl
ENDBRANCH   2   3
BRANCH   1  13
ATOM     10  C   UNL     1       3.061   0.072  -1.337  0.00  0.00    +0.000 A 
ATOM     11  C   UNL     1       2.429   0.734  -2.391  0.00  0.00    +0.000 A 
ATOM     12  C   UNL     1       2.974   0.685  -3.680  0.00  0.00    +0.000 A 
ATOM     13  C   UNL     1       4.152  -0.025  -3.920  0.00  0.00    +0.000 A 
ATOM     14  C   UNL     1       4.787  -0.686  -2.869  0.00  0.00    +0.000 A 
ATOM     15  C   UNL     1       4.241  -0.635  -1.584  0.00  0.00    +0.000 A 
BRANCH  10  17
ATOM     16  C   UNL     1       1.435   0.736   0.264  0.00  0.00    +0.000 C 
ATOM     17  O   UNL     1       2.637   0.038  -0.038  0.00  0.00    +0.000 OA
ENDBRANCH  10  17
ENDBRANCH   1  13
TORSDOF 3
