MODEL 1
REMARK VINA RESULT:      -4.7      0.000      0.000
REMARK  Name = *****
REMARK  5 active torsions:
REMARK  status: ('A' for Active; 'I' for Inactive)
REMARK    1  A    between atoms: C_1  and  C_2
REMARK    2  A    between atoms: C_2  and  C_3
REMARK    3  A    between atoms: C_3  and  C_4
REMARK    4  A    between atoms: C_3  and  C_11
REMARK    5  A    between atoms: C_4  and  C_5
REMARK                            x       y       z     vdW  Elec       q    Type
REMARK                         _______ _______ _______ _____ _____    ______ ____
ROOT
ATOM      1  C   UNL     1      87.917  70.685  85.743  0.00  0.00    +0.000 C 
ENDROOT
BRANCH   1   2
ATOM      2  C   UNL     1      86.653  71.277  86.360  0.00  0.00    +0.000 A 
ATOM      3  C   UNL     1      86.513  71.290  87.758  0.00  0.00    +0.000 A 
ATOM      4  C   UNL     1      85.377  71.840  88.358  0.00  0.00    +0.000 A 
ATOM      5  C   UNL     1      84.368  72.386  87.571  0.00  0.00    +0.000 A 
ATOM      6  C   UNL     1      84.494  72.388  86.185  0.00  0.00    +0.000 A 
ATOM      7  C   UNL     1      85.629  71.839  85.582  0.00  0.00    +0.000 A 
ENDBRANCH   1   2
BRANCH   1   9
ATOM      8  C   UNL     1      90.079  71.274  84.497  0.00  0.00    +0.000 C 
ATOM      9  C   UNL     1      88.631  71.656  84.774  0.00  0.00    +0.000 C 
ENDBRANCH   1   9
BRANCH   1  10
ATOM     10  C   UNL     1      88.841  70.045  86.810  0.00  0.00    +0.000 C 
BRANCH  10  11
ATOM     11  C   UNL     1      88.918  68.534  86.827  0.00  0.00    +0.000 A 
ATOM     12  C   UNL     1      90.026  67.873  86.277  0.00  0.00    +0.000 A 
ATOM     13  C   UNL     1      90.100  66.479  86.288  0.00  0.00    +0.000 A 
ATOM     14  C   UNL     1      89.073  65.730  86.855  0.00  0.00    +0.000 A 
ATOM     15  C   UNL     1      87.970  66.374  87.413  0.00  0.00    +0.000 A 
ATOM     16  C   UNL     1      87.895  67.768  87.402  0.00  0.00    +0.000 A 
ENDBRANCH  10  11
ENDBRANCH   1  10
TORSDOF 4
ENDMDL
