MODEL 1
REMARK VINA RESULT:      -4.3      0.000      0.000
REMARK  Name = *****
REMARK  5 active torsions:
REMARK  status: ('A' for Active; 'I' for Inactive)
REMARK    1  A    between atoms: C_1  and  C_2
REMARK    2  A    between atoms: C_3  and  C_8
REMARK    3  A    between atoms: C_8  and  O_9
REMARK    4  A    between atoms: O_9  and  C_10
REMARK    5  A    between atoms: C_10  and  C_12
REMARK                            x       y       z     vdW  Elec       q    Type
REMARK                         _______ _______ _______ _____ _____    ______ ____
ROOT
ATOM      1  O   UNL     1      99.945 126.863  82.181  0.00  0.00    +0.000 OA
ENDROOT
BRANCH   1   2
ATOM      2  C   UNL     1      98.749 127.144  82.747  0.00  0.00    +0.000 C 
ATOM      3  O   UNL     1      97.708 126.527  82.586  0.00  0.00    +0.000 OA
BRANCH   2   4
ATOM      4  C   UNL     1      98.858 128.355  83.605  0.00  0.00    +0.000 A 
ATOM      5  C   UNL     1      98.584 128.331  84.980  0.00  0.00    +0.000 A 
ATOM      6  C   UNL     1      98.698 129.498  85.740  0.00  0.00    +0.000 A 
ATOM      7  C   UNL     1      99.084 130.692  85.133  0.00  0.00    +0.000 A 
ATOM      8  C   UNL     1      99.359 130.725  83.767  0.00  0.00    +0.000 A 
ATOM      9  C   UNL     1      99.245 129.561  83.004  0.00  0.00    +0.000 A 
ENDBRANCH   2   4
ENDBRANCH   1   2
BRANCH   1  10
ATOM     10  C   UNL     1     100.999 126.475  83.075  0.00  0.00    +0.000 C 
BRANCH  10  13
ATOM     11  C   UNL     1     102.361 128.688  84.795  0.00  0.00    +0.000 C 
ATOM     12  C   UNL     1     102.825 128.224  83.439  0.00  0.00    +0.000 C 
ATOM     13  C   UNL     1     102.237 127.258  82.693  0.00  0.00    +0.000 C 
ATOM     14  C   UNL     1     102.801 126.837  81.345  0.00  0.00    +0.000 C 
ATOM     15  C   UNL     1     104.223 127.323  81.078  0.00  0.00    +0.000 C 
ATOM     16  C   UNL     1     104.369 128.782  81.472  0.00  0.00    +0.000 C 
ATOM     17  C   UNL     1     104.055 128.971  82.954  0.00  0.00    +0.000 C 
ENDBRANCH  10  13
ENDBRANCH   1  10
TORSDOF 4
ENDMDL
