REMARK  Name = *****
REMARK  1 active torsions:
REMARK  status: ('A' for Active; 'I' for Inactive)
REMARK    1  A    between atoms: C_2  and  C_11
REMARK                            x       y       z     vdW  Elec       q    Type
REMARK                         _______ _______ _______ _____ _____    ______ ____
ROOT
ATOM      1  C   UNL     1      -1.203   1.410   0.204  0.00  0.00    +0.000 C 
ATOM      2  C   UNL     1      -2.471   0.652  -0.218  0.00  0.00    +0.000 C 
ATOM      3  C   UNL     1      -2.585  -0.666   0.549  0.00  0.00    +0.000 C 
ATOM      4  S   UNL     1      -1.284  -1.836   0.057  0.00  0.00    +0.000 S 
ATOM      5  C   UNL     1       0.143  -0.764  -0.012  0.00  0.00    +0.000 A 
ATOM      6  C   UNL     1       1.390  -1.395  -0.147  0.00  0.00    +0.000 A 
ATOM      7  C   UNL     1       2.569  -0.652  -0.215  0.00  0.00    +0.000 A 
ATOM      8  C   UNL     1       2.515   0.735  -0.148  0.00  0.00    +0.000 A 
ATOM      9  C   UNL     1       1.283   1.374  -0.019  0.00  0.00    +0.000 A 
ATOM     10  C   UNL     1       0.083   0.637   0.036  0.00  0.00    +0.000 A 
ENDROOT
BRANCH   2  11
ATOM     11  C   UNL     1      -3.710   1.516  -0.021  0.00  0.00    +0.000 A 
ATOM     12  C   UNL     1      -4.465   1.911  -1.136  0.00  0.00    +0.000 A 
ATOM     13  C   UNL     1      -5.605   2.702  -0.982  0.00  0.00    +0.000 A 
ATOM     14  C   UNL     1      -6.004   3.112   0.287  0.00  0.00    +0.000 A 
ATOM     15  C   UNL     1      -5.265   2.730   1.404  0.00  0.00    +0.000 A 
ATOM     16  C   UNL     1      -4.125   1.938   1.252  0.00  0.00    +0.000 A 
ENDBRANCH   2  11
TORSDOF 1
