MODEL 1
REMARK VINA RESULT:      -4.7      0.000      0.000
REMARK  Name = *****
REMARK  2 active torsions:
REMARK  status: ('A' for Active; 'I' for Inactive)
REMARK    1  A    between atoms: C_4  and  C_7
REMARK    2  A    between atoms: C_8  and  C_9
REMARK                            x       y       z     vdW  Elec       q    Type
REMARK                         _______ _______ _______ _____ _____    ______ ____
ROOT
ATOM      1  C   UNL     1     102.107 125.968  82.180  0.00  0.00    +0.000 C 
ATOM      2  C   UNL     1     102.918 126.101  81.117  0.00  0.00    +0.000 C 
ENDROOT
BRANCH   1   6
ATOM      3  C   UNL     1      99.177 129.063  83.232  0.00  0.00    +0.000 C 
ATOM      4  C   UNL     1     100.601 129.096  83.807  0.00  0.00    +0.000 C 
ATOM      5  C   UNL     1     101.524 128.034  83.276  0.00  0.00    +0.000 C 
ATOM      6  C   UNL     1     101.105 126.951  82.587  0.00  0.00    +0.000 C 
ATOM      7  C   UNL     1      99.667 126.766  82.411  0.00  0.00    +0.000 C 
ATOM      8  C   UNL     1      98.773 127.724  82.692  0.00  0.00    +0.000 C 
ENDBRANCH   1   6
BRANCH   2   9
ATOM      9  C   UNL     1     103.931 125.109  80.730  0.00  0.00    +0.000 A 
ATOM     10  C   UNL     1     104.813 125.319  79.661  0.00  0.00    +0.000 A 
ATOM     11  C   UNL     1     105.784 124.366  79.343  0.00  0.00    +0.000 A 
ATOM     12  C   UNL     1     105.892 123.200  80.098  0.00  0.00    +0.000 A 
ATOM     13  C   UNL     1     105.032 122.987  81.173  0.00  0.00    +0.000 A 
ATOM     14  C   UNL     1     104.061 123.940  81.491  0.00  0.00    +0.000 A 
ENDBRANCH   2   9
TORSDOF 2
ENDMDL
