REMARK  Name = *****
REMARK  2 active torsions:
REMARK  status: ('A' for Active; 'I' for Inactive)
REMARK    1  A    between atoms: C_4  and  C_7
REMARK    2  A    between atoms: C_8  and  C_9
REMARK                            x       y       z     vdW  Elec       q    Type
REMARK                         _______ _______ _______ _____ _____    ______ ____
ROOT
ATOM      1  C   UNL     1       2.900   0.179  -0.232  0.00  0.00    +0.000 C 
ATOM      2  C   UNL     1       4.095   0.232  -0.340  0.00  0.00    +0.000 C 
ENDROOT
BRANCH   1   6
ATOM      3  C   UNL     1      -1.306  -0.056   0.070  0.00  0.00    +0.000 A 
ATOM      4  C   UNL     1      -0.680   1.190   0.022  0.00  0.00    +0.000 A 
ATOM      5  C   UNL     1       0.711   1.270  -0.073  0.00  0.00    +0.000 A 
ATOM      6  C   UNL     1       1.477   0.102  -0.121  0.00  0.00    +0.000 A 
ATOM      7  C   UNL     1       0.848  -1.145  -0.070  0.00  0.00    +0.000 A 
ATOM      8  C   UNL     1      -0.543  -1.223   0.025  0.00  0.00    +0.000 A 
ENDBRANCH   1   6
BRANCH   2   9
ATOM      9  C   UNL     1       5.509   0.280  -0.483  0.00  0.00    +0.000 A 
ATOM     10  C   UNL     1       6.273   1.422  -0.566  0.00  0.00    +0.000 A 
ATOM     11  O   UNL     1       7.593   1.106  -0.707  0.00  0.00    +0.000 OA
ATOM     12  C   UNL     1       7.672  -0.255  -0.714  0.00  0.00    +0.000 A 
ATOM     13  C   UNL     1       6.418  -0.787  -0.578  0.00  0.00    +0.000 A 
ATOM     14  F   UNL     1       6.131  -2.057  -0.546  0.00  0.00    +0.000 F 
ENDBRANCH   2   9
TORSDOF 2
