MODEL 1
REMARK VINA RESULT:      -4.7      0.000      0.000
REMARK  Name = *****
REMARK  2 active torsions:
REMARK  status: ('A' for Active; 'I' for Inactive)
REMARK    1  A    between atoms: N_7  and  C_11
REMARK    2  A    between atoms: C_11  and  C_12
REMARK                            x       y       z     vdW  Elec       q    Type
REMARK                         _______ _______ _______ _____ _____    ______ ____
ROOT
ATOM      1  C   UNL     1      84.588  72.264  86.557  0.00  0.00    +0.000 A 
ATOM      2  C   UNL     1      84.512  72.347  87.953  0.00  0.00    +0.000 A 
ATOM      3  C   UNL     1      85.533  71.823  88.747  0.00  0.00    +0.000 A 
ATOM      4  C   UNL     1      86.615  71.225  88.120  0.00  0.00    +0.000 A 
ATOM      5  C   UNL     1      86.698  71.136  86.729  0.00  0.00    +0.000 A 
ATOM      6  C   UNL     1      85.686  71.658  85.936  0.00  0.00    +0.000 A 
ATOM      7  N   UNL     1      87.878  70.494  86.295  0.00  0.00    +0.000 N 
ATOM      8  C   UNL     1      88.721  70.069  87.313  0.00  0.00    +0.000 A 
ATOM      9  O   UNL     1      89.787  69.484  87.195  0.00  0.00    +0.000 OA
ATOM     10  S   UNL     1      88.030  70.493  88.887  0.00  0.00    +0.000 S 
ENDROOT
BRANCH   7  11
ATOM     11  C   UNL     1      88.199  70.245  84.905  0.00  0.00    +0.000 C 
BRANCH  11  12
ATOM     12  C   UNL     1      89.119  71.289  84.309  0.00  0.00    +0.000 A 
ATOM     13  C   UNL     1      90.479  71.009  84.098  0.00  0.00    +0.000 A 
ATOM     14  C   UNL     1      91.324  71.974  83.546  0.00  0.00    +0.000 A 
ATOM     15  C   UNL     1      90.811  73.218  83.200  0.00  0.00    +0.000 A 
ATOM     16  C   UNL     1      89.468  73.515  83.391  0.00  0.00    +0.000 A 
ATOM     17  C   UNL     1      88.621  72.552  83.942  0.00  0.00    +0.000 A 
ATOM     18  F   UNL     1      91.623  74.142  82.670  0.00  0.00    +0.000 F 
ENDBRANCH  11  12
ENDBRANCH   7  11
TORSDOF 2
ENDMDL
