MODEL 1
REMARK VINA RESULT:      -4.5      0.000      0.000
REMARK  Name = *****
REMARK  2 active torsions:
REMARK  status: ('A' for Active; 'I' for Inactive)
REMARK    1  A    between atoms: C_4  and  C_7
REMARK    2  A    between atoms: C_8  and  C_9
REMARK                            x       y       z     vdW  Elec       q    Type
REMARK                         _______ _______ _______ _____ _____    ______ ____
ROOT
ATOM      1  C   UNL     1      87.394  63.152  87.942  0.00  0.00    +0.000 C 
ATOM      2  C   UNL     1      87.636  63.841  86.815  0.00  0.00    +0.000 C 
ATOM      3  F   UNL     1      86.839  61.924  87.800  0.00  0.00    +0.000 F 
ENDROOT
BRANCH   2   4
ATOM      4  C   UNL     1      88.301  65.147  86.694  0.00  0.00    +0.000 A 
ATOM      5  C   UNL     1      87.625  66.296  87.137  0.00  0.00    +0.000 A 
ATOM      6  C   UNL     1      88.224  67.554  87.055  0.00  0.00    +0.000 A 
ATOM      7  C   UNL     1      89.510  67.681  86.538  0.00  0.00    +0.000 A 
ATOM      8  C   UNL     1      90.200  66.550  86.103  0.00  0.00    +0.000 A 
ATOM      9  C   UNL     1      89.602  65.288  86.183  0.00  0.00    +0.000 A 
ATOM     10 BR   UNL     1      90.605  63.801  85.550  0.00  0.00    +0.000 Br
ENDBRANCH   2   4
BRANCH   1  14
ATOM     11  C   UNL     1      88.219  64.381  91.957  0.00  0.00    +0.000 A 
ATOM     12  C   UNL     1      89.270  63.980  91.133  0.00  0.00    +0.000 A 
ATOM     13  C   UNL     1      89.015  63.575  89.820  0.00  0.00    +0.000 A 
ATOM     14  C   UNL     1      87.705  63.553  89.322  0.00  0.00    +0.000 A 
ATOM     15  C   UNL     1      86.660  63.979  90.154  0.00  0.00    +0.000 A 
ATOM     16  C   UNL     1      86.915  64.385  91.467  0.00  0.00    +0.000 A 
ENDBRANCH   1  14
TORSDOF 2
ENDMDL
