MODEL 1
REMARK VINA RESULT:      -3.9      0.000      0.000
REMARK  Name = *****
REMARK  3 active torsions:
REMARK  status: ('A' for Active; 'I' for Inactive)
REMARK    1  A    between atoms: C_1  and  N_2
REMARK    2  A    between atoms: N_2  and  C_3
REMARK    3  A    between atoms: C_9  and  C_11
REMARK                            x       y       z     vdW  Elec       q    Type
REMARK                         _______ _______ _______ _____ _____    ______ ____
ROOT
ATOM      1  C   UNL     1     102.828 128.592  83.361  0.00  0.00    +0.000 C 
ATOM      2  N   UNL     1     102.052 127.487  82.790  0.00  0.00    +0.000 N 
ATOM      3  C   UNL     1     100.638 127.454  82.901  0.00  0.00    +0.000 C 
ATOM      4  O   UNL     1      99.921 126.616  82.359  0.00  0.00    +0.000 OA
ENDROOT
BRANCH   2   5
ATOM      5  C   UNL     1     102.800 126.451  82.112  0.00  0.00    +0.000 A 
ATOM      6  C   UNL     1     103.174 125.253  82.737  0.00  0.00    +0.000 A 
ATOM      7  C   UNL     1     103.893 124.263  82.054  0.00  0.00    +0.000 A 
ATOM      8  C   UNL     1     104.257 124.450  80.726  0.00  0.00    +0.000 A 
ATOM      9  C   UNL     1     103.900 125.626  80.080  0.00  0.00    +0.000 A 
ATOM     10  C   UNL     1     103.179 126.612  80.765  0.00  0.00    +0.000 A 
ENDBRANCH   2   5
BRANCH   3  11
ATOM     11  C   UNL     1     100.022 128.451  83.770  0.00  0.00    +0.000 A 
ATOM     12  C   UNL     1      99.557 129.718  83.457  0.00  0.00    +0.000 A 
ATOM     13  C   UNL     1      99.044 130.400  84.602  0.00  0.00    +0.000 A 
ATOM     14  C   UNL     1      99.164 129.629  85.729  0.00  0.00    +0.000 A 
ATOM     15  S   UNL     1      99.877 128.121  85.447  0.00  0.00    +0.000 S 
ATOM     16 CL   UNL     1      98.678 130.059  87.318  0.00  0.00    +0.000 Cl
ENDBRANCH   3  11
TORSDOF 2
ENDMDL
