REMARK  Name = *****
REMARK  3 active torsions:
REMARK  status: ('A' for Active; 'I' for Inactive)
REMARK    1  A    between atoms: C_4  and  C_7
REMARK    2  A    between atoms: C_7  and  C_8
REMARK    3  A    between atoms: C_9  and  N_10
REMARK                            x       y       z     vdW  Elec       q    Type
REMARK                         _______ _______ _______ _____ _____    ______ ____
ROOT
ATOM      1  C   UNL     1       3.274  -2.047   0.169  0.00  0.00    +0.000 C 
ATOM      2  C   UNL     1       3.545  -3.092  -0.623  0.00  0.00    +0.000 C 
ENDROOT
BRANCH   2   3
ATOM      3  N   UNL     1       3.989  -4.363  -0.297  0.00  0.00    +0.000 N 
ATOM      4  C   UNL     1       4.323  -5.339  -1.347  0.00  0.00    +0.000 C 
ATOM      5  C   UNL     1       3.703  -6.695  -1.018  0.00  0.00    +0.000 C 
ATOM      6  C   UNL     1       4.124  -7.174   0.368  0.00  0.00    +0.000 C 
ATOM      7  C   UNL     1       3.820  -6.110   1.420  0.00  0.00    +0.000 C 
ATOM      8  C   UNL     1       4.434  -4.762   1.045  0.00  0.00    +0.000 C 
ENDBRANCH   2   3
BRANCH   1   9
ATOM      9  C   UNL     1       2.772  -0.724  -0.340  0.00  0.00    +0.000 C 
BRANCH   9  13
ATOM     10  C   UNL     1      -1.446   0.473  -0.208  0.00  0.00    +0.000 C 
ATOM     11  C   UNL     1      -1.097  -0.953   0.200  0.00  0.00    +0.000 C 
ATOM     12  C   UNL     1       0.297  -1.354  -0.277  0.00  0.00    +0.000 C 
ATOM     13  C   UNL     1       1.374  -0.364   0.202  0.00  0.00    +0.000 C 
ATOM     14  C   UNL     1       1.006   1.070  -0.215  0.00  0.00    +0.000 C 
ATOM     15  C   UNL     1      -0.389   1.463   0.266  0.00  0.00    +0.000 C 
ENDBRANCH   9  13
ENDBRANCH   1   9
TORSDOF 3
