REMARK  Name = *****
REMARK  2 active torsions:
REMARK  status: ('A' for Active; 'I' for Inactive)
REMARK    1  A    between atoms: C_3  and  C_10
REMARK    2  A    between atoms: C_10  and  C_11
REMARK                            x       y       z     vdW  Elec       q    Type
REMARK                         _______ _______ _______ _____ _____    ______ ____
ROOT
ATOM      1  C   UNL     1      -1.729   1.283  -0.291  0.00  0.00    +0.000 C 
ATOM      2  C   UNL     1      -2.479  -0.026  -0.289  0.00  0.00    +0.000 C 
ATOM      3  C   UNL     1      -1.676  -1.092  -0.110  0.00  0.00    +0.000 C 
ATOM      4  C   UNL     1      -0.305  -0.591   0.007  0.00  0.00    +0.000 A 
ATOM      5  C   UNL     1       0.891  -1.265   0.187  0.00  0.00    +0.000 A 
ATOM      6  C   UNL     1       2.073  -0.521   0.261  0.00  0.00    +0.000 A 
ATOM      7  C   UNL     1       2.047   0.879   0.156  0.00  0.00    +0.000 A 
ATOM      8  C   UNL     1       0.840   1.556  -0.026  0.00  0.00    +0.000 A 
ATOM      9  C   UNL     1      -0.324   0.807  -0.098  0.00  0.00    +0.000 A 
ENDROOT
BRANCH   3  10
ATOM     10  C   UNL     1      -2.053  -2.539  -0.071  0.00  0.00    +0.000 C 
BRANCH  10  11
ATOM     11  C   UNL     1      -1.978  -3.195   1.283  0.00  0.00    +0.000 A 
ATOM     12  C   UNL     1      -2.554  -2.780   2.469  0.00  0.00    +0.000 A 
ATOM     13  C   UNL     1      -2.274  -3.666   3.549  0.00  0.00    +0.000 A 
ATOM     14  C   UNL     1      -1.500  -4.733   3.151  0.00  0.00    +0.000 A 
ATOM     15  S   UNL     1      -1.120  -4.665   1.486  0.00  0.00    +0.000 S 
ENDBRANCH  10  11
ENDBRANCH   3  10
TORSDOF 2
