MODEL 1
REMARK VINA RESULT:      -3.6      0.000      0.000
REMARK  Name = *****
REMARK  4 active torsions:
REMARK  status: ('A' for Active; 'I' for Inactive)
REMARK    1  A    between atoms: C_4  and  S_7
REMARK    2  A    between atoms: S_7  and  C_8
REMARK    3  A    between atoms: C_8  and  C_9
REMARK    4  A    between atoms: C_10  and  C_11
REMARK                            x       y       z     vdW  Elec       q    Type
REMARK                         _______ _______ _______ _____ _____    ______ ____
ROOT
ATOM      1  S   UNL     1     103.758 126.813  82.161  0.00  0.00    +0.000 S 
ENDROOT
BRANCH   1   5
ATOM      2  C   UNL     1      99.462 127.987  83.241  0.00  0.00    +0.000 A 
ATOM      3  C   UNL     1      99.696 126.812  82.528  0.00  0.00    +0.000 A 
ATOM      4  C   UNL     1     101.003 126.446  82.194  0.00  0.00    +0.000 A 
ATOM      5  C   UNL     1     102.080 127.248  82.580  0.00  0.00    +0.000 A 
ATOM      6  C   UNL     1     101.837 128.433  83.282  0.00  0.00    +0.000 A 
ATOM      7  C   UNL     1     100.531 128.799  83.616  0.00  0.00    +0.000 A 
ENDBRANCH   1   5
BRANCH   1   8
ATOM      8  C   UNL     1     103.447 125.809  80.673  0.00  0.00    +0.000 C 
BRANCH   8   9
ATOM      9  C   UNL     1     104.037 124.445  80.883  0.00  0.00    +0.000 C 
ATOM     10  C   UNL     1     105.032 123.857  80.191  0.00  0.00    +0.000 C 
ATOM     11 CL   UNL     1     105.818 124.707  78.886  0.00  0.00    +0.000 Cl
BRANCH  10  12
ATOM     12  C   UNL     1     105.613 122.482  80.405  0.00  0.00    +0.000 C 
ATOM     13 CL   UNL     1     104.471 121.265  81.020  0.00  0.00    +0.000 Cl
ENDBRANCH  10  12
ENDBRANCH   8   9
ENDBRANCH   1   8
TORSDOF 4
ENDMDL
