MODEL 1
REMARK VINA RESULT:      -5.0      0.000      0.000
REMARK  Name = *****
REMARK  4 active torsions:
REMARK  status: ('A' for Active; 'I' for Inactive)
REMARK    1  A    between atoms: C_1  and  C_2
REMARK    2  A    between atoms: C_5  and  C_8
REMARK    3  A    between atoms: C_8  and  C_10
REMARK    4  A    between atoms: C_12  and  C_13
REMARK                            x       y       z     vdW  Elec       q    Type
REMARK                         _______ _______ _______ _____ _____    ______ ____
ROOT
ATOM      1  C   UNL     1     103.260 126.733  80.771  0.00  0.00    +0.000 C 
ATOM      2  O   UNL     1     103.679 127.586  79.997  0.00  0.00    +0.000 OA
ENDROOT
BRANCH   1   7
ATOM      3  C   UNL     1      99.927 128.138  85.307  0.00  0.00    +0.000 C 
ATOM      4  C   UNL     1     100.809 127.788  84.144  0.00  0.00    +0.000 A 
ATOM      5  C   UNL     1     101.928 128.567  83.827  0.00  0.00    +0.000 A 
ATOM      6  C   UNL     1     102.741 128.235  82.739  0.00  0.00    +0.000 A 
ATOM      7  C   UNL     1     102.438 127.118  81.951  0.00  0.00    +0.000 A 
ATOM      8  C   UNL     1     101.329 126.329  82.277  0.00  0.00    +0.000 A 
ATOM      9  C   UNL     1     100.518 126.663  83.364  0.00  0.00    +0.000 A 
ENDBRANCH   1   7
BRANCH   1  10
ATOM     10  C   UNL     1     103.570 125.292  80.546  0.00  0.00    +0.000 C 
ATOM     11  C   UNL     1     104.806 124.905  79.777  0.00  0.00    +0.000 C 
ATOM     12  C   UNL     1     104.749 124.648  81.263  0.00  0.00    +0.000 C 
BRANCH  12  13
ATOM     13  C   UNL     1     104.622 123.235  81.785  0.00  0.00    +0.000 A 
ATOM     14  C   UNL     1     104.703 122.129  80.922  0.00  0.00    +0.000 A 
ATOM     15  C   UNL     1     104.598 120.821  81.403  0.00  0.00    +0.000 A 
ATOM     16  C   UNL     1     104.415 120.592  82.763  0.00  0.00    +0.000 A 
ATOM     17  C   UNL     1     104.344 121.670  83.642  0.00  0.00    +0.000 A 
ATOM     18  C   UNL     1     104.453 122.975  83.155  0.00  0.00    +0.000 A 
ENDBRANCH  12  13
ENDBRANCH   1  10
TORSDOF 3
ENDMDL
