MODEL 1
REMARK VINA RESULT:      -4.8      0.000      0.000
REMARK  Name = *****
REMARK  3 active torsions:
REMARK  status: ('A' for Active; 'I' for Inactive)
REMARK    1  A    between atoms: C_6  and  C_8
REMARK    2  A    between atoms: C_8  and  C_9
REMARK    3  A    between atoms: C_9  and  C_10
REMARK                            x       y       z     vdW  Elec       q    Type
REMARK                         _______ _______ _______ _____ _____    ______ ____
ROOT
ATOM      1  C   UNL     1     103.134 126.351  81.014  0.00  0.00    +0.000 C 
ENDROOT
BRANCH   1   7
ATOM      2  C   UNL     1     106.403 124.617  77.819  0.00  0.00    +0.000 C 
ATOM      3  C   UNL     1     105.978 124.577  79.092  0.00  0.00    +0.000 C 
ATOM      4  C   UNL     1     106.227 123.396  79.994  0.00  0.00    +0.000 C 
ATOM      5  C   UNL     1     104.913 122.884  80.577  0.00  0.00    +0.000 C 
ATOM      6  C   UNL     1     104.112 123.998  81.258  0.00  0.00    +0.000 C 
ATOM      7  C   UNL     1     103.864 125.191  80.313  0.00  0.00    +0.000 C 
ATOM      8  C   UNL     1     105.196 125.699  79.724  0.00  0.00    +0.000 C 
ENDBRANCH   1   7
BRANCH   1   9
ATOM      9  C   UNL     1     102.428 125.933  82.309  0.00  0.00    +0.000 C 
BRANCH   9  10
ATOM     10  C   UNL     1     101.317 126.891  82.667  0.00  0.00    +0.000 A 
ATOM     11  C   UNL     1      99.988 126.593  82.337  0.00  0.00    +0.000 A 
ATOM     12  C   UNL     1      98.964 127.487  82.653  0.00  0.00    +0.000 A 
ATOM     13  C   UNL     1      99.259 128.688  83.297  0.00  0.00    +0.000 A 
ATOM     14  C   UNL     1     100.578 128.997  83.623  0.00  0.00    +0.000 A 
ATOM     15  C   UNL     1     101.604 128.103  83.308  0.00  0.00    +0.000 A 
ENDBRANCH   9  10
ENDBRANCH   1   9
TORSDOF 3
ENDMDL
