MODEL 1
REMARK VINA RESULT:      -4.8      0.000      0.000
REMARK  Name = *****
REMARK  4 active torsions:
REMARK  status: ('A' for Active; 'I' for Inactive)
REMARK    1  A    between atoms: C_1  and  C_2
REMARK    2  A    between atoms: C_2  and  C_11
REMARK    3  A    between atoms: N_3  and  O_4
REMARK    4  A    between atoms: O_4  and  C_5
REMARK                            x       y       z     vdW  Elec       q    Type
REMARK                         _______ _______ _______ _____ _____    ______ ____
ROOT
ATOM      1  C   UNL     1      89.870  70.498  85.365  0.00  0.00    +0.000 C 
ATOM      2  C   UNL     1      88.871  69.884  86.328  0.00  0.00    +0.000 C 
ATOM      3  N   UNL     1      89.045  68.727  86.900  0.00  0.00    +0.000 NA
ENDROOT
BRANCH   2   4
ATOM      4  C   UNL     1      87.608  70.639  86.623  0.00  0.00    +0.000 A 
ATOM      5  C   UNL     1      87.163  70.855  87.935  0.00  0.00    +0.000 A 
ATOM      6  C   UNL     1      85.980  71.563  88.168  0.00  0.00    +0.000 A 
ATOM      7  C   UNL     1      85.251  72.061  87.095  0.00  0.00    +0.000 A 
ATOM      8  C   UNL     1      85.681  71.867  85.789  0.00  0.00    +0.000 A 
ATOM      9  C   UNL     1      86.860  71.157  85.552  0.00  0.00    +0.000 A 
ATOM     10  F   UNL     1      84.120  72.740  87.324  0.00  0.00    +0.000 F 
ENDBRANCH   2   4
BRANCH   3  11
ATOM     11  O   UNL     1      90.252  68.130  86.517  0.00  0.00    +0.000 OA
BRANCH  11  12
ATOM     12  C   UNL     1      90.098  66.772  86.349  0.00  0.00    +0.000 A 
ATOM     13  C   UNL     1      89.067  66.020  86.916  0.00  0.00    +0.000 A 
ATOM     14  C   UNL     1      88.990  64.646  86.674  0.00  0.00    +0.000 A 
ATOM     15  C   UNL     1      89.936  64.024  85.859  0.00  0.00    +0.000 A 
ATOM     16  C   UNL     1      90.959  64.775  85.282  0.00  0.00    +0.000 A 
ATOM     17  C   UNL     1      91.037  66.148  85.523  0.00  0.00    +0.000 A 
ENDBRANCH  11  12
ENDBRANCH   3  11
TORSDOF 3
ENDMDL
