REMARK  Name = *****
REMARK  3 active torsions:
REMARK  status: ('A' for Active; 'I' for Inactive)
REMARK    1  A    between atoms: C_1  and  C_2
REMARK    2  A    between atoms: C_9  and  C_11
REMARK    3  A    between atoms: C_11  and  C_12
REMARK                            x       y       z     vdW  Elec       q    Type
REMARK                         _______ _______ _______ _____ _____    ______ ____
ROOT
ATOM      1  C   UNL     1       1.019  -0.047  -0.101  0.00  0.00    +0.000 C 
ATOM      2  C   UNL     1       2.489   0.078  -0.104  0.00  0.00    +0.000 A 
ATOM      3  N   UNL     1       3.225   1.171  -0.179  0.00  0.00    +0.000 NA
ATOM      4  C   UNL     1       4.511   0.695  -0.133  0.00  0.00    +0.000 A 
ATOM      5  C   UNL     1       4.499  -0.686  -0.034  0.00  0.00    +0.000 A 
ATOM      6  O   UNL     1       3.197  -1.092  -0.016  0.00  0.00    +0.000 OA
ATOM      7  C   UNL     1       5.632  -1.484   0.037  0.00  0.00    +0.000 A 
ATOM      8  C   UNL     1       6.857  -0.804   0.005  0.00  0.00    +0.000 A 
ATOM      9  C   UNL     1       6.928   0.599  -0.099  0.00  0.00    +0.000 A 
ATOM     10  C   UNL     1       5.743   1.362  -0.167  0.00  0.00    +0.000 A 
ENDROOT
BRANCH   9  11
ATOM     11  C   UNL     1       8.272   1.296  -0.099  0.00  0.00    +0.000 C 
BRANCH  11  12
ATOM     12  C   UNL     1       8.767   1.639   1.286  0.00  0.00    +0.000 A 
ATOM     13  C   UNL     1       9.588   0.747   1.991  0.00  0.00    +0.000 A 
ATOM     14  C   UNL     1      10.025   1.055   3.281  0.00  0.00    +0.000 A 
ATOM     15  C   UNL     1       9.644   2.254   3.880  0.00  0.00    +0.000 A 
ATOM     16  C   UNL     1       8.825   3.146   3.191  0.00  0.00    +0.000 A 
ATOM     17  C   UNL     1       8.387   2.840   1.902  0.00  0.00    +0.000 A 
ENDBRANCH  11  12
ENDBRANCH   9  11
TORSDOF 2
