MODEL 1
REMARK VINA RESULT:      -5.0      0.000      0.000
REMARK  Name = *****
REMARK  4 active torsions:
REMARK  status: ('A' for Active; 'I' for Inactive)
REMARK    1  A    between atoms: C_1  and  C_2
REMARK    2  A    between atoms: C_2  and  C_4
REMARK    3  A    between atoms: C_8  and  C_10
REMARK    4  A    between atoms: C_12  and  C_13
REMARK                            x       y       z     vdW  Elec       q    Type
REMARK                         _______ _______ _______ _____ _____    ______ ____
ROOT
ATOM      1  C   UNL     1      99.571 129.016  83.553  0.00  0.00    +0.000 A 
ATOM      2  C   UNL     1      98.575 128.116  83.163  0.00  0.00    +0.000 A 
ATOM      3  C   UNL     1      98.927 126.912  82.554  0.00  0.00    +0.000 A 
ATOM      4  C   UNL     1     100.270 126.604  82.336  0.00  0.00    +0.000 A 
ATOM      5  C   UNL     1     101.296 127.480  82.722  0.00  0.00    +0.000 A 
ATOM      6  C   UNL     1     100.919 128.692  83.324  0.00  0.00    +0.000 A 
ENDROOT
BRANCH   1   8
ATOM      7  C   UNL     1      98.693 130.326  85.599  0.00  0.00    +0.000 C 
ATOM      8  C   UNL     1      99.256 130.323  84.202  0.00  0.00    +0.000 C 
ATOM      9  O   UNL     1      99.454 131.374  83.596  0.00  0.00    +0.000 OA
ENDBRANCH   1   8
BRANCH   5  10
ATOM     10  C   UNL     1     102.749 127.150  82.468  0.00  0.00    +0.000 C 
ATOM     11  C   UNL     1     103.708 128.230  82.038  0.00  0.00    +0.000 C 
ATOM     12  C   UNL     1     103.293 127.175  81.046  0.00  0.00    +0.000 C 
BRANCH  12  13
ATOM     13  C   UNL     1     104.274 126.114  80.605  0.00  0.00    +0.000 A 
ATOM     14  C   UNL     1     103.931 124.752  80.622  0.00  0.00    +0.000 A 
ATOM     15  C   UNL     1     104.830 123.768  80.201  0.00  0.00    +0.000 A 
ATOM     16  C   UNL     1     106.094 124.129  79.745  0.00  0.00    +0.000 A 
ATOM     17  C   UNL     1     106.456 125.472  79.707  0.00  0.00    +0.000 A 
ATOM     18  C   UNL     1     105.552 126.452  80.129  0.00  0.00    +0.000 A 
ENDBRANCH  12  13
ENDBRANCH   5  10
TORSDOF 3
ENDMDL
