MODEL 1
REMARK VINA RESULT:      -4.2      0.000      0.000
REMARK  Name = *****
REMARK  7 active torsions:
REMARK  status: ('A' for Active; 'I' for Inactive)
REMARK    1  A    between atoms: C_1  and  C_2
REMARK    2  A    between atoms: C_5  and  S_8
REMARK    3  A    between atoms: S_8  and  C_9
REMARK    4  A    between atoms: C_9  and  C_10
REMARK    5  A    between atoms: C_12  and  C_15
REMARK    6  A    between atoms: C_15  and  C_16
REMARK    7  A    between atoms: C_15  and  C_17
REMARK                            x       y       z     vdW  Elec       q    Type
REMARK                         _______ _______ _______ _____ _____    ______ ____
ROOT
ATOM      1  C   UNL     1      89.591  69.441  85.484  0.00  0.00    +0.000 C 
ENDROOT
BRANCH   1   2
ATOM      2  C   UNL     1      89.782  67.958  85.507  0.00  0.00    +0.000 C 
ATOM      3  N   UNL     1      89.487  67.182  86.503  0.00  0.00    +0.000 NA
ATOM      4  C   UNL     1      89.938  65.852  86.041  0.00  0.00    +0.000 C 
ATOM      5  C   UNL     1      90.092  66.025  84.538  0.00  0.00    +0.000 C 
ATOM      6  O   UNL     1      90.296  67.420  84.375  0.00  0.00    +0.000 OA
BRANCH   4   7
ATOM      7  C   UNL     1      88.936  64.762  86.453  0.00  0.00    +0.000 C 
ATOM      8  C   UNL     1      87.685  64.801  85.568  0.00  0.00    +0.000 C 
ATOM      9  C   UNL     1      88.523  64.905  87.921  0.00  0.00    +0.000 C 
ENDBRANCH   4   7
ENDBRANCH   1   2
BRANCH   1  10
ATOM     10  S   UNL     1      89.342  70.042  87.185  0.00  0.00    +0.000 S 
BRANCH  10  15
ATOM     11  C   UNL     1      83.855  72.644  86.651  0.00  0.00    +0.000 C 
ATOM     12  C   UNL     1      85.193  71.976  86.772  0.00  0.00    +0.000 A 
ATOM     13  C   UNL     1      85.970  71.734  85.634  0.00  0.00    +0.000 A 
ATOM     14  C   UNL     1      87.231  71.143  85.748  0.00  0.00    +0.000 A 
ATOM     15  C   UNL     1      87.733  70.788  87.003  0.00  0.00    +0.000 A 
ATOM     16  C   UNL     1      86.973  71.057  88.143  0.00  0.00    +0.000 A 
ATOM     17  C   UNL     1      85.711  71.647  88.030  0.00  0.00    +0.000 A 
ENDBRANCH  10  15
ENDBRANCH   1  10
TORSDOF 4
ENDMDL
