MODEL 1
REMARK VINA RESULT:      -4.5      0.000      0.000
REMARK  Name = *****
REMARK  3 active torsions:
REMARK  status: ('A' for Active; 'I' for Inactive)
REMARK    1  A    between atoms: C_6  and  O_7
REMARK    2  A    between atoms: O_7  and  C_8
REMARK    3  A    between atoms: C_8  and  C_10
REMARK                            x       y       z     vdW  Elec       q    Type
REMARK                         _______ _______ _______ _____ _____    ______ ____
ROOT
ATOM      1  C   UNL     1      88.376  64.671  86.359  0.00  0.00    +0.000 C 
ATOM      2  O   UNL     1      87.774  64.198  85.413  0.00  0.00    +0.000 OA
ENDROOT
BRANCH   1   3
ATOM      3  C   UNL     1      88.647  66.108  86.530  0.00  0.00    +0.000 A 
ATOM      4  C   UNL     1      89.873  66.665  86.150  0.00  0.00    +0.000 A 
ATOM      5  C   UNL     1      90.108  68.028  86.353  0.00  0.00    +0.000 A 
ATOM      6  C   UNL     1      89.122  68.823  86.934  0.00  0.00    +0.000 A 
ATOM      7  C   UNL     1      87.897  68.274  87.315  0.00  0.00    +0.000 A 
ATOM      8  C   UNL     1      87.658  66.914  87.114  0.00  0.00    +0.000 A 
ATOM      9 CL   UNL     1      89.414  70.500  87.181  0.00  0.00    +0.000 Cl
ATOM     10 CL   UNL     1      91.114  65.741  85.383  0.00  0.00    +0.000 Cl
ENDBRANCH   1   3
BRANCH   1  11
ATOM     11  O   UNL     1      88.934  64.024  87.445  0.00  0.00    +0.000 OA
BRANCH  11  17
ATOM     12  C   UNL     1      87.143  62.528  88.148  0.00  0.00    +0.000 A 
ATOM     13  C   UNL     1      86.286  62.089  89.158  0.00  0.00    +0.000 A 
ATOM     14  C   UNL     1      86.331  62.698  90.409  0.00  0.00    +0.000 A 
ATOM     15  C   UNL     1      87.218  63.739  90.674  0.00  0.00    +0.000 A 
ATOM     16  C   UNL     1      88.074  64.184  89.667  0.00  0.00    +0.000 A 
ATOM     17  C   UNL     1      88.016  63.585  88.408  0.00  0.00    +0.000 A 
ATOM     18  F   UNL     1      85.511  62.271  91.378  0.00  0.00    +0.000 F 
ENDBRANCH  11  17
ENDBRANCH   1  11
TORSDOF 3
ENDMDL
