MODEL 1
REMARK VINA RESULT:      -4.6      0.000      0.000
REMARK  Name = *****
REMARK  3 active torsions:
REMARK  status: ('A' for Active; 'I' for Inactive)
REMARK    1  A    between atoms: C_4  and  C_7
REMARK    2  A    between atoms: C_7  and  C_16
REMARK    3  A    between atoms: C_8  and  C_9
REMARK                            x       y       z     vdW  Elec       q    Type
REMARK                         _______ _______ _______ _____ _____    ______ ____
ROOT
ATOM      1  C   UNL     1     103.239 125.460  82.066  0.00  0.00    +0.000 C 
ATOM      2  C   UNL     1     102.480 126.487  81.637  0.00  0.00    +0.000 C 
ENDROOT
BRANCH   2   3
ATOM      3  C   UNL     1     101.488 127.196  82.460  0.00  0.00    +0.000 A 
ATOM      4  C   UNL     1     100.160 126.749  82.428  0.00  0.00    +0.000 A 
ATOM      5  C   UNL     1      99.176 127.393  83.182  0.00  0.00    +0.000 A 
ATOM      6  C   UNL     1      99.510 128.489  83.975  0.00  0.00    +0.000 A 
ATOM      7  C   UNL     1     100.828 128.943  84.016  0.00  0.00    +0.000 A 
ATOM      8  C   UNL     1     101.815 128.300  83.263  0.00  0.00    +0.000 A 
ATOM      9 BR   UNL     1     103.591 128.971  83.377  0.00  0.00    +0.000 Br
ENDBRANCH   2   3
BRANCH   1  13
ATOM     10  C   UNL     1     106.014 123.651  79.343  0.00  0.00    +0.000 A 
ATOM     11  C   UNL     1     105.693 125.001  79.219  0.00  0.00    +0.000 A 
ATOM     12  C   UNL     1     104.788 125.590  80.106  0.00  0.00    +0.000 A 
ATOM     13  C   UNL     1     104.191 124.831  81.125  0.00  0.00    +0.000 A 
ATOM     14  C   UNL     1     104.531 123.474  81.241  0.00  0.00    +0.000 A 
ATOM     15  C   UNL     1     105.436 122.888  80.353  0.00  0.00    +0.000 A 
ENDBRANCH   1  13
BRANCH   1  16
ATOM     16  C   UNL     1     103.170 124.973  83.411  0.00  0.00    +0.000 C 
ATOM     17  N   UNL     1     103.112 124.560  84.494  0.00  0.00    +0.000 NA
ENDBRANCH   1  16
TORSDOF 3
ENDMDL
