MODEL 1
REMARK VINA RESULT:      -4.5      0.000      0.000
REMARK  Name = *****
REMARK  3 active torsions:
REMARK  status: ('A' for Active; 'I' for Inactive)
REMARK    1  A    between atoms: C_4  and  N_7
REMARK    2  A    between atoms: N_7  and  C_8
REMARK    3  A    between atoms: C_8  and  C_9
REMARK                            x       y       z     vdW  Elec       q    Type
REMARK                         _______ _______ _______ _____ _____    ______ ____
ROOT
ATOM      1  C   UNL     1      87.261  64.297  87.208  0.00  0.00    +0.000 C 
ENDROOT
BRANCH   1   2
ATOM      2  C   UNL     1      88.424  65.069  86.756  0.00  0.00    +0.000 A 
ATOM      3  C   UNL     1      88.488  66.455  86.964  0.00  0.00    +0.000 A 
ATOM      4  C   UNL     1      89.606  67.159  86.490  0.00  0.00    +0.000 A 
ATOM      5  C   UNL     1      90.630  66.487  85.811  0.00  0.00    +0.000 A 
ATOM      6  C   UNL     1      90.537  65.114  85.600  0.00  0.00    +0.000 A 
ATOM      7  C   UNL     1      89.436  64.399  86.060  0.00  0.00    +0.000 A 
ATOM      8 CL   UNL     1      91.792  64.295  84.756  0.00  0.00    +0.000 Cl
ATOM      9 CL   UNL     1      89.791  68.864  86.710  0.00  0.00    +0.000 Cl
ATOM     10 CL   UNL     1      87.221  67.265  87.823  0.00  0.00    +0.000 Cl
ENDBRANCH   1   2
BRANCH   1  11
ATOM     11  N   UNL     1      87.271  63.397  88.163  0.00  0.00    +0.000 N 
ATOM     12  O   UNL     1      87.003  62.182  87.889  0.00  0.00    +0.000 OA
BRANCH  11  16
ATOM     13  C   UNL     1      88.191  64.464  92.146  0.00  0.00    +0.000 A 
ATOM     14  C   UNL     1      89.205  64.006  91.302  0.00  0.00    +0.000 A 
ATOM     15  C   UNL     1      88.914  63.660  89.983  0.00  0.00    +0.000 A 
ATOM     16  C   UNL     1      87.596  63.762  89.527  0.00  0.00    +0.000 A 
ATOM     17  C   UNL     1      86.580  64.246  90.356  0.00  0.00    +0.000 A 
ATOM     18  C   UNL     1      86.882  64.590  91.672  0.00  0.00    +0.000 A 
ENDBRANCH  11  16
ENDBRANCH   1  11
TORSDOF 3
ENDMDL
