MODEL 1
REMARK VINA RESULT:      -4.2      0.000      0.000
REMARK  Name = *****
REMARK  4 active torsions:
REMARK  status: ('A' for Active; 'I' for Inactive)
REMARK    1  A    between atoms: C_4  and  S_7
REMARK    2  A    between atoms: S_7  and  C_8
REMARK    3  A    between atoms: C_8  and  C_9
REMARK    4  A    between atoms: C_8  and  C_14
REMARK                            x       y       z     vdW  Elec       q    Type
REMARK                         _______ _______ _______ _____ _____    ______ ____
ROOT
ATOM      1  C   UNL     1     103.355 125.958  81.462  0.00  0.00    +0.000 C 
ENDROOT
BRANCH   1   2
ATOM      2  C   UNL     1     102.241 126.687  82.143  0.00  0.00    +0.000 A 
ATOM      3  C   UNL     1     102.158 127.852  82.882  0.00  0.00    +0.000 A 
ATOM      4  C   UNL     1     100.802 127.994  83.258  0.00  0.00    +0.000 A 
ATOM      5  C   UNL     1     100.142 126.912  82.726  0.00  0.00    +0.000 A 
ATOM      6  O   UNL     1     101.004 126.116  82.045  0.00  0.00    +0.000 OA
ENDBRANCH   1   2
BRANCH   1   7
ATOM      7  C   UNL     1     104.053 126.848  80.431  0.00  0.00    +0.000 C 
ATOM      8  F   UNL     1     104.878 127.743  81.031  0.00  0.00    +0.000 F 
ATOM      9  F   UNL     1     104.831 126.119  79.593  0.00  0.00    +0.000 F 
ATOM     10  F   UNL     1     103.186 127.551  79.665  0.00  0.00    +0.000 F 
ENDBRANCH   1   7
BRANCH   1  11
ATOM     11  S   UNL     1     104.559 125.310  82.715  0.00  0.00    +0.000 S 
BRANCH  11  15
ATOM     12  C   UNL     1     104.582 120.857  81.636  0.00  0.00    +0.000 A 
ATOM     13  C   UNL     1     104.695 121.812  80.627  0.00  0.00    +0.000 A 
ATOM     14  C   UNL     1     104.690 123.172  80.948  0.00  0.00    +0.000 A 
ATOM     15  C   UNL     1     104.562 123.580  82.279  0.00  0.00    +0.000 A 
ATOM     16  C   UNL     1     104.462 122.617  83.287  0.00  0.00    +0.000 A 
ATOM     17  C   UNL     1     104.468 121.258  82.966  0.00  0.00    +0.000 A 
ENDBRANCH  11  15
ENDBRANCH   1  11
TORSDOF 4
ENDMDL
