MODEL 1
REMARK VINA RESULT:      -4.8      0.000      0.000
REMARK  Name = *****
REMARK  3 active torsions:
REMARK  status: ('A' for Active; 'I' for Inactive)
REMARK    1  A    between atoms: C_1  and  C_2
REMARK    2  A    between atoms: C_4  and  N_8
REMARK    3  A    between atoms: C_9  and  C_10
REMARK                            x       y       z     vdW  Elec       q    Type
REMARK                         _______ _______ _______ _____ _____    ______ ____
ROOT
ATOM      1  N   UNL     1     102.003 125.702  82.625  0.00  0.00    +0.000 NA
ATOM      2  C   UNL     1     102.949 125.771  81.730  0.00  0.00    +0.000 C 
ATOM      3 CL   UNL     1     103.147 127.187  80.735  0.00  0.00    +0.000 Cl
ENDROOT
BRANCH   1   7
ATOM      4  C   UNL     1     101.071 130.177  84.512  0.00  0.00    +0.000 C 
ATOM      5  C   UNL     1     100.630 128.967  83.743  0.00  0.00    +0.000 A 
ATOM      6  C   UNL     1     101.519 127.906  83.522  0.00  0.00    +0.000 A 
ATOM      7  C   UNL     1     101.113 126.764  82.823  0.00  0.00    +0.000 A 
ATOM      8  C   UNL     1      99.792 126.665  82.385  0.00  0.00    +0.000 A 
ATOM      9  C   UNL     1      98.892 127.707  82.614  0.00  0.00    +0.000 A 
ATOM     10  C   UNL     1      99.309 128.853  83.292  0.00  0.00    +0.000 A 
ENDBRANCH   1   7
BRANCH   2  11
ATOM     11  C   UNL     1     103.867 124.592  81.574  0.00  0.00    +0.000 A 
ATOM     12  C   UNL     1     104.480 124.297  80.348  0.00  0.00    +0.000 A 
ATOM     13  C   UNL     1     105.331 123.193  80.233  0.00  0.00    +0.000 A 
ATOM     14  C   UNL     1     105.574 122.377  81.336  0.00  0.00    +0.000 A 
ATOM     15  C   UNL     1     104.970 122.661  82.558  0.00  0.00    +0.000 A 
ATOM     16  C   UNL     1     104.120 123.763  82.678  0.00  0.00    +0.000 A 
ENDBRANCH   2  11
TORSDOF 2
ENDMDL
