MODEL 1
REMARK VINA RESULT:      -5.0      0.000      0.000
REMARK  Name = *****
REMARK  4 active torsions:
REMARK  status: ('A' for Active; 'I' for Inactive)
REMARK    1  A    between atoms: C_1  and  O_2
REMARK    2  A    between atoms: O_2  and  C_3
REMARK    3  A    between atoms: C_7  and  C_9
REMARK    4  A    between atoms: C_10  and  C_11
REMARK                            x       y       z     vdW  Elec       q    Type
REMARK                         _______ _______ _______ _____ _____    ______ ____
ROOT
ATOM      1  C   UNL     1     102.181 125.986  82.444  0.00  0.00    +0.000 C 
ATOM      2  C   UNL     1     102.854 125.980  81.282  0.00  0.00    +0.000 C 
ENDROOT
BRANCH   2   3
ATOM      3  C   UNL     1     103.877 124.986  80.934  0.00  0.00    +0.000 A 
ATOM      4  C   UNL     1     104.686 125.114  79.794  0.00  0.00    +0.000 A 
ATOM      5  C   UNL     1     105.671 124.163  79.513  0.00  0.00    +0.000 A 
ATOM      6  C   UNL     1     105.855 123.091  80.376  0.00  0.00    +0.000 A 
ATOM      7  C   UNL     1     105.077 122.952  81.519  0.00  0.00    +0.000 A 
ATOM      8  C   UNL     1     104.092 123.903  81.800  0.00  0.00    +0.000 A 
ATOM      9  F   UNL     1     106.800 122.181  80.107  0.00  0.00    +0.000 F 
ENDBRANCH   2   3
BRANCH   1  14
ATOM     10  C   UNL     1      98.818 127.646  82.835  0.00  0.00    +0.000 A 
ATOM     11  C   UNL     1      99.170 128.878  83.385  0.00  0.00    +0.000 A 
ATOM     12  C   UNL     1     100.513 129.173  83.633  0.00  0.00    +0.000 A 
ATOM     13  C   UNL     1     101.506 128.237  83.337  0.00  0.00    +0.000 A 
ATOM     14  C   UNL     1     101.168 126.989  82.803  0.00  0.00    +0.000 A 
ATOM     15  C   UNL     1      99.818 126.713  82.544  0.00  0.00    +0.000 A 
BRANCH  10  17
ATOM     16  C   UNL     1      96.763 126.733  83.611  0.00  0.00    +0.000 C 
ATOM     17  O   UNL     1      97.548 127.233  82.535  0.00  0.00    +0.000 OA
ENDBRANCH  10  17
ENDBRANCH   1  14
TORSDOF 3
ENDMDL
