MODEL 1
REMARK VINA RESULT:      -3.2      0.000      0.000
REMARK  Name = *****
REMARK  4 active torsions:
REMARK  status: ('A' for Active; 'I' for Inactive)
REMARK    1  A    between atoms: C_3  and  C_7
REMARK    2  A    between atoms: C_7  and  S_8
REMARK    3  A    between atoms: S_8  and  C_9
REMARK    4  A    between atoms: C_9  and  C_10
REMARK                            x       y       z     vdW  Elec       q    Type
REMARK                         _______ _______ _______ _____ _____    ______ ____
ROOT
ATOM      1  S   UNL     1      95.084 115.808  82.500  0.00  0.00    +0.000 S 
ENDROOT
BRANCH   1   2
ATOM      2  C   UNL     1      95.164 116.202  80.719  0.00  0.00    +0.000 C 
BRANCH   2   5
ATOM      3  C   UNL     1      97.738 116.637  78.588  0.00  0.00    +0.000 C 
ATOM      4  C   UNL     1      97.407 115.521  79.573  0.00  0.00    +0.000 C 
ATOM      5  C   UNL     1      95.920 115.228  79.790  0.00  0.00    +0.000 C 
ATOM      6  S   UNL     1      95.043 114.883  78.225  0.00  0.00    +0.000 S 
ATOM      7  C   UNL     1      95.776 115.980  77.120  0.00  0.00    +0.000 C 
ATOM      8  C   UNL     1      96.899 116.668  77.350  0.00  0.00    +0.000 C 
ENDBRANCH   2   5
ENDBRANCH   1   2
BRANCH   1   9
ATOM      9  C   UNL     1      96.538 116.767  83.060  0.00  0.00    +0.000 C 
BRANCH   9  10
ATOM     10  C   UNL     1      96.713 118.074  82.269  0.00  0.00    +0.000 C 
ATOM     11  C   UNL     1      98.182 118.411  81.984  0.00  0.00    +0.000 C 
ATOM     12  C   UNL     1      98.329 119.646  81.097  0.00  0.00    +0.000 C 
ATOM     13  C   UNL     1      97.480 120.817  81.485  0.00  0.00    +0.000 C 
ATOM     14  C   UNL     1      96.481 120.817  82.376  0.00  0.00    +0.000 C 
ATOM     15  S   UNL     1      95.973 119.429  83.263  0.00  0.00    +0.000 S 
ENDBRANCH   9  10
ENDBRANCH   1   9
TORSDOF 4
ENDMDL
