MODEL 1
REMARK VINA RESULT:      -4.5      0.000      0.000
REMARK  Name = *****
REMARK  6 active torsions:
REMARK  status: ('A' for Active; 'I' for Inactive)
REMARK    1  A    between atoms: C_1  and  C_2
REMARK    2  A    between atoms: C_5  and  C_8
REMARK    3  A    between atoms: C_9  and  C_10
REMARK    4  A    between atoms: C_11  and  C_15
REMARK    5  A    between atoms: C_15  and  O_17
REMARK    6  A    between atoms: O_17  and  C_18
REMARK                            x       y       z     vdW  Elec       q    Type
REMARK                         _______ _______ _______ _____ _____    ______ ____
ROOT
ATOM      1  C   UNL     1     102.408 127.120  82.119  0.00  0.00    +0.000 C 
ATOM      2  C   UNL     1     101.898 127.333  83.345  0.00  0.00    +0.000 C 
ENDROOT
BRANCH   1   7
ATOM      3  C   UNL     1     105.398 122.452  80.431  0.00  0.00    +0.000 C 
ATOM      4  C   UNL     1     104.630 123.656  80.892  0.00  0.00    +0.000 A 
ATOM      5  C   UNL     1     104.173 123.758  82.209  0.00  0.00    +0.000 A 
ATOM      6  C   UNL     1     103.454 124.884  82.625  0.00  0.00    +0.000 A 
ATOM      7  C   UNL     1     103.189 125.933  81.736  0.00  0.00    +0.000 A 
ATOM      8  C   UNL     1     103.634 125.818  80.413  0.00  0.00    +0.000 A 
ATOM      9  C   UNL     1     104.353 124.693  79.996  0.00  0.00    +0.000 A 
ENDBRANCH   1   7
BRANCH   2  10
ATOM     10  C   UNL     1     101.137 128.489  83.737  0.00  0.00    +0.000 A 
ATOM     11  C   UNL     1      99.748 128.568  83.668  0.00  0.00    +0.000 A 
ATOM     12  S   UNL     1      99.197 130.099  84.245  0.00  0.00    +0.000 S 
ATOM     13  C   UNL     1     100.775 130.638  84.580  0.00  0.00    +0.000 A 
ATOM     14  C   UNL     1     101.718 129.689  84.267  0.00  0.00    +0.000 A 
BRANCH  11  15
ATOM     15  C   UNL     1      98.794 127.575  83.177  0.00  0.00    +0.000 C 
ATOM     16  O   UNL     1      98.400 127.474  82.019  0.00  0.00    +0.000 OA
BRANCH  15  17
ATOM     17  O   UNL     1      98.375 126.741  84.178  0.00  0.00    +0.000 OA
ATOM     18  C   UNL     1      97.138 126.078  83.917  0.00  0.00    +0.000 C 
ENDBRANCH  15  17
ENDBRANCH  11  15
ENDBRANCH   2  10
TORSDOF 4
ENDMDL
