MODEL 1
REMARK VINA RESULT:      -3.9      0.000      0.000
REMARK  Name = *****
REMARK  5 active torsions:
REMARK  status: ('A' for Active; 'I' for Inactive)
REMARK    1  A    between atoms: C_1  and  C_2
REMARK    2  A    between atoms: C_5  and  S_8
REMARK    3  A    between atoms: S_8  and  C_10
REMARK    4  A    between atoms: C_10  and  C_11
REMARK    5  A    between atoms: C_11  and  C_12
REMARK                            x       y       z     vdW  Elec       q    Type
REMARK                         _______ _______ _______ _____ _____    ______ ____
ROOT
ATOM      1  S   UNL     1      86.453  63.528  86.083  0.00  0.00    +0.000 S 
ATOM      2  O   UNL     1      87.884  63.075  86.108  0.00  0.00    +0.000 OA
ENDROOT
BRANCH   1   7
ATOM      3  C   UNL     1      83.852  61.054  91.039  0.00  0.00    +0.000 C 
ATOM      4  C   UNL     1      84.479  61.637  89.808  0.00  0.00    +0.000 A 
ATOM      5  C   UNL     1      85.801  61.330  89.467  0.00  0.00    +0.000 A 
ATOM      6  C   UNL     1      86.393  61.902  88.337  0.00  0.00    +0.000 A 
ATOM      7  C   UNL     1      85.670  62.792  87.537  0.00  0.00    +0.000 A 
ATOM      8  C   UNL     1      84.357  63.118  87.887  0.00  0.00    +0.000 A 
ATOM      9  C   UNL     1      83.766  62.546  89.017  0.00  0.00    +0.000 A 
ENDBRANCH   1   7
BRANCH   1  10
ATOM     10  C   UNL     1      86.422  65.258  86.660  0.00  0.00    +0.000 C 
BRANCH  10  11
ATOM     11  C   UNL     1      87.702  65.577  87.425  0.00  0.00    +0.000 C 
BRANCH  11  12
ATOM     12  C   UNL     1      87.599  65.149  88.869  0.00  0.00    +0.000 A 
ATOM     13  C   UNL     1      88.576  64.316  89.431  0.00  0.00    +0.000 A 
ATOM     14  C   UNL     1      88.470  63.900  90.759  0.00  0.00    +0.000 A 
ATOM     15  C   UNL     1      87.387  64.310  91.535  0.00  0.00    +0.000 A 
ATOM     16  C   UNL     1      86.408  65.134  90.983  0.00  0.00    +0.000 A 
ATOM     17  C   UNL     1      86.511  65.550  89.655  0.00  0.00    +0.000 A 
ENDBRANCH  11  12
ENDBRANCH  10  11
ENDBRANCH   1  10
TORSDOF 4
ENDMDL
