MODEL 1
REMARK VINA RESULT:      -4.4      0.000      0.000
REMARK  Name = *****
REMARK  3 active torsions:
REMARK  status: ('A' for Active; 'I' for Inactive)
REMARK    1  A    between atoms: C_4  and  S_7
REMARK    2  A    between atoms: S_7  and  S_10
REMARK    3  A    between atoms: S_10  and  C_11
REMARK                            x       y       z     vdW  Elec       q    Type
REMARK                         _______ _______ _______ _____ _____    ______ ____
ROOT
ATOM      1  S   UNL     1      87.898  70.894  85.177  0.00  0.00    +0.000 S 
ATOM      2  O   UNL     1      87.551  69.665  84.490  0.00  0.00    +0.000 OA
ATOM      3  O   UNL     1      88.452  72.028  84.464  0.00  0.00    +0.000 OA
ENDROOT
BRANCH   1   7
ATOM      4  C   UNL     1      84.207  72.382  87.400  0.00  0.00    +0.000 A 
ATOM      5  C   UNL     1      84.259  72.474  86.008  0.00  0.00    +0.000 A 
ATOM      6  C   UNL     1      85.384  72.020  85.319  0.00  0.00    +0.000 A 
ATOM      7  C   UNL     1      86.451  71.469  86.035  0.00  0.00    +0.000 A 
ATOM      8  C   UNL     1      86.410  71.390  87.431  0.00  0.00    +0.000 A 
ATOM      9  C   UNL     1      85.280  71.843  88.111  0.00  0.00    +0.000 A 
ENDBRANCH   1   7
BRANCH   1  10
ATOM     10  S   UNL     1      89.203  70.398  86.741  0.00  0.00    +0.000 S 
BRANCH  10  11
ATOM     11  C   UNL     1      89.030  68.628  86.810  0.00  0.00    +0.000 A 
ATOM     12  C   UNL     1      90.023  67.813  86.252  0.00  0.00    +0.000 A 
ATOM     13  C   UNL     1      89.920  66.421  86.328  0.00  0.00    +0.000 A 
ATOM     14  C   UNL     1      88.825  65.842  86.966  0.00  0.00    +0.000 A 
ATOM     15  C   UNL     1      87.833  66.643  87.528  0.00  0.00    +0.000 A 
ATOM     16  C   UNL     1      87.938  68.035  87.453  0.00  0.00    +0.000 A 
ATOM     17 CL   UNL     1      88.700  64.129  87.067  0.00  0.00    +0.000 Cl
ENDBRANCH  10  11
ENDBRANCH   1  10
TORSDOF 3
ENDMDL
