MODEL 1
REMARK VINA RESULT:      -4.1      0.000      0.000
REMARK  Name = *****
REMARK  4 active torsions:
REMARK  status: ('A' for Active; 'I' for Inactive)
REMARK    1  A    between atoms: C_4  and  N_7
REMARK    2  A    between atoms: N_7  and  S_8
REMARK    3  A    between atoms: S_8  and  N_9
REMARK    4  A    between atoms: N_9  and  C_10
REMARK                            x       y       z     vdW  Elec       q    Type
REMARK                         _______ _______ _______ _____ _____    ______ ____
ROOT
ATOM      1  S   UNL     1     102.916 125.651  83.349  0.00  0.00    +0.000 S 
ENDROOT
BRANCH   1   2
ATOM      2  N   UNL     1     101.828 125.866  82.316  0.00  0.00    +0.000 NA
BRANCH   2   6
ATOM      3  C   UNL     1      99.141 128.927  83.383  0.00  0.00    +0.000 A 
ATOM      4  C   UNL     1      98.655 127.802  82.724  0.00  0.00    +0.000 A 
ATOM      5  C   UNL     1      99.531 126.776  82.347  0.00  0.00    +0.000 A 
ATOM      6  C   UNL     1     100.917 126.840  82.598  0.00  0.00    +0.000 A 
ATOM      7  C   UNL     1     101.366 127.985  83.281  0.00  0.00    +0.000 A 
ATOM      8  C   UNL     1     100.500 129.017  83.665  0.00  0.00    +0.000 A 
ENDBRANCH   2   6
ENDBRANCH   1   2
BRANCH   1   9
ATOM      9  N   UNL     1     104.169 125.307  82.575  0.00  0.00    +0.000 NA
BRANCH   9  10
ATOM     10  C   UNL     1     104.339 124.012  82.186  0.00  0.00    +0.000 A 
ATOM     11  C   UNL     1     104.572 123.544  80.876  0.00  0.00    +0.000 A 
ATOM     12  C   UNL     1     104.773 122.188  80.590  0.00  0.00    +0.000 A 
ATOM     13  C   UNL     1     104.760 121.248  81.616  0.00  0.00    +0.000 A 
ATOM     14  C   UNL     1     104.550 121.671  82.923  0.00  0.00    +0.000 A 
ATOM     15  C   UNL     1     104.350 123.030  83.196  0.00  0.00    +0.000 A 
ENDBRANCH   9  10
ENDBRANCH   1   9
TORSDOF 4
ENDMDL
