MODEL 1
REMARK VINA RESULT:      -4.6      0.000      0.000
REMARK  Name = *****
REMARK  4 active torsions:
REMARK  status: ('A' for Active; 'I' for Inactive)
REMARK    1  A    between atoms: C_4  and  O_7
REMARK    2  A    between atoms: O_7  and  C_8
REMARK    3  A    between atoms: C_8  and  C_9
REMARK    4  A    between atoms: C_11  and  C_15
REMARK                            x       y       z     vdW  Elec       q    Type
REMARK                         _______ _______ _______ _____ _____    ______ ____
ROOT
ATOM      1  C   UNL     1     101.269 127.436  82.972  0.00  0.00    +0.000 A 
ATOM      2  C   UNL     1     100.947 128.678  83.544  0.00  0.00    +0.000 A 
ATOM      3  C   UNL     1      99.619 129.134  83.565  0.00  0.00    +0.000 A 
ATOM      4  C   UNL     1      98.612 128.332  83.010  0.00  0.00    +0.000 A 
ATOM      5  C   UNL     1      98.924 127.097  82.440  0.00  0.00    +0.000 A 
ATOM      6  C   UNL     1     100.245 126.652  82.423  0.00  0.00    +0.000 A 
ENDROOT
BRANCH   3   7
ATOM      7  C   UNL     1      99.240 130.455  84.168  0.00  0.00    +0.000 C 
ATOM      8  O   UNL     1      99.578 131.472  83.562  0.00  0.00    +0.000 OA
ATOM      9 CL   UNL     1      98.343 130.505  85.673  0.00  0.00    +0.000 Cl
ENDBRANCH   3   7
BRANCH   1  10
ATOM     10  C   UNL     1     102.696 126.934  82.960  0.00  0.00    +0.000 C 
BRANCH  10  11
ATOM     11  O   UNL     1     102.681 125.526  83.181  0.00  0.00    +0.000 OA
BRANCH  11  15
ATOM     12  C   UNL     1     105.106 123.385  80.559  0.00  0.00    +0.000 A 
ATOM     13  C   UNL     1     105.006 122.941  81.876  0.00  0.00    +0.000 A 
ATOM     14  C   UNL     1     104.204 123.628  82.793  0.00  0.00    +0.000 A 
ATOM     15  C   UNL     1     103.497 124.764  82.392  0.00  0.00    +0.000 A 
ATOM     16  C   UNL     1     103.605 125.202  81.070  0.00  0.00    +0.000 A 
ATOM     17  C   UNL     1     104.405 124.517  80.154  0.00  0.00    +0.000 A 
ENDBRANCH  11  15
ENDBRANCH  10  11
ENDBRANCH   1  10
TORSDOF 4
ENDMDL
