REMARK  Name = *****
REMARK  2 active torsions:
REMARK  status: ('A' for Active; 'I' for Inactive)
REMARK    1  A    between atoms: C_4  and  C_7
REMARK    2  A    between atoms: C_16  and  C_17
REMARK                            x       y       z     vdW  Elec       q    Type
REMARK                         _______ _______ _______ _____ _____    ______ ____
ROOT
ATOM      1  C   UNL     1      -2.853   0.417  -0.225  0.00  0.00    +0.000 A 
ATOM      2  C   UNL     1      -3.393   1.084  -1.264  0.00  0.00    +0.000 A 
ATOM      3  C   UNL     1      -4.832   1.071  -1.071  0.00  0.00    +0.000 A 
ATOM      4  C   UNL     1      -5.683   1.644  -1.930  0.00  0.00    +0.000 A 
ATOM      5  C   UNL     1      -7.123   1.696  -1.859  0.00  0.00    +0.000 A 
ATOM      6  C   UNL     1      -7.943   1.198  -0.926  0.00  0.00    +0.000 A 
ATOM      7  C   UNL     1      -7.627   0.468   0.276  0.00  0.00    +0.000 A 
ATOM      8  C   UNL     1      -6.432   0.097   0.755  0.00  0.00    +0.000 A 
ATOM      9  C   UNL     1      -5.138   0.349   0.167  0.00  0.00    +0.000 A 
ATOM     10  C   UNL     1      -3.935  -0.036   0.662  0.00  0.00    +0.000 A 
ENDROOT
BRANCH   1  14
ATOM     11  C   UNL     1       1.337  -0.187   0.218  0.00  0.00    +0.000 A 
ATOM     12  C   UNL     1       0.742   0.967   0.727  0.00  0.00    +0.000 A 
ATOM     13  C   UNL     1      -0.631   1.170   0.577  0.00  0.00    +0.000 A 
ATOM     14  C   UNL     1      -1.414   0.217  -0.084  0.00  0.00    +0.000 A 
ATOM     15  C   UNL     1      -0.812  -0.939  -0.592  0.00  0.00    +0.000 A 
ATOM     16  C   UNL     1       0.562  -1.139  -0.441  0.00  0.00    +0.000 A 
ENDBRANCH   1  14
BRANCH  10  17
ATOM     17  C   UNL     1      -3.646  -0.798   1.903  0.00  0.00    +0.000 C 
ATOM     18  O   UNL     1      -4.493  -1.222   2.680  0.00  0.00    +0.000 OA
ENDBRANCH  10  17
TORSDOF 2
