MODEL 1
REMARK VINA RESULT:      -5.1      0.000      0.000
REMARK  Name = *****
REMARK  5 active torsions:
REMARK  status: ('A' for Active; 'I' for Inactive)
REMARK    1  A    between atoms: C_1  and  C_2
REMARK    2  A    between atoms: C_4  and  C_19
REMARK    3  A    between atoms: C_5  and  N_8
REMARK    4  A    between atoms: C_9  and  C_11
REMARK    5  A    between atoms: C_13  and  C_18
REMARK                            x       y       z     vdW  Elec       q    Type
REMARK                         _______ _______ _______ _____ _____    ______ ____
ROOT
ATOM      1  N   UNL     1     102.196 126.731  82.902  0.00  0.00    +0.000 N 
ATOM      2  C   UNL     1     102.947 126.585  81.750  0.00  0.00    +0.000 C 
ATOM      3  O   UNL     1     103.069 127.388  80.834  0.00  0.00    +0.000 OA
ATOM      4  H   UNL     1     102.154 125.947  83.496  0.00  0.00    +0.000 HD
ENDROOT
BRANCH   1   9
ATOM      5  C   UNL     1      99.193 131.305  84.655  0.00  0.00    +0.000 C 
ATOM      6  C   UNL     1      99.988 130.128  84.174  0.00  0.00    +0.000 A 
ATOM      7  C   UNL     1      99.357 129.055  83.536  0.00  0.00    +0.000 A 
ATOM      8  C   UNL     1     100.084 127.928  83.108  0.00  0.00    +0.000 A 
ATOM      9  C   UNL     1     101.478 127.875  83.330  0.00  0.00    +0.000 A 
ATOM     10  C   UNL     1     102.097 128.944  83.986  0.00  0.00    +0.000 A 
ATOM     11  C   UNL     1     101.360 130.056  84.407  0.00  0.00    +0.000 A 
ATOM     12  C   UNL     1      99.333 126.819  82.420  0.00  0.00    +0.000 C 
ENDBRANCH   1   9
BRANCH   2  13
ATOM     13  C   UNL     1     103.635 125.268  81.622  0.00  0.00    +0.000 A 
ATOM     14  C   UNL     1     103.754 124.460  82.761  0.00  0.00    +0.000 A 
ATOM     15  C   UNL     1     104.393 123.210  82.696  0.00  0.00    +0.000 A 
ATOM     16  C   UNL     1     104.899 122.778  81.460  0.00  0.00    +0.000 A 
ATOM     17  C   UNL     1     104.763 123.574  80.317  0.00  0.00    +0.000 A 
ATOM     18  C   UNL     1     104.129 124.816  80.393  0.00  0.00    +0.000 A 
ATOM     19 CL   UNL     1     105.694 121.254  81.291  0.00  0.00    +0.000 Cl
ATOM     20  C   UNL     1     104.507 122.374  83.939  0.00  0.00    +0.000 C 
ENDBRANCH   2  13
TORSDOF 2
ENDMDL
