MODEL 1
REMARK VINA RESULT:      -4.5      0.000      0.000
REMARK  Name = *****
REMARK  3 active torsions:
REMARK  status: ('A' for Active; 'I' for Inactive)
REMARK    1  A    between atoms: C_4  and  C_7
REMARK    2  A    between atoms: C_7  and  C_8
REMARK    3  A    between atoms: C_8  and  C_10
REMARK                            x       y       z     vdW  Elec       q    Type
REMARK                         _______ _______ _______ _____ _____    ______ ____
ROOT
ATOM      1  C   UNL     1     103.289 126.807  81.424  0.00  0.00    +0.000 C 
ATOM      2  O   UNL     1     103.337 127.350  80.322  0.00  0.00    +0.000 OA
ENDROOT
BRANCH   1   3
ATOM      3  C   UNL     1     103.792 125.404  81.559  0.00  0.00    +0.000 A 
ATOM      4  C   UNL     1     103.812 124.728  82.786  0.00  0.00    +0.000 A 
ATOM      5  C   UNL     1     104.283 123.412  82.857  0.00  0.00    +0.000 A 
ATOM      6  C   UNL     1     104.736 122.770  81.705  0.00  0.00    +0.000 A 
ATOM      7  C   UNL     1     104.721 123.431  80.479  0.00  0.00    +0.000 A 
ATOM      8  C   UNL     1     104.249 124.745  80.407  0.00  0.00    +0.000 A 
ATOM      9 CL   UNL     1     105.312 121.153  81.798  0.00  0.00    +0.000 Cl
ENDBRANCH   1   3
BRANCH   1  10
ATOM     10  C   UNL     1     102.718 127.497  82.655  0.00  0.00    +0.000 C 
BRANCH  10  14
ATOM     11  C   UNL     1      98.435 127.832  83.535  0.00  0.00    +0.000 C 
ATOM     12  C   UNL     1      99.276 129.103  83.567  0.00  0.00    +0.000 C 
ATOM     13  C   UNL     1     100.768 128.790  83.662  0.00  0.00    +0.000 C 
ATOM     14  C   UNL     1     101.227 127.860  82.524  0.00  0.00    +0.000 C 
ATOM     15  C   UNL     1     100.374 126.580  82.512  0.00  0.00    +0.000 C 
ATOM     16  C   UNL     1      98.883 126.892  82.421  0.00  0.00    +0.000 C 
ENDBRANCH  10  14
ENDBRANCH   1  10
TORSDOF 3
ENDMDL
