MODEL 1
REMARK VINA RESULT:      -4.4      0.000      0.000
REMARK  Name = *****
REMARK  3 active torsions:
REMARK  status: ('A' for Active; 'I' for Inactive)
REMARK    1  A    between atoms: C_4  and  C_7
REMARK    2  A    between atoms: C_7  and  O_9
REMARK    3  A    between atoms: O_9  and  C_10
REMARK                            x       y       z     vdW  Elec       q    Type
REMARK                         _______ _______ _______ _____ _____    ______ ____
ROOT
ATOM      1  O   UNL     1     102.310 125.818  81.275  0.00  0.00    +0.000 OA
ENDROOT
BRANCH   1   2
ATOM      2  C   UNL     1     103.543 126.330  80.857  0.00  0.00    +0.000 A 
ATOM      3  C   UNL     1     104.611 125.460  80.618  0.00  0.00    +0.000 A 
ATOM      4  C   UNL     1     105.857 125.977  80.260  0.00  0.00    +0.000 A 
ATOM      5  C   UNL     1     106.022 127.359  80.154  0.00  0.00    +0.000 A 
ATOM      6  C   UNL     1     104.960 128.228  80.407  0.00  0.00    +0.000 A 
ATOM      7  C   UNL     1     103.714 127.714  80.771  0.00  0.00    +0.000 A 
ATOM      8 CL   UNL     1     107.558 128.001  79.717  0.00  0.00    +0.000 Cl
ATOM      9 CL   UNL     1     104.425 123.753  80.768  0.00  0.00    +0.000 Cl
ENDBRANCH   1   2
BRANCH   1  10
ATOM     10  C   UNL     1     102.069 125.978  82.627  0.00  0.00    +0.000 C 
ATOM     11  O   UNL     1     102.597 125.375  83.548  0.00  0.00    +0.000 OA
BRANCH  10  15
ATOM     12  C   UNL     1      98.965 128.860  83.247  0.00  0.00    +0.000 A 
ATOM     13  C   UNL     1      98.665 127.665  82.594  0.00  0.00    +0.000 A 
ATOM     14  C   UNL     1      99.665 126.714  82.375  0.00  0.00    +0.000 A 
ATOM     15  C   UNL     1     100.972 126.961  82.813  0.00  0.00    +0.000 A 
ATOM     16  C   UNL     1     101.272 128.170  83.454  0.00  0.00    +0.000 A 
ATOM     17  C   UNL     1     100.268 129.115  83.675  0.00  0.00    +0.000 A 
ENDBRANCH  10  15
ENDBRANCH   1  10
TORSDOF 3
ENDMDL
