REMARK  Name = *****
REMARK  5 active torsions:
REMARK  status: ('A' for Active; 'I' for Inactive)
REMARK    1  A    between atoms: C_1  and  C_2
REMARK    2  A    between atoms: C_7  and  C_8
REMARK    3  A    between atoms: C_9  and  C_10
REMARK    4  A    between atoms: C_13  and  C_16
REMARK    5  A    between atoms: C_16  and  C_18
REMARK                            x       y       z     vdW  Elec       q    Type
REMARK                         _______ _______ _______ _____ _____    ______ ____
ROOT
ATOM      1  C   UNL     1       2.402  -2.607  -0.277  0.00  0.00    +0.000 C 
ATOM      2  C   UNL     1       1.838  -3.664  -0.362  0.00  0.00    +0.000 C 
ENDROOT
BRANCH   1   9
ATOM      3  C   UNL     1       0.870  -0.107  -0.007  0.00  0.00    +0.000 C 
ATOM      4  C   UNL     1       2.371  -0.137  -0.078  0.00  0.00    +0.000 A 
ATOM      5  C   UNL     1       3.091   1.068  -0.023  0.00  0.00    +0.000 A 
ATOM      6  C   UNL     1       4.485   1.070  -0.087  0.00  0.00    +0.000 A 
ATOM      7  C   UNL     1       5.180  -0.131  -0.204  0.00  0.00    +0.000 A 
ATOM      8  C   UNL     1       4.479  -1.336  -0.261  0.00  0.00    +0.000 A 
ATOM      9  C   UNL     1       3.080  -1.346  -0.200  0.00  0.00    +0.000 A 
ENDBRANCH   1   9
BRANCH   2  10
ATOM     10  C   UNL     1       1.169  -4.921  -0.486  0.00  0.00    +0.000 A 
ATOM     11  C   UNL     1       1.817  -6.100  -0.117  0.00  0.00    +0.000 A 
ATOM     12  C   UNL     1       1.165  -7.329  -0.256  0.00  0.00    +0.000 A 
ATOM     13  C   UNL     1      -0.139  -7.389  -0.766  0.00  0.00    +0.000 A 
ATOM     14  C   UNL     1      -0.786  -6.202  -1.134  0.00  0.00    +0.000 A 
ATOM     15  C   UNL     1      -0.132  -4.973  -0.992  0.00  0.00    +0.000 A 
BRANCH  13  16
ATOM     16  C   UNL     1      -0.789  -8.727  -0.903  0.00  0.00    +0.000 C 
ATOM     17  O   UNL     1      -0.167  -9.744  -0.598  0.00  0.00    +0.000 OA
ATOM     18  C   UNL     1      -2.198  -8.806  -1.428  0.00  0.00    +0.000 C 
ENDBRANCH  13  16
ENDBRANCH   2  10
TORSDOF 3
