REMARK  Name = *****
REMARK  3 active torsions:
REMARK  status: ('A' for Active; 'I' for Inactive)
REMARK    1  A    between atoms: C_7  and  S_8
REMARK    2  A    between atoms: S_8  and  C_10
REMARK    3  A    between atoms: C_10  and  C_11
REMARK                            x       y       z     vdW  Elec       q    Type
REMARK                         _______ _______ _______ _____ _____    ______ ____
ROOT
ATOM      1  S   UNL     1      -2.468  -1.642  -1.397  0.00  0.00    +0.000 S 
ATOM      2  O   UNL     1      -2.080  -3.054  -1.062  0.00  0.00    +0.000 OA
ENDROOT
BRANCH   1   9
ATOM      3  C   UNL     1       1.280   0.579  -0.550  0.00  0.00    +0.000 C 
ATOM      4  C   UNL     1       1.132  -0.953  -0.339  0.00  0.00    +0.000 C 
ATOM      5  C   UNL     1      -0.221  -1.069   0.395  0.00  0.00    +0.000 C 
ATOM      6  C   UNL     1      -0.181   0.181   1.279  0.00  0.00    +0.000 C 
ATOM      7  C   UNL     1      -0.007   1.137   0.094  0.00  0.00    +0.000 C 
ATOM      8  C   UNL     1      -1.178   0.690  -0.753  0.00  0.00    +0.000 C 
ATOM      9  C   UNL     1      -1.304  -0.633  -0.562  0.00  0.00    +0.000 C 
ENDBRANCH   1   9
BRANCH   1  10
ATOM     10  C   UNL     1      -3.924  -1.210  -0.382  0.00  0.00    +0.000 C 
BRANCH  10  11
ATOM     11  C   UNL     1      -5.195  -1.799  -0.937  0.00  0.00    +0.000 A 
ATOM     12  C   UNL     1      -5.484  -3.161  -0.761  0.00  0.00    +0.000 A 
ATOM     13  C   UNL     1      -6.657  -3.710  -1.279  0.00  0.00    +0.000 A 
ATOM     14  C   UNL     1      -7.554  -2.906  -1.980  0.00  0.00    +0.000 A 
ATOM     15  C   UNL     1      -7.276  -1.553  -2.166  0.00  0.00    +0.000 A 
ATOM     16  C   UNL     1      -6.102  -1.001  -1.650  0.00  0.00    +0.000 A 
ENDBRANCH  10  11
ENDBRANCH   1  10
TORSDOF 3
