MODEL 1
REMARK VINA RESULT:      -4.8      0.000      0.000
REMARK  Name = *****
REMARK  2 active torsions:
REMARK  status: ('A' for Active; 'I' for Inactive)
REMARK    1  A    between atoms: C_2  and  C_10
REMARK    2  A    between atoms: C_10  and  C_11
REMARK                            x       y       z     vdW  Elec       q    Type
REMARK                         _______ _______ _______ _____ _____    ______ ____
ROOT
ATOM      1  C   UNL     1     103.482 124.798  83.123  0.00  0.00    +0.000 C 
ATOM      2  C   UNL     1     102.771 125.577  81.998  0.00  0.00    +0.000 C 
ATOM      3  S   UNL     1     103.767 125.270  80.485  0.00  0.00    +0.000 S 
ATOM      4  C   UNL     1     104.384 123.742  81.123  0.00  0.00    +0.000 A 
ATOM      5  C   UNL     1     105.042 122.754  80.409  0.00  0.00    +0.000 A 
ATOM      6  C   UNL     1     105.462 121.605  81.083  0.00  0.00    +0.000 A 
ATOM      7  C   UNL     1     105.228 121.465  82.458  0.00  0.00    +0.000 A 
ATOM      8  C   UNL     1     104.571 122.471  83.170  0.00  0.00    +0.000 A 
ATOM      9  C   UNL     1     104.141 123.606  82.492  0.00  0.00    +0.000 A 
ENDROOT
BRANCH   2  10
ATOM     10  C   UNL     1     102.633 127.064  82.342  0.00  0.00    +0.000 C 
BRANCH  10  11
ATOM     11  C   UNL     1     101.233 127.474  82.732  0.00  0.00    +0.000 A 
ATOM     12  C   UNL     1     100.131 126.698  82.344  0.00  0.00    +0.000 A 
ATOM     13  C   UNL     1      98.836 127.080  82.699  0.00  0.00    +0.000 A 
ATOM     14  C   UNL     1      98.628 128.241  83.441  0.00  0.00    +0.000 A 
ATOM     15  C   UNL     1      99.717 129.021  83.829  0.00  0.00    +0.000 A 
ATOM     16  C   UNL     1     101.012 128.639  83.477  0.00  0.00    +0.000 A 
ENDBRANCH  10  11
ENDBRANCH   2  10
TORSDOF 2
ENDMDL
