MODEL 1
REMARK VINA RESULT:      -4.2      0.000      0.000
REMARK  Name = *****
REMARK  3 active torsions:
REMARK  status: ('A' for Active; 'I' for Inactive)
REMARK    1  A    between atoms: C_1  and  C_2
REMARK    2  A    between atoms: C_4  and  C_8
REMARK    3  A    between atoms: C_9  and  C_10
REMARK                            x       y       z     vdW  Elec       q    Type
REMARK                         _______ _______ _______ _____ _____    ______ ____
ROOT
ATOM      1  C   UNL     1     103.116 127.373  82.790  0.00  0.00    +0.000 C 
ATOM      2  C   UNL     1     103.601 126.129  82.638  0.00  0.00    +0.000 C 
ATOM      3 CL   UNL     1     104.113 128.777  82.901  0.00  0.00    +0.000 Cl
ENDROOT
BRANCH   1   7
ATOM      4  C   UNL     1      99.267 130.234  84.247  0.00  0.00    +0.000 C 
ATOM      5  C   UNL     1      99.791 128.978  83.616  0.00  0.00    +0.000 A 
ATOM      6  C   UNL     1     101.170 128.760  83.503  0.00  0.00    +0.000 A 
ATOM      7  C   UNL     1     101.667 127.603  82.883  0.00  0.00    +0.000 A 
ATOM      8  C   UNL     1     100.764 126.666  82.364  0.00  0.00    +0.000 A 
ATOM      9  C   UNL     1      99.390 126.884  82.459  0.00  0.00    +0.000 A 
ATOM     10  C   UNL     1      98.906 128.037  83.078  0.00  0.00    +0.000 A 
ENDBRANCH   1   7
BRANCH   2  11
ATOM     11  C   UNL     1     105.040 125.727  82.525  0.00  0.00    +0.000 C 
ATOM     12  S   UNL     1     105.301 124.025  83.095  0.00  0.00    +0.000 S 
ATOM     13  C   UNL     1     104.475 123.083  81.784  0.00  0.00    +0.000 C 
ATOM     14  C   UNL     1     105.052 123.351  80.403  0.00  0.00    +0.000 C 
ATOM     15  C   UNL     1     104.802 124.765  79.901  0.00  0.00    +0.000 C 
ATOM     16  S   UNL     1     105.683 126.030  80.857  0.00  0.00    +0.000 S 
ENDBRANCH   2  11
TORSDOF 2
ENDMDL
