REMARK  Name = *****
REMARK  2 active torsions:
REMARK  status: ('A' for Active; 'I' for Inactive)
REMARK    1  A    between atoms: C_4  and  C_7
REMARK    2  A    between atoms: C_8  and  C_9
REMARK                            x       y       z     vdW  Elec       q    Type
REMARK                         _______ _______ _______ _____ _____    ______ ____
ROOT
ATOM      1  C   UNL     1       0.069   1.037   2.189  0.00  0.00    +0.000 C 
ATOM      2  C   UNL     1      -0.913   1.492   2.988  0.00  0.00    +0.000 C 
ENDROOT
BRANCH   1   6
ATOM      3  C   UNL     1       2.724  -0.255  -0.274  0.00  0.00    +0.000 C 
ATOM      4  C   UNL     1       2.890   1.036   0.513  0.00  0.00    +0.000 C 
ATOM      5  S   UNL     1       1.558   2.231   0.217  0.00  0.00    +0.000 S 
ATOM      6  C   UNL     1       0.109   1.263   0.706  0.00  0.00    +0.000 C 
ATOM      7  S   UNL     1      -0.062  -0.287  -0.213  0.00  0.00    +0.000 S 
ATOM      8  C   UNL     1       1.524  -1.085   0.156  0.00  0.00    +0.000 C 
ENDBRANCH   1   6
BRANCH   2   9
ATOM      9  C   UNL     1      -0.953   1.266   4.438  0.00  0.00    +0.000 A 
ATOM     10  C   UNL     1       0.186   1.398   5.243  0.00  0.00    +0.000 A 
ATOM     11  C   UNL     1       0.105   1.205   6.625  0.00  0.00    +0.000 A 
ATOM     12  C   UNL     1      -1.117   0.889   7.215  0.00  0.00    +0.000 A 
ATOM     13  C   UNL     1      -2.259   0.772   6.426  0.00  0.00    +0.000 A 
ATOM     14  C   UNL     1      -2.179   0.965   5.045  0.00  0.00    +0.000 A 
ENDBRANCH   2   9
TORSDOF 2
