MODEL 1
REMARK VINA RESULT:      -4.0      0.000      0.000
REMARK  Name = *****
REMARK  7 active torsions:
REMARK  status: ('A' for Active; 'I' for Inactive)
REMARK    1  A    between atoms: C_1  and  C_2
REMARK    2  A    between atoms: C_4  and  S_8
REMARK    3  A    between atoms: C_5  and  C_7
REMARK    4  A    between atoms: S_8  and  S_9
REMARK    5  A    between atoms: S_9  and  C_10
REMARK    6  A    between atoms: C_11  and  C_16
REMARK    7  A    between atoms: C_13  and  C_15
REMARK                            x       y       z     vdW  Elec       q    Type
REMARK                         _______ _______ _______ _____ _____    ______ ____
ROOT
ATOM      1  S   UNL     1     104.130 126.960  82.575  0.00  0.00    +0.000 S 
ENDROOT
BRANCH   1   5
ATOM      2  C   UNL     1      98.767 126.702  82.427  0.00  0.00    +0.000 C 
ATOM      3  C   UNL     1     100.192 127.024  82.633  0.00  0.00    +0.000 A 
ATOM      4  C   UNL     1     101.369 126.417  82.248  0.00  0.00    +0.000 A 
ATOM      5  C   UNL     1     102.414 127.222  82.761  0.00  0.00    +0.000 A 
ATOM      6  C   UNL     1     101.814 128.278  83.413  0.00  0.00    +0.000 A 
ATOM      7  O   UNL     1     100.457 128.158  83.340  0.00  0.00    +0.000 OA
ATOM      8  C   UNL     1     102.326 129.456  84.143  0.00  0.00    +0.000 C 
ENDBRANCH   1   5
BRANCH   1   9
ATOM      9  S   UNL     1     104.385 126.623  80.564  0.00  0.00    +0.000 S 
BRANCH   9  10
ATOM     10  C   UNL     1     104.721 124.914  80.451  0.00  0.00    +0.000 A 
ATOM     11  C   UNL     1     105.542 124.299  79.530  0.00  0.00    +0.000 A 
ATOM     12  O   UNL     1     105.575 122.955  79.762  0.00  0.00    +0.000 OA
ATOM     13  C   UNL     1     104.777 122.715  80.840  0.00  0.00    +0.000 A 
ATOM     14  C   UNL     1     104.234 123.895  81.303  0.00  0.00    +0.000 A 
ATOM     15  C   UNL     1     104.671 121.308  81.272  0.00  0.00    +0.000 C 
ATOM     16  C   UNL     1     106.350 124.785  78.393  0.00  0.00    +0.000 C 
ENDBRANCH   9  10
ENDBRANCH   1   9
TORSDOF 3
ENDMDL
