MODEL 1
REMARK VINA RESULT:      -5.1      0.000      0.000
REMARK  Name = *****
REMARK  2 active torsions:
REMARK  status: ('A' for Active; 'I' for Inactive)
REMARK    1  A    between atoms: C_4  and  C_7
REMARK    2  A    between atoms: C_8  and  C_9
REMARK                            x       y       z     vdW  Elec       q    Type
REMARK                         _______ _______ _______ _____ _____    ______ ____
ROOT
ATOM      1  C   UNL     1     101.866 125.957  82.525  0.00  0.00    +0.000 C 
ATOM      2  C   UNL     1     102.781 125.962  81.542  0.00  0.00    +0.000 C 
ATOM      3  F   UNL     1     102.859 127.029  80.713  0.00  0.00    +0.000 F 
ENDROOT
BRANCH   2   4
ATOM      4  C   UNL     1     103.781 124.900  81.323  0.00  0.00    +0.000 A 
ATOM      5  C   UNL     1     104.471 124.738  80.111  0.00  0.00    +0.000 A 
ATOM      6  C   UNL     1     105.423 123.724  79.959  0.00  0.00    +0.000 A 
ATOM      7  C   UNL     1     105.701 122.868  81.022  0.00  0.00    +0.000 A 
ATOM      8  C   UNL     1     105.039 123.021  82.236  0.00  0.00    +0.000 A 
ATOM      9  C   UNL     1     104.088 124.035  82.385  0.00  0.00    +0.000 A 
ATOM     10 CL   UNL     1     106.871 121.621  80.835  0.00  0.00    +0.000 Cl
ENDBRANCH   2   4
BRANCH   1  14
ATOM     11  C   UNL     1      99.048 129.071  83.348  0.00  0.00    +0.000 A 
ATOM     12  C   UNL     1      98.617 127.906  82.717  0.00  0.00    +0.000 A 
ATOM     13  C   UNL     1      99.528 126.885  82.436  0.00  0.00    +0.000 A 
ATOM     14  C   UNL     1     100.882 127.023  82.768  0.00  0.00    +0.000 A 
ATOM     15  C   UNL     1     101.299 128.193  83.417  0.00  0.00    +0.000 A 
ATOM     16  C   UNL     1     100.389 129.215  83.699  0.00  0.00    +0.000 A 
ENDBRANCH   1  14
TORSDOF 2
ENDMDL
