MODEL 1
REMARK VINA RESULT:      -4.4      0.000      0.000
REMARK  Name = *****
REMARK  4 active torsions:
REMARK  status: ('A' for Active; 'I' for Inactive)
REMARK    1  A    between atoms: C_1  and  C_2
REMARK    2  A    between atoms: C_5  and  C_8
REMARK    3  A    between atoms: C_8  and  O_9
REMARK    4  A    between atoms: O_9  and  C_10
REMARK                            x       y       z     vdW  Elec       q    Type
REMARK                         _______ _______ _______ _____ _____    ______ ____
ROOT
ATOM      1  O   UNL     1      87.398  64.245  86.792  0.00  0.00    +0.000 OA
ENDROOT
BRANCH   1   2
ATOM      2  C   UNL     1      88.534  64.911  86.413  0.00  0.00    +0.000 A 
ATOM      3  C   UNL     1      88.758  66.238  86.799  0.00  0.00    +0.000 A 
ATOM      4  C   UNL     1      89.944  66.876  86.434  0.00  0.00    +0.000 A 
ATOM      5  C   UNL     1      90.911  66.184  85.698  0.00  0.00    +0.000 A 
ATOM      6  C   UNL     1      90.689  64.854  85.337  0.00  0.00    +0.000 A 
ATOM      7  C   UNL     1      89.507  64.210  85.697  0.00  0.00    +0.000 A 
ATOM      8 CL   UNL     1      91.886  64.004  84.441  0.00  0.00    +0.000 Cl
ATOM      9 CL   UNL     1      87.592  67.118  87.716  0.00  0.00    +0.000 Cl
ENDBRANCH   1   2
BRANCH   1  10
ATOM     10  C   UNL     1      87.732  63.092  87.572  0.00  0.00    +0.000 C 
BRANCH  10  15
ATOM     11  C   UNL     1      88.010  64.756  93.148  0.00  0.00    +0.000 C 
ATOM     12  C   UNL     1      87.935  64.297  91.722  0.00  0.00    +0.000 A 
ATOM     13  C   UNL     1      86.709  64.277  91.049  0.00  0.00    +0.000 A 
ATOM     14  C   UNL     1      86.641  63.885  89.709  0.00  0.00    +0.000 A 
ATOM     15  C   UNL     1      87.799  63.506  89.020  0.00  0.00    +0.000 A 
ATOM     16  C   UNL     1      89.030  63.553  89.688  0.00  0.00    +0.000 A 
ATOM     17  C   UNL     1      89.098  63.947  91.027  0.00  0.00    +0.000 A 
ENDBRANCH  10  15
ENDBRANCH   1  10
TORSDOF 3
ENDMDL
