MODEL 1
REMARK VINA RESULT:      -4.6      0.000      0.000
REMARK  Name = *****
REMARK  4 active torsions:
REMARK  status: ('A' for Active; 'I' for Inactive)
REMARK    1  A    between atoms: C_4  and  C_7
REMARK    2  A    between atoms: C_7  and  C_8
REMARK    3  A    between atoms: C_7  and  C_16
REMARK    4  A    between atoms: C_8  and  C_9
REMARK                            x       y       z     vdW  Elec       q    Type
REMARK                         _______ _______ _______ _____ _____    ______ ____
ROOT
ATOM      1  C   UNL     1      88.084  70.510  88.224  0.00  0.00    +0.000 C 
ENDROOT
BRANCH   1   5
ATOM      2  C   UNL     1      84.459  72.360  86.736  0.00  0.00    +0.000 A 
ATOM      3  C   UNL     1      84.655  72.197  88.105  0.00  0.00    +0.000 A 
ATOM      4  C   UNL     1      85.828  71.605  88.578  0.00  0.00    +0.000 A 
ATOM      5  C   UNL     1      86.822  71.171  87.686  0.00  0.00    +0.000 A 
ATOM      6  C   UNL     1      86.608  71.341  86.307  0.00  0.00    +0.000 A 
ATOM      7  C   UNL     1      85.434  71.932  85.838  0.00  0.00    +0.000 A 
ENDBRANCH   1   5
BRANCH   1   8
ATOM      8  C   UNL     1      88.401  70.958  89.599  0.00  0.00    +0.000 C 
ATOM      9  N   UNL     1      88.673  71.291  90.678  0.00  0.00    +0.000 NA
ENDBRANCH   1   8
BRANCH   1  10
ATOM     10  C   UNL     1      89.315  70.733  87.315  0.00  0.00    +0.000 C 
BRANCH  10  11
ATOM     11  C   UNL     1      89.539  69.623  86.305  0.00  0.00    +0.000 A 
ATOM     12  C   UNL     1      89.530  68.293  86.772  0.00  0.00    +0.000 A 
ATOM     13  C   UNL     1      89.708  67.219  85.899  0.00  0.00    +0.000 A 
ATOM     14  C   UNL     1      89.901  67.453  84.542  0.00  0.00    +0.000 A 
ATOM     15  C   UNL     1      89.922  68.760  84.060  0.00  0.00    +0.000 A 
ATOM     16  C   UNL     1      89.744  69.841  84.932  0.00  0.00    +0.000 A 
ATOM     17 BR   UNL     1      89.811  71.575  84.158  0.00  0.00    +0.000 Br
ENDBRANCH  10  11
ENDBRANCH   1  10
TORSDOF 4
ENDMDL
