REMARK  Name = *****
REMARK  4 active torsions:
REMARK  status: ('A' for Active; 'I' for Inactive)
REMARK    1  A    between atoms: C_1  and  C_2
REMARK    2  A    between atoms: N_4  and  C_5
REMARK    3  A    between atoms: C_8  and  C_11
REMARK    4  A    between atoms: C_12  and  C_13
REMARK                            x       y       z     vdW  Elec       q    Type
REMARK                         _______ _______ _______ _____ _____    ______ ____
ROOT
ATOM      1  C   UNL     1       4.749   0.868  -0.415  0.00  0.00    +0.000 A 
ATOM      2  C   UNL     1       5.454  -0.331  -0.513  0.00  0.00    +0.000 A 
ATOM      3  C   UNL     1       6.852  -0.330  -0.608  0.00  0.00    +0.000 A 
ATOM      4  C   UNL     1       7.570   0.870  -0.617  0.00  0.00    +0.000 A 
ATOM      5  C   UNL     1       6.863   2.071  -0.501  0.00  0.00    +0.000 A 
ATOM      6  C   UNL     1       5.466   2.070  -0.407  0.00  0.00    +0.000 A 
ENDROOT
BRANCH   1  10
ATOM      7  C   UNL     1       1.013   0.398  -0.185  0.00  0.00    +0.000 C 
ATOM      8  C   UNL     1       2.435  -0.088  -0.318  0.00  0.00    +0.000 C 
ATOM      9  O   UNL     1       2.679  -1.283  -0.443  0.00  0.00    +0.000 OA
ATOM     10  N   UNL     1       3.345   0.954  -0.313  0.00  0.00    +0.000 N 
ATOM     11  H   UNL     1       2.969   1.860  -0.229  0.00  0.00    +0.000 HD
ENDBRANCH   1  10
BRANCH   4  12
ATOM     12  C   UNL     1       9.038   0.910  -0.681  0.00  0.00    +0.000 C 
ATOM     13  C   UNL     1       9.774   0.074  -1.432  0.00  0.00    +0.000 C 
BRANCH  13  14
ATOM     14  C   UNL     1      11.241   0.120  -1.511  0.00  0.00    +0.000 A 
ATOM     15  C   UNL     1      12.044   0.413  -0.400  0.00  0.00    +0.000 A 
ATOM     16  C   UNL     1      13.432   0.415  -0.522  0.00  0.00    +0.000 A 
ATOM     17  C   UNL     1      14.050   0.119  -1.727  0.00  0.00    +0.000 A 
ATOM     18  C   UNL     1      13.255  -0.187  -2.821  0.00  0.00    +0.000 A 
ATOM     19  C   UNL     1      11.865  -0.195  -2.725  0.00  0.00    +0.000 A 
ATOM     20  F   UNL     1      13.834  -0.482  -3.993  0.00  0.00    +0.000 F 
ATOM     21  F   UNL     1      14.184   0.702   0.549  0.00  0.00    +0.000 F 
ENDBRANCH  13  14
ENDBRANCH   4  12
TORSDOF 3
