MODEL 1
REMARK VINA RESULT:      -4.9      0.000      0.000
REMARK  Name = *****
REMARK  3 active torsions:
REMARK  status: ('A' for Active; 'I' for Inactive)
REMARK    1  A    between atoms: C_3  and  O_8
REMARK    2  A    between atoms: O_8  and  C_9
REMARK    3  A    between atoms: C_9  and  C_10
REMARK                            x       y       z     vdW  Elec       q    Type
REMARK                         _______ _______ _______ _____ _____    ______ ____
ROOT
ATOM      1  C   UNL     1     103.707 124.802  82.088  0.00  0.00    +0.000 A 
ATOM      2  C   UNL     1     104.173 124.142  80.947  0.00  0.00    +0.000 A 
ATOM      3  C   UNL     1     104.745 122.875  81.034  0.00  0.00    +0.000 A 
ATOM      4  C   UNL     1     104.853 122.245  82.266  0.00  0.00    +0.000 A 
ATOM      5  C   UNL     1     104.389 122.882  83.409  0.00  0.00    +0.000 A 
ATOM      6  C   UNL     1     103.819 124.149  83.317  0.00  0.00    +0.000 A 
ATOM      7  F   UNL     1     103.377 124.752  84.430  0.00  0.00    +0.000 F 
ATOM      8  F   UNL     1     104.494 122.279  84.601  0.00  0.00    +0.000 F 
ATOM      9  F   UNL     1     105.406 121.028  82.352  0.00  0.00    +0.000 F 
ATOM     10  F   UNL     1     105.193 122.266  79.928  0.00  0.00    +0.000 F 
ATOM     11  F   UNL     1     104.077 124.738  79.751  0.00  0.00    +0.000 F 
ENDROOT
BRANCH   1  12
ATOM     12  C   UNL     1     103.050 126.147  81.984  0.00  0.00    +0.000 C 
BRANCH  12  13
ATOM     13  O   UNL     1     101.643 125.939  82.080  0.00  0.00    +0.000 OA
BRANCH  13  16
ATOM     14  C   UNL     1      98.622 127.810  82.804  0.00  0.00    +0.000 A 
ATOM     15  C   UNL     1      99.513 126.832  82.359  0.00  0.00    +0.000 A 
ATOM     16  C   UNL     1     100.890 126.970  82.568  0.00  0.00    +0.000 A 
ATOM     17  C   UNL     1     101.371 128.099  83.232  0.00  0.00    +0.000 A 
ATOM     18  C   UNL     1     100.475 129.075  83.675  0.00  0.00    +0.000 A 
ATOM     19  C   UNL     1      99.105 128.937  83.464  0.00  0.00    +0.000 A 
ATOM     20 CL   UNL     1     101.074 130.468  84.493  0.00  0.00    +0.000 Cl
ENDBRANCH  13  16
ENDBRANCH  12  13
ENDBRANCH   1  12
TORSDOF 3
ENDMDL
