MODEL 1
REMARK VINA RESULT:      -3.5      0.000      0.000
REMARK  Name = *****
REMARK  4 active torsions:
REMARK  status: ('A' for Active; 'I' for Inactive)
REMARK    1  A    between atoms: C_5  and  C_7
REMARK    2  A    between atoms: C_7  and  O_8
REMARK    3  A    between atoms: O_8  and  C_9
REMARK    4  A    between atoms: C_9  and  C_11
REMARK                            x       y       z     vdW  Elec       q    Type
REMARK                         _______ _______ _______ _____ _____    ______ ____
ROOT
ATOM      1  O   UNL     1      94.579 118.383  80.751  0.00  0.00    +0.000 OA
ENDROOT
BRANCH   1   2
ATOM      2  C   UNL     1      94.917 119.641  81.147  0.00  0.00    +0.000 C 
ATOM      3  O   UNL     1      94.463 120.665  80.651  0.00  0.00    +0.000 OA
BRANCH   2   4
ATOM      4  C   UNL     1      95.857 119.601  82.347  0.00  0.00    +0.000 C 
ATOM      5  C   UNL     1      96.875 120.752  82.289  0.00  0.00    +0.000 C 
ATOM      6  C   UNL     1      97.890 120.581  81.151  0.00  0.00    +0.000 C 
ATOM      7  C   UNL     1      98.363 119.167  80.987  0.00  0.00    +0.000 C 
ATOM      8  C   UNL     1      97.791 118.123  81.603  0.00  0.00    +0.000 C 
ATOM      9  C   UNL     1      96.588 118.256  82.492  0.00  0.00    +0.000 C 
ENDBRANCH   2   4
ENDBRANCH   1   2
BRANCH   1  10
ATOM     10  C   UNL     1      94.341 118.212  79.340  0.00  0.00    +0.000 C 
BRANCH  10  15
ATOM     11  C   UNL     1      96.198 114.820  79.552  0.00  0.00    +0.000 C 
ATOM     12  C   UNL     1      97.564 115.364  79.133  0.00  0.00    +0.000 C 
ATOM     13  C   UNL     1      97.467 116.580  78.260  0.00  0.00    +0.000 C 
ATOM     14  C   UNL     1      96.334 117.280  78.099  0.00  0.00    +0.000 C 
ATOM     15  C   UNL     1      95.036 116.946  78.805  0.00  0.00    +0.000 C 
ATOM     16  C   UNL     1      95.255 115.949  79.959  0.00  0.00    +0.000 C 
ENDBRANCH  10  15
ENDBRANCH   1  10
TORSDOF 4
ENDMDL
