MODEL 1
REMARK VINA RESULT:      -4.7      0.000      0.000
REMARK  Name = *****
REMARK  4 active torsions:
REMARK  status: ('A' for Active; 'I' for Inactive)
REMARK    1  A    between atoms: C_1  and  C_2
REMARK    2  A    between atoms: C_2  and  N_3
REMARK    3  A    between atoms: C_9  and  C_10
REMARK    4  A    between atoms: C_11  and  C_12
REMARK                            x       y       z     vdW  Elec       q    Type
REMARK                         _______ _______ _______ _____ _____    ______ ____
ROOT
ATOM      1  N   UNL     1      86.956  63.187  87.232  0.00  0.00    +0.000 NA
ATOM      2  C   UNL     1      87.286  63.296  88.476  0.00  0.00    +0.000 C 
ATOM      3  C   UNL     1      88.669  63.545  88.993  0.00  0.00    +0.000 C 
ATOM      4  C   UNL     1      88.858  63.850  90.282  0.00  0.00    +0.000 C 
ATOM      5  C   UNL     1      87.778  63.974  91.226  0.00  0.00    +0.000 C 
ATOM      6  C   UNL     1      86.524  63.649  90.889  0.00  0.00    +0.000 C 
ATOM      7  C   UNL     1      86.144  63.146  89.522  0.00  0.00    +0.000 C 
ENDROOT
BRANCH   1   9
ATOM      8  C   UNL     1      87.793  64.665  85.519  0.00  0.00    +0.000 C 
ATOM      9  C   UNL     1      87.969  63.314  86.192  0.00  0.00    +0.000 C 
ENDBRANCH   1   9
BRANCH   7  10
ATOM     10  C   UNL     1      85.738  61.694  89.595  0.00  0.00    +0.000 C 
ATOM     11  C   UNL     1      85.410  61.066  90.736  0.00  0.00    +0.000 C 
BRANCH  11  12
ATOM     12  C   UNL     1      84.997  59.658  90.813  0.00  0.00    +0.000 A 
ATOM     13  C   UNL     1      83.653  59.269  90.758  0.00  0.00    +0.000 A 
ATOM     14  C   UNL     1      83.303  57.917  90.802  0.00  0.00    +0.000 A 
ATOM     15  C   UNL     1      84.292  56.940  90.889  0.00  0.00    +0.000 A 
ATOM     16  C   UNL     1      85.633  57.316  90.930  0.00  0.00    +0.000 A 
ATOM     17  C   UNL     1      85.984  58.667  90.885  0.00  0.00    +0.000 A 
ENDBRANCH  11  12
ENDBRANCH   7  10
TORSDOF 3
ENDMDL
