MODEL 1
REMARK VINA RESULT:      -4.2      0.000      0.000
REMARK  Name = *****
REMARK  4 active torsions:
REMARK  status: ('A' for Active; 'I' for Inactive)
REMARK    1  A    between atoms: C_4  and  C_8
REMARK    2  A    between atoms: C_8  and  O_10
REMARK    3  A    between atoms: O_10  and  C_11
REMARK    4  A    between atoms: C_11  and  C_12
REMARK                            x       y       z     vdW  Elec       q    Type
REMARK                         _______ _______ _______ _____ _____    ______ ____
ROOT
ATOM      1  C   UNL     1     104.722 128.232  82.320  0.00  0.00    +0.000 C 
ATOM      2  O   UNL     1     105.640 128.542  83.070  0.00  0.00    +0.000 OA
ENDROOT
BRANCH   1   6
ATOM      3  C   UNL     1     105.223 125.366  79.946  0.00  0.00    +0.000 C 
ATOM      4  C   UNL     1     103.710 125.545  80.108  0.00  0.00    +0.000 C 
ATOM      5  C   UNL     1     103.598 127.076  80.272  0.00  0.00    +0.000 C 
ATOM      6  C   UNL     1     104.905 127.441  81.041  0.00  0.00    +0.000 C 
ATOM      7  C   UNL     1     105.545 126.051  81.279  0.00  0.00    +0.000 C 
ATOM      8  C   UNL     1     104.648 125.225  82.177  0.00  0.00    +0.000 C 
ATOM      9  C   UNL     1     103.544 124.929  81.476  0.00  0.00    +0.000 C 
ENDBRANCH   1   6
BRANCH   1  10
ATOM     10  O   UNL     1     103.432 128.635  82.457  0.00  0.00    +0.000 OA
BRANCH  10  11
ATOM     11  C   UNL     1     102.748 128.163  83.623  0.00  0.00    +0.000 C 
BRANCH  11  12
ATOM     12  C   UNL     1     101.276 128.042  83.322  0.00  0.00    +0.000 A 
ATOM     13  C   UNL     1     100.772 126.901  82.684  0.00  0.00    +0.000 A 
ATOM     14  C   UNL     1      99.412 126.800  82.387  0.00  0.00    +0.000 A 
ATOM     15  C   UNL     1      98.546 127.842  82.718  0.00  0.00    +0.000 A 
ATOM     16  C   UNL     1      99.040 128.987  83.340  0.00  0.00    +0.000 A 
ATOM     17  C   UNL     1     100.400 129.089  83.638  0.00  0.00    +0.000 A 
ENDBRANCH  11  12
ENDBRANCH  10  11
ENDBRANCH   1  10
TORSDOF 4
ENDMDL
