MODEL 1
REMARK VINA RESULT:      -4.3      0.000      0.000
REMARK  Name = *****
REMARK  3 active torsions:
REMARK  status: ('A' for Active; 'I' for Inactive)
REMARK    1  A    between atoms: C_4  and  C_7
REMARK    2  A    between atoms: C_7  and  C_8
REMARK    3  A    between atoms: C_8  and  C_9
REMARK                            x       y       z     vdW  Elec       q    Type
REMARK                         _______ _______ _______ _____ _____    ______ ____
ROOT
ATOM      1  C   UNL     1      88.140  70.253  86.123  0.00  0.00    +0.000 C 
ATOM      2 CL   UNL     1      89.541  70.731  87.142  0.00  0.00    +0.000 Cl
ENDROOT
BRANCH   1   6
ATOM      3  C   UNL     1      84.551  72.391  87.285  0.00  0.00    +0.000 A 
ATOM      4  C   UNL     1      85.409  71.869  88.250  0.00  0.00    +0.000 A 
ATOM      5  C   UNL     1      86.569  71.194  87.866  0.00  0.00    +0.000 A 
ATOM      6  C   UNL     1      86.892  71.035  86.506  0.00  0.00    +0.000 A 
ATOM      7  C   UNL     1      86.014  71.565  85.547  0.00  0.00    +0.000 A 
ATOM      8  C   UNL     1      84.853  72.239  85.934  0.00  0.00    +0.000 A 
ENDBRANCH   1   6
BRANCH   1   9
ATOM      9  C   UNL     1      88.425  70.278  84.596  0.00  0.00    +0.000 C 
ATOM     10 CL   UNL     1      88.833  68.630  83.984  0.00  0.00    +0.000 Cl
BRANCH   9  11
ATOM     11  C   UNL     1      89.444  71.289  84.102  0.00  0.00    +0.000 A 
ATOM     12  C   UNL     1      89.133  72.638  83.890  0.00  0.00    +0.000 A 
ATOM     13  C   UNL     1      90.117  73.488  83.410  0.00  0.00    +0.000 A 
ATOM     14  N   UNL     1      91.377  73.096  83.127  0.00  0.00    +0.000 NA
ATOM     15  C   UNL     1      91.666  71.797  83.338  0.00  0.00    +0.000 A 
ATOM     16  C   UNL     1      90.752  70.870  83.817  0.00  0.00    +0.000 A 
ENDBRANCH   9  11
ENDBRANCH   1   9
TORSDOF 3
ENDMDL
