MODEL 1
REMARK VINA RESULT:      -4.9      0.000      0.000
REMARK  Name = *****
REMARK  1 active torsions:
REMARK  status: ('A' for Active; 'I' for Inactive)
REMARK    1  A    between atoms: C_4  and  C_7
REMARK                            x       y       z     vdW  Elec       q    Type
REMARK                         _______ _______ _______ _____ _____    ______ ____
ROOT
ATOM      1  C   UNL     1     102.102 126.036  82.497  0.00  0.00    +0.000 A 
ATOM      2  N   UNL     1     102.632 125.137  83.308  0.00  0.00    +0.000 NA
ATOM      3  C   UNL     1     103.564 124.489  82.528  0.00  0.00    +0.000 A 
ATOM      4  C   UNL     1     103.557 125.036  81.254  0.00  0.00    +0.000 A 
ATOM      5  O   UNL     1     102.622 126.029  81.226  0.00  0.00    +0.000 OA
ATOM      6  C   UNL     1     104.374 124.624  80.205  0.00  0.00    +0.000 A 
ATOM      7  C   UNL     1     105.259 123.574  80.486  0.00  0.00    +0.000 A 
ATOM      8  C   UNL     1     105.307 122.985  81.754  0.00  0.00    +0.000 A 
ATOM      9  C   UNL     1     104.463 123.442  82.770  0.00  0.00    +0.000 A 
ATOM     10 CL   UNL     1     104.463 122.774  84.339  0.00  0.00    +0.000 Cl
ENDROOT
BRANCH   1  14
ATOM     11  C   UNL     1      99.085 128.945  83.334  0.00  0.00    +0.000 A 
ATOM     12  C   UNL     1     100.410 129.180  83.690  0.00  0.00    +0.000 A 
ATOM     13  C   UNL     1     101.388 128.222  83.412  0.00  0.00    +0.000 A 
ATOM     14  C   UNL     1     101.055 127.017  82.773  0.00  0.00    +0.000 A 
ATOM     15  C   UNL     1      99.716 126.797  82.421  0.00  0.00    +0.000 A 
ATOM     16  C   UNL     1      98.736 127.754  82.699  0.00  0.00    +0.000 A 
ENDBRANCH   1  14
TORSDOF 1
ENDMDL
