REMARK  Name = *****
REMARK  5 active torsions:
REMARK  status: ('A' for Active; 'I' for Inactive)
REMARK    1  A    between atoms: C_1  and  O_2
REMARK    2  A    between atoms: O_2  and  C_3
REMARK    3  A    between atoms: C_8  and  O_9
REMARK    4  A    between atoms: O_9  and  P_10
REMARK    5  A    between atoms: P_10  and  C_11
REMARK                            x       y       z     vdW  Elec       q    Type
REMARK                         _______ _______ _______ _____ _____    ______ ____
ROOT
ATOM      1  O   UNL     1       4.216  -1.164   1.420  0.00  0.00    +0.000 OA
ENDROOT
BRANCH   1   7
ATOM      2  C   UNL     1       3.007  -1.007  -0.763  0.00  0.00    +0.000 A 
ATOM      3  C   UNL     1       2.924  -1.535  -2.061  0.00  0.00    +0.000 A 
ATOM      4  C   UNL     1       3.762  -2.575  -2.473  0.00  0.00    +0.000 A 
ATOM      5  C   UNL     1       4.703  -3.098  -1.596  0.00  0.00    +0.000 A 
ATOM      6  C   UNL     1       4.805  -2.576  -0.309  0.00  0.00    +0.000 A 
ATOM      7  C   UNL     1       3.969  -1.531   0.120  0.00  0.00    +0.000 A 
BRANCH   2   9
ATOM      8  C   UNL     1       1.049   0.325  -1.087  0.00  0.00    +0.000 C 
ATOM      9  O   UNL     1       2.208   0.015  -0.325  0.00  0.00    +0.000 OA
ENDBRANCH   2   9
ENDBRANCH   1   7
BRANCH   1  10
ATOM     10  P   UNL     1       3.525  -0.009   2.304  0.00  0.00    +0.000 P 
ATOM     11 BR   UNL     1       5.282   1.259   2.589  0.00  0.00    +0.000 Br
BRANCH  10  12
ATOM     12  C   UNL     1       3.501  -0.812   3.950  0.00  0.00    +0.000 A 
ATOM     13  C   UNL     1       4.098  -2.057   4.203  0.00  0.00    +0.000 A 
ATOM     14  C   UNL     1       4.045  -2.633   5.476  0.00  0.00    +0.000 A 
ATOM     15  C   UNL     1       3.393  -1.974   6.515  0.00  0.00    +0.000 A 
ATOM     16  C   UNL     1       2.793  -0.739   6.283  0.00  0.00    +0.000 A 
ATOM     17  C   UNL     1       2.845  -0.163   5.011  0.00  0.00    +0.000 A 
ENDBRANCH  10  12
ENDBRANCH   1  10
TORSDOF 4
