MODEL 1
REMARK VINA RESULT:      -5.0      0.000      0.000
REMARK  Name = *****
REMARK  2 active torsions:
REMARK  status: ('A' for Active; 'I' for Inactive)
REMARK    1  A    between atoms: C_4  and  C_7
REMARK    2  A    between atoms: C_7  and  N_8
REMARK                            x       y       z     vdW  Elec       q    Type
REMARK                         _______ _______ _______ _____ _____    ______ ____
ROOT
ATOM      1  N   UNL     1     103.245 127.047  82.091  0.00  0.00    +0.000 N 
ATOM      2  C   UNL     1     103.664 125.742  82.036  0.00  0.00    +0.000 A 
ATOM      3  C   UNL     1     103.728 124.700  82.968  0.00  0.00    +0.000 A 
ATOM      4  C   UNL     1     104.245 123.476  82.516  0.00  0.00    +0.000 A 
ATOM      5  C   UNL     1     104.674 123.317  81.189  0.00  0.00    +0.000 A 
ATOM      6  C   UNL     1     104.598 124.378  80.277  0.00  0.00    +0.000 A 
ATOM      7  C   UNL     1     104.084 125.603  80.719  0.00  0.00    +0.000 A 
ATOM      8  N   UNL     1     103.899 126.782  80.050  0.00  0.00    +0.000 NA
ATOM      9  N   UNL     1     103.376 127.659  80.895  0.00  0.00    +0.000 NA
ATOM     10 CL   UNL     1     105.314 121.818  80.605  0.00  0.00    +0.000 Cl
ATOM     11 CL   UNL     1     104.325 122.188  83.670  0.00  0.00    +0.000 Cl
ENDROOT
BRANCH   1  12
ATOM     12  C   UNL     1     102.665 127.766  83.213  0.00  0.00    +0.000 C 
BRANCH  12  16
ATOM     13  C   UNL     1      98.365 127.994  82.930  0.00  0.00    +0.000 A 
ATOM     14  C   UNL     1      99.081 129.046  83.498  0.00  0.00    +0.000 A 
ATOM     15  C   UNL     1     100.472 128.976  83.590  0.00  0.00    +0.000 A 
ATOM     16  C   UNL     1     101.161 127.845  83.123  0.00  0.00    +0.000 A 
ATOM     17  C   UNL     1     100.429 126.798  82.543  0.00  0.00    +0.000 A 
ATOM     18  C   UNL     1      99.038 126.873  82.452  0.00  0.00    +0.000 A 
ENDBRANCH  12  16
ENDBRANCH   1  12
TORSDOF 2
ENDMDL
