REMARK  Name = *****
REMARK  2 active torsions:
REMARK  status: ('A' for Active; 'I' for Inactive)
REMARK    1  A    between atoms: C_5  and  C_6
REMARK    2  A    between atoms: C_7  and  C_8
REMARK                            x       y       z     vdW  Elec       q    Type
REMARK                         _______ _______ _______ _____ _____    ______ ____
ROOT
ATOM      1  C   UNL     1      -2.545   0.877  -0.029  0.00  0.00    +0.000 C 
ATOM      2  C   UNL     1      -3.680   1.268  -0.049  0.00  0.00    +0.000 C 
ENDROOT
BRANCH   2   3
ATOM      3  C   UNL     1      -5.032   1.734  -0.077  0.00  0.00    +0.000 A 
ATOM      4  C   UNL     1      -6.086   0.819  -0.134  0.00  0.00    +0.000 A 
ATOM      5  C   UNL     1      -7.406   1.274  -0.163  0.00  0.00    +0.000 A 
ATOM      6  C   UNL     1      -7.673   2.643  -0.135  0.00  0.00    +0.000 A 
ATOM      7  C   UNL     1      -6.622   3.558  -0.077  0.00  0.00    +0.000 A 
ATOM      8  C   UNL     1      -5.301   3.104  -0.048  0.00  0.00    +0.000 A 
ENDBRANCH   2   3
BRANCH   1  13
ATOM      9  C   UNL     1       0.012   1.301   0.003  0.00  0.00    +0.000 C 
ATOM     10  C   UNL     1       1.123   0.288   0.021  0.00  0.00    +0.000 C 
ATOM     11  C   UNL     1       0.606  -0.952   0.022  0.00  0.00    +0.000 C 
ATOM     12  C   UNL     1      -0.835  -0.868   0.004  0.00  0.00    +0.000 C 
ATOM     13  C   UNL     1      -1.207   0.421  -0.007  0.00  0.00    +0.000 C 
ENDBRANCH   1  13
TORSDOF 2
