MODEL 1
REMARK VINA RESULT:      -4.7      0.000      0.000
REMARK  Name = *****
REMARK  4 active torsions:
REMARK  status: ('A' for Active; 'I' for Inactive)
REMARK    1  A    between atoms: C_1  and  C_2
REMARK    2  A    between atoms: C_2  and  C_3
REMARK    3  A    between atoms: C_2  and  S_10
REMARK    4  A    between atoms: S_10  and  C_12
REMARK                            x       y       z     vdW  Elec       q    Type
REMARK                         _______ _______ _______ _____ _____    ______ ____
ROOT
ATOM      1  C   UNL     1      90.931  65.875  85.579  0.00  0.00    +0.000 C 
ATOM      2  C   UNL     1      89.819  66.690  86.243  0.00  0.00    +0.000 C 
ENDROOT
BRANCH   2   3
ATOM      3  C   UNL     1      89.780  68.169  85.889  0.00  0.00    +0.000 A 
ATOM      4  C   UNL     1      89.960  68.552  84.545  0.00  0.00    +0.000 A 
ATOM      5  C   UNL     1      89.952  69.899  84.175  0.00  0.00    +0.000 A 
ATOM      6  C   UNL     1      89.761  70.872  85.145  0.00  0.00    +0.000 A 
ATOM      7  C   UNL     1      89.580  70.525  86.477  0.00  0.00    +0.000 A 
ATOM      8  C   UNL     1      89.589  69.177  86.849  0.00  0.00    +0.000 A 
ATOM      9  F   UNL     1      89.755  72.164  84.794  0.00  0.00    +0.000 F 
ENDBRANCH   2   3
BRANCH   2  10
ATOM     10  S   UNL     1      88.202  65.814  86.041  0.00  0.00    +0.000 S 
ATOM     11  O   UNL     1      88.442  64.596  85.196  0.00  0.00    +0.000 OA
BRANCH  10  12
ATOM     12  C   UNL     1      87.941  65.213  87.725  0.00  0.00    +0.000 A 
ATOM     13  C   UNL     1      86.935  65.778  88.518  0.00  0.00    +0.000 A 
ATOM     14  C   UNL     1      86.727  65.318  89.821  0.00  0.00    +0.000 A 
ATOM     15  C   UNL     1      87.515  64.287  90.320  0.00  0.00    +0.000 A 
ATOM     16  C   UNL     1      88.503  63.700  89.538  0.00  0.00    +0.000 A 
ATOM     17  C   UNL     1      88.711  64.158  88.236  0.00  0.00    +0.000 A 
ATOM     18  F   UNL     1      87.314  63.850  91.569  0.00  0.00    +0.000 F 
ENDBRANCH  10  12
ENDBRANCH   2  10
TORSDOF 3
ENDMDL
