REMARK  Name = *****
REMARK  2 active torsions:
REMARK  status: ('A' for Active; 'I' for Inactive)
REMARK    1  A    between atoms: C_4  and  C_7
REMARK    2  A    between atoms: C_8  and  C_9
REMARK                            x       y       z     vdW  Elec       q    Type
REMARK                         _______ _______ _______ _____ _____    ______ ____
ROOT
ATOM      1  C   UNL     1      -0.772  -1.235   1.840  0.00  0.00    +0.000 C 
ATOM      2  C   UNL     1      -0.817  -1.290   3.039  0.00  0.00    +0.000 C 
ENDROOT
BRANCH   1   6
ATOM      3  C   UNL     1       0.752   1.319  -0.402  0.00  0.00    +0.000 C 
ATOM      4  C   UNL     1       1.497   0.105   0.142  0.00  0.00    +0.000 C 
ATOM      5  C   UNL     1       0.738  -1.194  -0.131  0.00  0.00    +0.000 C 
ATOM      6  C   UNL     1      -0.714  -1.156   0.366  0.00  0.00    +0.000 C 
ATOM      7  C   UNL     1      -1.444   0.093  -0.148  0.00  0.00    +0.000 C 
ATOM      8  C   UNL     1      -0.677   1.388   0.126  0.00  0.00    +0.000 C 
ENDBRANCH   1   6
BRANCH   2   9
ATOM      9  C   UNL     1      -0.867  -1.344   4.467  0.00  0.00    +0.000 A 
ATOM     10  C   UNL     1      -0.591  -2.540   5.133  0.00  0.00    +0.000 A 
ATOM     11  C   UNL     1      -0.638  -2.590   6.528  0.00  0.00    +0.000 A 
ATOM     12  C   UNL     1      -0.960  -1.445   7.257  0.00  0.00    +0.000 A 
ATOM     13  C   UNL     1      -1.235  -0.250   6.593  0.00  0.00    +0.000 A 
ATOM     14  C   UNL     1      -1.189  -0.199   5.198  0.00  0.00    +0.000 A 
ENDBRANCH   2   9
TORSDOF 2
