MODEL 1
REMARK VINA RESULT:      -4.5      0.000      0.000
REMARK  Name = *****
REMARK  5 active torsions:
REMARK  status: ('A' for Active; 'I' for Inactive)
REMARK    1  A    between atoms: C_1  and  O_2
REMARK    2  A    between atoms: O_2  and  C_3
REMARK    3  A    between atoms: C_3  and  C_4
REMARK    4  A    between atoms: C_3  and  C_11
REMARK    5  A    between atoms: C_4  and  C_5
REMARK                            x       y       z     vdW  Elec       q    Type
REMARK                         _______ _______ _______ _____ _____    ______ ____
ROOT
ATOM      1  C   UNL     1      88.492  69.971  86.472  0.00  0.00    +0.000 C 
ENDROOT
BRANCH   1   2
ATOM      2  C   UNL     1      88.698  68.475  86.653  0.00  0.00    +0.000 A 
ATOM      3  C   UNL     1      87.743  67.712  87.341  0.00  0.00    +0.000 A 
ATOM      4  C   UNL     1      87.931  66.341  87.528  0.00  0.00    +0.000 A 
ATOM      5  C   UNL     1      89.076  65.720  87.034  0.00  0.00    +0.000 A 
ATOM      6  C   UNL     1      90.035  66.466  86.353  0.00  0.00    +0.000 A 
ATOM      7  C   UNL     1      89.849  67.836  86.165  0.00  0.00    +0.000 A 
ENDBRANCH   1   2
BRANCH   1   9
ATOM      8  C   UNL     1      89.731  71.344  84.974  0.00  0.00    +0.000 C 
ATOM      9  O   UNL     1      89.753  70.605  86.189  0.00  0.00    +0.000 OA
ENDBRANCH   1   9
BRANCH   1  10
ATOM     10  C   UNL     1      87.910  70.581  87.763  0.00  0.00    +0.000 C 
BRANCH  10  11
ATOM     11  C   UNL     1      86.573  71.251  87.530  0.00  0.00    +0.000 A 
ATOM     12  C   UNL     1      86.135  71.536  86.229  0.00  0.00    +0.000 A 
ATOM     13  C   UNL     1      84.907  72.167  86.018  0.00  0.00    +0.000 A 
ATOM     14  C   UNL     1      84.111  72.524  87.104  0.00  0.00    +0.000 A 
ATOM     15  C   UNL     1      84.539  72.250  88.402  0.00  0.00    +0.000 A 
ATOM     16  C   UNL     1      85.764  71.619  88.614  0.00  0.00    +0.000 A 
ENDBRANCH  10  11
ENDBRANCH   1  10
TORSDOF 4
ENDMDL
