MODEL 1
REMARK VINA RESULT:      -4.9      0.000      0.000
REMARK  Name = *****
REMARK  4 active torsions:
REMARK  status: ('A' for Active; 'I' for Inactive)
REMARK    1  A    between atoms: C_1  and  C_2
REMARK    2  A    between atoms: C_5  and  N_8
REMARK    3  A    between atoms: C_9  and  C_10
REMARK    4  A    between atoms: C_14  and  C_16
REMARK                            x       y       z     vdW  Elec       q    Type
REMARK                         _______ _______ _______ _____ _____    ______ ____
ROOT
ATOM      1  N   UNL     1     102.728 126.087  81.504  0.00  0.00    +0.000 NA
ATOM      2  C   UNL     1     101.876 125.965  82.472  0.00  0.00    +0.000 C 
ENDROOT
BRANCH   1   7
ATOM      3  C   UNL     1     106.469 121.806  80.925  0.00  0.00    +0.000 C 
ATOM      4  C   UNL     1     105.463 122.910  81.065  0.00  0.00    +0.000 A 
ATOM      5  C   UNL     1     105.217 123.783  80.000  0.00  0.00    +0.000 A 
ATOM      6  C   UNL     1     104.307 124.834  80.144  0.00  0.00    +0.000 A 
ATOM      7  C   UNL     1     103.633 125.026  81.352  0.00  0.00    +0.000 A 
ATOM      8  C   UNL     1     103.900 124.176  82.424  0.00  0.00    +0.000 A 
ATOM      9  C   UNL     1     104.810 123.123  82.285  0.00  0.00    +0.000 A 
ENDBRANCH   1   7
BRANCH   2  10
ATOM     10  C   UNL     1     100.860 126.999  82.755  0.00  0.00    +0.000 A 
ATOM     11  C   UNL     1      99.528 126.813  82.382  0.00  0.00    +0.000 A 
ATOM     12  C   UNL     1      98.586 127.800  82.667  0.00  0.00    +0.000 A 
ATOM     13  C   UNL     1      98.976 128.972  83.319  0.00  0.00    +0.000 A 
ATOM     14  C   UNL     1     100.314 129.174  83.683  0.00  0.00    +0.000 A 
ATOM     15  C   UNL     1     101.255 128.172  83.407  0.00  0.00    +0.000 A 
ATOM     16  C   UNL     1     100.721 130.418  84.417  0.00  0.00    +0.000 C 
ENDBRANCH   2  10
TORSDOF 2
ENDMDL
