MODEL 1
REMARK VINA RESULT:      -5.2      0.000      0.000
REMARK  Name = *****
REMARK  6 active torsions:
REMARK  status: ('A' for Active; 'I' for Inactive)
REMARK    1  A    between atoms: C_1  and  O_2
REMARK    2  A    between atoms: O_2  and  C_3
REMARK    3  A    between atoms: C_5  and  O_20
REMARK    4  A    between atoms: C_7  and  C_9
REMARK    5  A    between atoms: C_10  and  C_11
REMARK    6  A    between atoms: O_20  and  C_21
REMARK                            x       y       z     vdW  Elec       q    Type
REMARK                         _______ _______ _______ _____ _____    ______ ____
ROOT
ATOM      1  C   UNL     1     102.836 126.558  82.071  0.00  0.00    +0.000 C 
ATOM      2  C   UNL     1     102.848 125.550  81.182  0.00  0.00    +0.000 C 
ENDROOT
BRANCH   2   3
ATOM      3  C   UNL     1     104.072 124.931  80.654  0.00  0.00    +0.000 A 
ATOM      4  C   UNL     1     104.374 123.575  80.849  0.00  0.00    +0.000 A 
ATOM      5  C   UNL     1     105.535 123.028  80.301  0.00  0.00    +0.000 A 
ATOM      6  C   UNL     1     106.398 123.809  79.547  0.00  0.00    +0.000 A 
ATOM      7  C   UNL     1     106.097 125.145  79.335  0.00  0.00    +0.000 A 
ATOM      8  C   UNL     1     104.942 125.709  79.876  0.00  0.00    +0.000 A 
ATOM      9  F   UNL     1     106.916 125.913  78.602  0.00  0.00    +0.000 F 
ATOM     10  F   UNL     1     107.510 123.275  79.022  0.00  0.00    +0.000 F 
ATOM     11  F   UNL     1     105.805 121.732  80.507  0.00  0.00    +0.000 F 
ENDBRANCH   2   3
BRANCH   1  16
ATOM     12  C   UNL     1      99.177 127.165  82.744  0.00  0.00    +0.000 A 
ATOM     13  C   UNL     1      99.207 128.362  83.461  0.00  0.00    +0.000 A 
ATOM     14  C   UNL     1     100.430 128.984  83.731  0.00  0.00    +0.000 A 
ATOM     15  C   UNL     1     101.619 128.400  83.283  0.00  0.00    +0.000 A 
ATOM     16  C   UNL     1     101.609 127.189  82.581  0.00  0.00    +0.000 A 
ATOM     17  C   UNL     1     100.375 126.589  82.306  0.00  0.00    +0.000 A 
BRANCH  12  19
ATOM     18  C   UNL     1      97.220 126.016  83.466  0.00  0.00    +0.000 C 
ATOM     19  O   UNL     1      98.055 126.458  82.404  0.00  0.00    +0.000 OA
ENDBRANCH  12  19
BRANCH  14  20
ATOM     20  O   UNL     1     100.601 130.160  84.413  0.00  0.00    +0.000 OA
ATOM     21  C   UNL     1      99.691 131.214  84.127  0.00  0.00    +0.000 C 
ENDBRANCH  14  20
ENDBRANCH   1  16
TORSDOF 4
ENDMDL
