MODEL 1
REMARK VINA RESULT:      -5.1      0.000      0.000
REMARK  Name = *****
REMARK  2 active torsions:
REMARK  status: ('A' for Active; 'I' for Inactive)
REMARK    1  A    between atoms: C_4  and  C_8
REMARK    2  A    between atoms: N_9  and  C_10
REMARK                            x       y       z     vdW  Elec       q    Type
REMARK                         _______ _______ _______ _____ _____    ______ ____
ROOT
ATOM      1  C   UNL     1     102.784 125.895  82.532  0.00  0.00    +0.000 C 
ATOM      2  N   UNL     1     101.500 125.913  82.360  0.00  0.00    +0.000 NA
ENDROOT
BRANCH   1   6
ATOM      3  C   UNL     1     105.218 122.522  81.538  0.00  0.00    +0.000 A 
ATOM      4  C   UNL     1     104.828 122.764  82.854  0.00  0.00    +0.000 A 
ATOM      5  C   UNL     1     104.035 123.871  83.150  0.00  0.00    +0.000 A 
ATOM      6  C   UNL     1     103.622 124.749  82.148  0.00  0.00    +0.000 A 
ATOM      7  C   UNL     1     104.016 124.500  80.834  0.00  0.00    +0.000 A 
ATOM      8  C   UNL     1     104.810 123.393  80.527  0.00  0.00    +0.000 A 
ATOM      9  F   UNL     1     103.656 125.305  79.825  0.00  0.00    +0.000 F 
ATOM     10  F   UNL     1     103.680 124.078  84.427  0.00  0.00    +0.000 F 
ENDBRANCH   1   6
BRANCH   2  11
ATOM     11  C   UNL     1     100.800 127.058  82.782  0.00  0.00    +0.000 A 
ATOM     12  C   UNL     1      99.423 127.245  82.576  0.00  0.00    +0.000 A 
ATOM     13  C   UNL     1      98.779 128.410  82.981  0.00  0.00    +0.000 A 
ATOM     14  C   UNL     1      99.522 129.409  83.590  0.00  0.00    +0.000 A 
ATOM     15  C   UNL     1     100.891 129.264  83.794  0.00  0.00    +0.000 A 
ATOM     16  C   UNL     1     101.528 128.089  83.385  0.00  0.00    +0.000 A 
ATOM     17  F   UNL     1      98.915 130.536  83.984  0.00  0.00    +0.000 F 
ATOM     18  F   UNL     1      98.694 126.285  81.984  0.00  0.00    +0.000 F 
ENDBRANCH   2  11
TORSDOF 2
ENDMDL
