MODEL 1
REMARK VINA RESULT:      -4.4      0.000      0.000
REMARK  Name = *****
REMARK  4 active torsions:
REMARK  status: ('A' for Active; 'I' for Inactive)
REMARK    1  A    between atoms: C_1  and  C_2
REMARK    2  A    between atoms: C_2  and  C_3
REMARK    3  A    between atoms: C_2  and  S_9
REMARK    4  A    between atoms: S_9  and  C_10
REMARK                            x       y       z     vdW  Elec       q    Type
REMARK                         _______ _______ _______ _____ _____    ______ ____
ROOT
ATOM      1  C   UNL     1      88.157  71.702  84.639  0.00  0.00    +0.000 C 
ATOM      2  C   UNL     1      87.677  70.768  85.755  0.00  0.00    +0.000 C 
ENDROOT
BRANCH   2   3
ATOM      3  C   UNL     1      86.493  71.349  86.515  0.00  0.00    +0.000 A 
ATOM      4  C   UNL     1      86.431  71.335  87.918  0.00  0.00    +0.000 A 
ATOM      5  C   UNL     1      85.333  71.876  88.591  0.00  0.00    +0.000 A 
ATOM      6  C   UNL     1      84.279  72.435  87.872  0.00  0.00    +0.000 A 
ATOM      7  C   UNL     1      84.320  72.449  86.480  0.00  0.00    +0.000 A 
ATOM      8  C   UNL     1      85.418  71.909  85.806  0.00  0.00    +0.000 A 
ENDBRANCH   2   3
BRANCH   2   9
ATOM      9  S   UNL     1      89.049  70.377  86.922  0.00  0.00    +0.000 S 
BRANCH   9  10
ATOM     10  C   UNL     1      89.024  68.595  86.875  0.00  0.00    +0.000 A 
ATOM     11  C   UNL     1      87.925  67.911  87.405  0.00  0.00    +0.000 A 
ATOM     12  C   UNL     1      87.880  66.517  87.373  0.00  0.00    +0.000 A 
ATOM     13  C   UNL     1      88.930  65.799  86.802  0.00  0.00    +0.000 A 
ATOM     14  C   UNL     1      90.020  66.475  86.257  0.00  0.00    +0.000 A 
ATOM     15  C   UNL     1      90.065  67.870  86.289  0.00  0.00    +0.000 A 
ENDBRANCH   9  10
ENDBRANCH   2   9
TORSDOF 3
ENDMDL
