MODEL 1
REMARK VINA RESULT:      -4.1      0.000      0.000
REMARK  Name = *****
REMARK  6 active torsions:
REMARK  status: ('A' for Active; 'I' for Inactive)
REMARK    1  A    between atoms: C_1  and  C_2
REMARK    2  A    between atoms: C_4  and  C_17
REMARK    3  A    between atoms: C_6  and  O_8
REMARK    4  A    between atoms: O_8  and  C_9
REMARK    5  A    between atoms: C_9  and  C_11
REMARK    6  A    between atoms: C_11  and  C_12
REMARK                            x       y       z     vdW  Elec       q    Type
REMARK                         _______ _______ _______ _____ _____    ______ ____
ROOT
ATOM      1  O   UNL     1      89.022  69.708  85.879  0.00  0.00    +0.000 OA
ENDROOT
BRANCH   1   7
ATOM      2  C   UNL     1      88.459  71.207  90.553  0.00  0.00    +0.000 C 
ATOM      3  C   UNL     1      87.949  71.053  89.151  0.00  0.00    +0.000 A 
ATOM      4  C   UNL     1      86.699  71.579  88.788  0.00  0.00    +0.000 A 
ATOM      5  C   UNL     1      86.218  71.465  87.474  0.00  0.00    +0.000 A 
ATOM      6  C   UNL     1      87.020  70.852  86.506  0.00  0.00    +0.000 A 
ATOM      7  C   UNL     1      88.275  70.362  86.862  0.00  0.00    +0.000 A 
ATOM      8  C   UNL     1      88.740  70.441  88.173  0.00  0.00    +0.000 A 
ATOM      9  C   UNL     1      84.889  72.050  87.100  0.00  0.00    +0.000 C 
ENDBRANCH   1   7
BRANCH   1  10
ATOM     10  C   UNL     1      89.320  68.378  86.162  0.00  0.00    +0.000 C 
ATOM     11  O   UNL     1      90.382  67.939  86.588  0.00  0.00    +0.000 OA
BRANCH  10  12
ATOM     12  C   UNL     1      88.116  67.522  85.846  0.00  0.00    +0.000 C 
BRANCH  12  13
ATOM     13  C   UNL     1      87.662  66.813  87.081  0.00  0.00    +0.000 A 
ATOM     14  C   UNL     1      86.791  67.265  88.053  0.00  0.00    +0.000 A 
ATOM     15  C   UNL     1      86.592  66.306  89.089  0.00  0.00    +0.000 A 
ATOM     16  C   UNL     1      87.316  65.156  88.872  0.00  0.00    +0.000 A 
ATOM     17  S   UNL     1      88.229  65.234  87.429  0.00  0.00    +0.000 S 
ENDBRANCH  12  13
ENDBRANCH  10  12
ENDBRANCH   1  10
TORSDOF 4
ENDMDL
