MODEL 1
REMARK VINA RESULT:      -4.2      0.000      0.000
REMARK  Name = *****
REMARK  3 active torsions:
REMARK  status: ('A' for Active; 'I' for Inactive)
REMARK    1  A    between atoms: C_5  and  N_7
REMARK    2  A    between atoms: N_7  and  N_8
REMARK    3  A    between atoms: N_8  and  C_10
REMARK                            x       y       z     vdW  Elec       q    Type
REMARK                         _______ _______ _______ _____ _____    ______ ____
ROOT
ATOM      1  N   UNL     1      88.281  65.975  86.525  0.00  0.00    +0.000 NA
ATOM      2  O   UNL     1      86.966  65.989  86.008  0.00  0.00    +0.000 OA
ENDROOT
BRANCH   1   7
ATOM      3  C   UNL     1      86.685  65.313  90.034  0.00  0.00    +0.000 C 
ATOM      4  C   UNL     1      87.139  63.878  90.255  0.00  0.00    +0.000 C 
ATOM      5  C   UNL     1      88.502  63.618  89.619  0.00  0.00    +0.000 C 
ATOM      6  C   UNL     1      88.556  64.016  88.137  0.00  0.00    +0.000 C 
ATOM      7  C   UNL     1      88.158  65.518  87.949  0.00  0.00    +0.000 C 
ATOM      8  C   UNL     1      86.738  65.729  88.562  0.00  0.00    +0.000 C 
ATOM      9 CL   UNL     1      87.518  62.874  87.192  0.00  0.00    +0.000 Cl
ENDBRANCH   1   7
BRANCH   1  10
ATOM     10  N   UNL     1      88.930  67.296  86.322  0.00  0.00    +0.000 NA
ATOM     11  O   UNL     1      90.124  67.398  86.585  0.00  0.00    +0.000 OA
BRANCH  10  12
ATOM     12  C   UNL     1      88.255  68.498  85.750  0.00  0.00    +0.000 C 
ATOM     13  C   UNL     1      88.831  68.940  84.401  0.00  0.00    +0.000 C 
ATOM     14  C   UNL     1      90.052  69.865  84.469  0.00  0.00    +0.000 C 
ATOM     15  C   UNL     1      89.914  70.973  85.505  0.00  0.00    +0.000 C 
ATOM     16  C   UNL     1      89.523  70.420  86.874  0.00  0.00    +0.000 C 
ATOM     17  C   UNL     1      88.216  69.638  86.767  0.00  0.00    +0.000 C 
ATOM     18 CL   UNL     1      87.603  69.185  88.385  0.00  0.00    +0.000 Cl
ENDBRANCH  10  12
ENDBRANCH   1  10
TORSDOF 3
ENDMDL
