MODEL 1
REMARK VINA RESULT:      -4.4      0.000      0.000
REMARK  Name = *****
REMARK  5 active torsions:
REMARK  status: ('A' for Active; 'I' for Inactive)
REMARK    1  A    between atoms: C_1  and  C_2
REMARK    2  A    between atoms: C_2  and  C_3
REMARK    3  A    between atoms: C_2  and  O_10
REMARK    4  A    between atoms: O_10  and  C_11
REMARK    5  A    between atoms: C_11  and  C_13
REMARK                            x       y       z     vdW  Elec       q    Type
REMARK                         _______ _______ _______ _____ _____    ______ ____
ROOT
ATOM      1  C   UNL     1      90.061  67.000  85.038  0.00  0.00    +0.000 C 
ATOM      2  C   UNL     1      89.125  67.735  85.997  0.00  0.00    +0.000 C 
ENDROOT
BRANCH   2   3
ATOM      3  C   UNL     1      88.506  66.776  86.999  0.00  0.00    +0.000 A 
ATOM      4  C   UNL     1      89.008  65.474  87.167  0.00  0.00    +0.000 A 
ATOM      5  C   UNL     1      88.426  64.599  88.087  0.00  0.00    +0.000 A 
ATOM      6  C   UNL     1      87.337  65.019  88.847  0.00  0.00    +0.000 A 
ATOM      7  C   UNL     1      86.825  66.305  88.694  0.00  0.00    +0.000 A 
ATOM      8  C   UNL     1      87.407  67.180  87.773  0.00  0.00    +0.000 A 
ATOM      9 CL   UNL     1      86.620  63.942  89.981  0.00  0.00    +0.000 Cl
ENDBRANCH   2   3
BRANCH   2  10
ATOM     10  O   UNL     1      89.862  68.723  86.742  0.00  0.00    +0.000 OA
BRANCH  10  11
ATOM     11  C   UNL     1      89.583  70.014  86.443  0.00  0.00    +0.000 C 
ATOM     12  O   UNL     1      90.152  70.695  85.606  0.00  0.00    +0.000 OA
BRANCH  11  13
ATOM     13  C   UNL     1      88.471  70.516  87.296  0.00  0.00    +0.000 A 
ATOM     14  C   UNL     1      87.280  70.907  86.668  0.00  0.00    +0.000 A 
ATOM     15  C   UNL     1      86.208  71.383  87.424  0.00  0.00    +0.000 A 
ATOM     16  C   UNL     1      86.318  71.469  88.812  0.00  0.00    +0.000 A 
ATOM     17  C   UNL     1      87.497  71.079  89.445  0.00  0.00    +0.000 A 
ATOM     18  C   UNL     1      88.573  70.603  88.691  0.00  0.00    +0.000 A 
ENDBRANCH  11  13
ENDBRANCH  10  11
ENDBRANCH   2  10
TORSDOF 4
ENDMDL
