MODEL 1
REMARK VINA RESULT:      -4.5      0.000      0.000
REMARK  Name = *****
REMARK  2 active torsions:
REMARK  status: ('A' for Active; 'I' for Inactive)
REMARK    1  A    between atoms: C_1  and  C_2
REMARK    2  A    between atoms: C_3  and  C_12
REMARK                            x       y       z     vdW  Elec       q    Type
REMARK                         _______ _______ _______ _____ _____    ______ ____
ROOT
ATOM      1  C   UNL     1      88.557  71.191  89.882  0.00  0.00    +0.000 C 
ATOM      2  C   UNL     1      87.750  71.027  88.586  0.00  0.00    +0.000 C 
ATOM      3  C   UNL     1      86.232  71.011  88.888  0.00  0.00    +0.000 C 
ATOM      4  O   UNL     1      85.902  69.818  89.615  0.00  0.00    +0.000 OA
ATOM      5  C   UNL     1      86.137  68.604  88.894  0.00  0.00    +0.000 C 
ATOM      6  C   UNL     1      87.411  68.580  88.082  0.00  0.00    +0.000 A 
ATOM      7  C   UNL     1      87.815  67.390  87.461  0.00  0.00    +0.000 A 
ATOM      8  C   UNL     1      88.967  67.359  86.674  0.00  0.00    +0.000 A 
ATOM      9  C   UNL     1      89.722  68.515  86.498  0.00  0.00    +0.000 A 
ATOM     10  C   UNL     1      89.328  69.706  87.107  0.00  0.00    +0.000 A 
ATOM     11  C   UNL     1      88.171  69.747  87.898  0.00  0.00    +0.000 A 
ENDROOT
BRANCH   3  12
ATOM     12  C   UNL     1      85.327  71.205  87.653  0.00  0.00    +0.000 C 
ATOM     13  C   UNL     1      86.078  71.587  86.377  0.00  0.00    +0.000 C 
ATOM     14  C   UNL     1      85.035  72.258  85.486  0.00  0.00    +0.000 C 
ATOM     15  C   UNL     1      83.861  72.621  86.392  0.00  0.00    +0.000 C 
ATOM     16  C   UNL     1      84.347  72.370  87.813  0.00  0.00    +0.000 C 
ENDBRANCH   3  12
TORSDOF 1
ENDMDL
