MODEL 1
REMARK VINA RESULT:      -4.4      0.000      0.000
REMARK  Name = *****
REMARK  3 active torsions:
REMARK  status: ('A' for Active; 'I' for Inactive)
REMARK    1  A    between atoms: C_4  and  S_7
REMARK    2  A    between atoms: S_7  and  C_9
REMARK    3  A    between atoms: C_9  and  C_10
REMARK                            x       y       z     vdW  Elec       q    Type
REMARK                         _______ _______ _______ _____ _____    ______ ____
ROOT
ATOM      1  S   UNL     1      87.893  70.726  85.254  0.00  0.00    +0.000 S 
ATOM      2  O   UNL     1      88.598  71.923  84.680  0.00  0.00    +0.000 OA
ENDROOT
BRANCH   1   6
ATOM      3  C   UNL     1      84.321  72.397  87.637  0.00  0.00    +0.000 A 
ATOM      4  C   UNL     1      84.319  72.471  86.244  0.00  0.00    +0.000 A 
ATOM      5  C   UNL     1      85.398  71.964  85.516  0.00  0.00    +0.000 A 
ATOM      6  C   UNL     1      86.486  71.387  86.179  0.00  0.00    +0.000 A 
ATOM      7  C   UNL     1      86.476  71.305  87.576  0.00  0.00    +0.000 A 
ATOM      8  C   UNL     1      85.398  71.813  88.303  0.00  0.00    +0.000 A 
ENDBRANCH   1   6
BRANCH   1   9
ATOM      9  C   UNL     1      88.854  70.161  86.701  0.00  0.00    +0.000 C 
BRANCH   9  10
ATOM     10  C   UNL     1      88.900  68.656  86.790  0.00  0.00    +0.000 A 
ATOM     11  C   UNL     1      89.982  67.947  86.243  0.00  0.00    +0.000 A 
ATOM     12  C   UNL     1      90.025  66.552  86.314  0.00  0.00    +0.000 A 
ATOM     13  C   UNL     1      88.986  65.858  86.929  0.00  0.00    +0.000 A 
ATOM     14  C   UNL     1      87.903  66.546  87.470  0.00  0.00    +0.000 A 
ATOM     15  C   UNL     1      87.858  67.941  87.400  0.00  0.00    +0.000 A 
ATOM     16 CL   UNL     1      89.039  64.141  87.017  0.00  0.00    +0.000 Cl
ENDBRANCH   9  10
ENDBRANCH   1   9
TORSDOF 3
ENDMDL
