REMARK  Name = *****
REMARK  4 active torsions:
REMARK  status: ('A' for Active; 'I' for Inactive)
REMARK    1  A    between atoms: C_6  and  C_7
REMARK    2  A    between atoms: C_7  and  N_8
REMARK    3  A    between atoms: N_8  and  C_9
REMARK    4  A    between atoms: C_9  and  C_10
REMARK                            x       y       z     vdW  Elec       q    Type
REMARK                         _______ _______ _______ _____ _____    ______ ____
ROOT
ATOM      1  N   UNL     1       4.295   1.588   0.234  0.00  0.00    +0.000 NA
ENDROOT
BRANCH   1   2
ATOM      2  C   UNL     1       3.883   0.188   0.093  0.00  0.00    +0.000 C 
BRANCH   2   8
ATOM      3  C   UNL     1       1.687  -0.746   0.946  0.00  0.00    +0.000 A 
ATOM      4  C   UNL     1       0.296  -0.867   0.872  0.00  0.00    +0.000 A 
ATOM      5  C   UNL     1      -0.408  -0.181  -0.115  0.00  0.00    +0.000 A 
ATOM      6  C   UNL     1       0.264   0.626  -1.029  0.00  0.00    +0.000 A 
ATOM      7  C   UNL     1       1.653   0.747  -0.954  0.00  0.00    +0.000 A 
ATOM      8  C   UNL     1       2.378   0.064   0.035  0.00  0.00    +0.000 A 
ATOM      9 CL   UNL     1      -2.120  -0.332  -0.204  0.00  0.00    +0.000 Cl
ENDBRANCH   2   8
ENDBRANCH   1   2
BRANCH   1  10
ATOM     10  C   UNL     1       5.476   1.842  -0.214  0.00  0.00    +0.000 C 
BRANCH  10  11
ATOM     11  C   UNL     1       6.047   3.202  -0.162  0.00  0.00    +0.000 A 
ATOM     12  C   UNL     1       5.333   4.255   0.421  0.00  0.00    +0.000 A 
ATOM     13  C   UNL     1       5.889   5.536   0.459  0.00  0.00    +0.000 A 
ATOM     14  C   UNL     1       7.153   5.758  -0.086  0.00  0.00    +0.000 A 
ATOM     15  C   UNL     1       7.868   4.710  -0.668  0.00  0.00    +0.000 A 
ATOM     16  C   UNL     1       7.315   3.426  -0.707  0.00  0.00    +0.000 A 
ATOM     17 CL   UNL     1       7.838   7.335  -0.041  0.00  0.00    +0.000 Cl
ENDBRANCH  10  11
ENDBRANCH   1  10
TORSDOF 4
