REMARK  Name = *****
REMARK  3 active torsions:
REMARK  status: ('A' for Active; 'I' for Inactive)
REMARK    1  A    between atoms: C_1  and  C_2
REMARK    2  A    between atoms: C_2  and  C_10
REMARK    3  A    between atoms: N_3  and  C_4
REMARK                            x       y       z     vdW  Elec       q    Type
REMARK                         _______ _______ _______ _____ _____    ______ ____
ROOT
ATOM      1  C   UNL     1       0.980  -0.329  -0.165  0.00  0.00    +0.000 C 
ATOM      2  C   UNL     1       2.430   0.045   0.043  0.00  0.00    +0.000 C 
ATOM      3  N   UNL     1       3.020   1.032  -0.539  0.00  0.00    +0.000 NA
ENDROOT
BRANCH   3   4
ATOM      4  C   UNL     1       2.302   1.922  -1.450  0.00  0.00    +0.000 C 
ATOM      5  C   UNL     1       3.271   2.319  -2.572  0.00  0.00    +0.000 C 
ATOM      6  C   UNL     1       2.657   3.361  -3.503  0.00  0.00    +0.000 C 
ATOM      7  C   UNL     1       2.176   4.587  -2.733  0.00  0.00    +0.000 C 
ATOM      8  C   UNL     1       1.224   4.206  -1.604  0.00  0.00    +0.000 C 
ATOM      9  C   UNL     1       1.840   3.162  -0.676  0.00  0.00    +0.000 C 
ENDBRANCH   3   4
BRANCH   2  10
ATOM     10  C   UNL     1       3.265  -0.880   0.932  0.00  0.00    +0.000 C 
ATOM     11  C   UNL     1       4.270  -0.103   1.791  0.00  0.00    +0.000 C 
ATOM     12  C   UNL     1       5.128  -1.045   2.633  0.00  0.00    +0.000 C 
ATOM     13  C   UNL     1       5.832  -2.085   1.765  0.00  0.00    +0.000 C 
ATOM     14  C   UNL     1       4.842  -2.859   0.898  0.00  0.00    +0.000 C 
ATOM     15  C   UNL     1       3.972  -1.925   0.061  0.00  0.00    +0.000 C 
ENDBRANCH   2  10
TORSDOF 2
