MODEL 1
REMARK VINA RESULT:      -3.8      0.000      0.000
REMARK  Name = *****
REMARK  3 active torsions:
REMARK  status: ('A' for Active; 'I' for Inactive)
REMARK    1  A    between atoms: C_4  and  S_6
REMARK    2  A    between atoms: S_6  and  S_7
REMARK    3  A    between atoms: S_7  and  C_10
REMARK                            x       y       z     vdW  Elec       q    Type
REMARK                         _______ _______ _______ _____ _____    ______ ____
ROOT
ATOM      1  S   UNL     1      89.933  66.251  85.730  0.00  0.00    +0.000 S 
ATOM      2  O   UNL     1      90.591  65.102  85.149  0.00  0.00    +0.000 OA
ATOM      3  O   UNL     1      90.660  67.215  86.532  0.00  0.00    +0.000 OA
ENDROOT
BRANCH   1   4
ATOM      4  C   UNL     1      88.789  65.569  86.831  0.00  0.00    +0.000 A 
ATOM      5  C   UNL     1      87.905  66.291  87.594  0.00  0.00    +0.000 A 
ATOM      6  S   UNL     1      86.916  65.309  88.569  0.00  0.00    +0.000 S 
ATOM      7  C   UNL     1      87.654  63.909  87.972  0.00  0.00    +0.000 A 
ATOM      8  C   UNL     1      88.639  64.160  87.051  0.00  0.00    +0.000 A 
ATOM      9 CL   UNL     1      87.146  62.369  88.533  0.00  0.00    +0.000 Cl
ATOM     10 CL   UNL     1      87.686  67.995  87.687  0.00  0.00    +0.000 Cl
ENDBRANCH   1   4
BRANCH   1  11
ATOM     11  S   UNL     1      88.879  67.282  84.265  0.00  0.00    +0.000 S 
BRANCH  11  15
ATOM     12  C   UNL     1      90.303  70.978  84.645  0.00  0.00    +0.000 A 
ATOM     13  C   UNL     1      90.880  70.494  83.498  0.00  0.00    +0.000 A 
ATOM     14  O   UNL     1      90.464  69.227  83.259  0.00  0.00    +0.000 OA
ATOM     15  C   UNL     1      89.603  68.867  84.265  0.00  0.00    +0.000 A 
ATOM     16  C   UNL     1      89.482  69.934  85.138  0.00  0.00    +0.000 A 
ENDBRANCH  11  15
ENDBRANCH   1  11
TORSDOF 3
ENDMDL
