MODEL 1
REMARK VINA RESULT:      -4.5      0.000      0.000
REMARK  Name = *****
REMARK  4 active torsions:
REMARK  status: ('A' for Active; 'I' for Inactive)
REMARK    1  A    between atoms: C_4  and  C_7
REMARK    2  A    between atoms: C_7  and  O_8
REMARK    3  A    between atoms: O_8  and  C_9
REMARK    4  A    between atoms: C_9  and  C_11
REMARK                            x       y       z     vdW  Elec       q    Type
REMARK                         _______ _______ _______ _____ _____    ______ ____
ROOT
ATOM      1  C   UNL     1     104.616 124.469  80.095  0.00  0.00    +0.000 C 
ATOM      2  O   UNL     1     105.579 124.698  79.380  0.00  0.00    +0.000 OA
ENDROOT
BRANCH   1   3
ATOM      3  C   UNL     1     104.584 123.365  81.094  0.00  0.00    +0.000 A 
ATOM      4  C   UNL     1     104.441 123.599  82.472  0.00  0.00    +0.000 A 
ATOM      5  C   UNL     1     104.420 122.526  83.366  0.00  0.00    +0.000 A 
ATOM      6  C   UNL     1     104.540 121.227  82.886  0.00  0.00    +0.000 A 
ATOM      7  C   UNL     1     104.681 120.977  81.525  0.00  0.00    +0.000 A 
ATOM      8  C   UNL     1     104.703 122.046  80.627  0.00  0.00    +0.000 A 
ATOM      9  F   UNL     1     104.519 120.201  83.746  0.00  0.00    +0.000 F 
ENDBRANCH   1   3
BRANCH   1  10
ATOM     10  O   UNL     1     103.448 125.153  80.112  0.00  0.00    +0.000 OA
BRANCH  10  11
ATOM     11  C   UNL     1     103.561 126.565  80.328  0.00  0.00    +0.000 C 
BRANCH  11  15
ATOM     12  C   UNL     1     101.423 127.647  83.911  0.00  0.00    +0.000 A 
ATOM     13  C   UNL     1     102.454 128.459  83.443  0.00  0.00    +0.000 A 
ATOM     14  C   UNL     1     103.144 128.111  82.281  0.00  0.00    +0.000 A 
ATOM     15  C   UNL     1     102.806 126.949  81.574  0.00  0.00    +0.000 A 
ATOM     16  C   UNL     1     101.777 126.133  82.061  0.00  0.00    +0.000 A 
ATOM     17  C   UNL     1     101.085 126.483  83.222  0.00  0.00    +0.000 A 
ENDBRANCH  11  15
ENDBRANCH  10  11
ENDBRANCH   1  10
TORSDOF 4
ENDMDL
