MODEL 1
REMARK VINA RESULT:      -3.8      0.000      0.000
REMARK  Name = *****
REMARK  3 active torsions:
REMARK  status: ('A' for Active; 'I' for Inactive)
REMARK    1  A    between atoms: C_4  and  S_7
REMARK    2  A    between atoms: S_7  and  C_8
REMARK    3  A    between atoms: C_9  and  C_10
REMARK                            x       y       z     vdW  Elec       q    Type
REMARK                         _______ _______ _______ _____ _____    ______ ____
ROOT
ATOM      1  S   UNL     1     103.085 127.797  83.574  0.00  0.00    +0.000 S 
ENDROOT
BRANCH   1   5
ATOM      2  C   UNL     1      98.586 127.838  82.712  0.00  0.00    +0.000 A 
ATOM      3  C   UNL     1      99.181 128.920  83.359  0.00  0.00    +0.000 A 
ATOM      4  C   UNL     1     100.551 128.908  83.623  0.00  0.00    +0.000 A 
ATOM      5  C   UNL     1     101.333 127.811  83.243  0.00  0.00    +0.000 A 
ATOM      6  C   UNL     1     100.733 126.733  82.587  0.00  0.00    +0.000 A 
ATOM      7  C   UNL     1      99.361 126.746  82.324  0.00  0.00    +0.000 A 
ENDBRANCH   1   5
BRANCH   1   8
ATOM      8  C   UNL     1     103.650 128.545  82.117  0.00  0.00    +0.000 C 
ATOM      9  C   UNL     1     104.193 127.929  81.055  0.00  0.00    +0.000 C 
BRANCH   9  10
ATOM     10  C   UNL     1     104.445 126.533  80.920  0.00  0.00    +0.000 A 
ATOM     11  C   UNL     1     103.649 125.504  80.442  0.00  0.00    +0.000 A 
ATOM     12  C   UNL     1     104.285 124.229  80.493  0.00  0.00    +0.000 A 
ATOM     13  C   UNL     1     105.548 124.308  81.029  0.00  0.00    +0.000 A 
ATOM     14  S   UNL     1     105.954 125.905  81.477  0.00  0.00    +0.000 S 
ENDBRANCH   9  10
ENDBRANCH   1   8
TORSDOF 3
ENDMDL
