REMARK  Name = *****
REMARK  4 active torsions:
REMARK  status: ('A' for Active; 'I' for Inactive)
REMARK    1  A    between atoms: C_4  and  C_7
REMARK    2  A    between atoms: C_7  and  O_9
REMARK    3  A    between atoms: O_9  and  C_10
REMARK    4  A    between atoms: C_10  and  C_11
REMARK                            x       y       z     vdW  Elec       q    Type
REMARK                         _______ _______ _______ _____ _____    ______ ____
ROOT
ATOM      1  O   UNL     1      -3.464  -0.195  -0.825  0.00  0.00    +0.000 OA
ENDROOT
BRANCH   1   2
ATOM      2  C   UNL     1      -2.818   0.709  -0.050  0.00  0.00    +0.000 C 
ATOM      3  O   UNL     1      -3.310   1.721   0.426  0.00  0.00    +0.000 OA
BRANCH   2   7
ATOM      4  C   UNL     1       1.292  -0.345   0.561  0.00  0.00    +0.000 A 
ATOM      5  C   UNL     1       0.455  -1.231  -0.116  0.00  0.00    +0.000 A 
ATOM      6  C   UNL     1      -0.887  -0.906  -0.326  0.00  0.00    +0.000 A 
ATOM      7  C   UNL     1      -1.398   0.312   0.143  0.00  0.00    +0.000 A 
ATOM      8  C   UNL     1      -0.550   1.196   0.825  0.00  0.00    +0.000 A 
ATOM      9  C   UNL     1       0.791   0.868   1.032  0.00  0.00    +0.000 A 
ENDBRANCH   2   7
ENDBRANCH   1   2
BRANCH   1  10
ATOM     10  C   UNL     1      -4.836   0.126  -1.065  0.00  0.00    +0.000 C 
BRANCH  10  11
ATOM     11  C   UNL     1      -5.393  -0.913  -2.007  0.00  0.00    +0.000 A 
ATOM     12  C   UNL     1      -5.952  -2.111  -1.524  0.00  0.00    +0.000 A 
ATOM     13  C   UNL     1      -6.453  -3.082  -2.400  0.00  0.00    +0.000 A 
ATOM     14  C   UNL     1      -6.394  -2.884  -3.776  0.00  0.00    +0.000 A 
ATOM     15  C   UNL     1      -5.823  -1.718  -4.276  0.00  0.00    +0.000 A 
ATOM     16  C   UNL     1      -5.321  -0.746  -3.402  0.00  0.00    +0.000 A 
ATOM     17 CL   UNL     1      -4.599   0.651  -4.126  0.00  0.00    +0.000 Cl
ATOM     18 CL   UNL     1      -6.042  -2.469   0.167  0.00  0.00    +0.000 Cl
ENDBRANCH  10  11
ENDBRANCH   1  10
TORSDOF 4
