MODEL 1
REMARK VINA RESULT:      -4.2      0.000      0.000
REMARK  Name = *****
REMARK  5 active torsions:
REMARK  status: ('A' for Active; 'I' for Inactive)
REMARK    1  A    between atoms: C_1  and  O_2
REMARK    2  A    between atoms: O_2  and  C_3
REMARK    3  A    between atoms: C_3  and  C_5
REMARK    4  A    between atoms: C_10  and  C_11
REMARK    5  A    between atoms: C_12  and  C_13
REMARK                            x       y       z     vdW  Elec       q    Type
REMARK                         _______ _______ _______ _____ _____    ______ ____
ROOT
ATOM      1  C   UNL     1      99.632 128.560  83.667  0.00  0.00    +0.000 A 
ATOM      2  C   UNL     1      98.931 129.630  84.249  0.00  0.00    +0.000 A 
ATOM      3  C   UNL     1      99.618 130.743  84.733  0.00  0.00    +0.000 A 
ATOM      4  C   UNL     1     101.006 130.797  84.638  0.00  0.00    +0.000 A 
ATOM      5  C   UNL     1     101.710 129.738  84.059  0.00  0.00    +0.000 A 
ATOM      6  C   UNL     1     101.031 128.613  83.570  0.00  0.00    +0.000 A 
ENDROOT
BRANCH   1   7
ATOM      7  C   UNL     1      98.868 127.407  83.134  0.00  0.00    +0.000 C 
ATOM      8  O   UNL     1      98.467 127.304  81.988  0.00  0.00    +0.000 OA
BRANCH   7  10
ATOM      9  C   UNL     1      97.346 126.084  84.308  0.00  0.00    +0.000 C 
ATOM     10  O   UNL     1      98.702 126.495  84.128  0.00  0.00    +0.000 OA
ENDBRANCH   7  10
ENDBRANCH   1   7
BRANCH   6  11
ATOM     11  C   UNL     1     101.810 127.544  83.019  0.00  0.00    +0.000 C 
ATOM     12  C   UNL     1     102.458 126.644  82.557  0.00  0.00    +0.000 C 
BRANCH  12  13
ATOM     13  C   UNL     1     103.227 125.579  82.002  0.00  0.00    +0.000 A 
ATOM     14  C   UNL     1     103.501 125.419  80.661  0.00  0.00    +0.000 A 
ATOM     15  C   UNL     1     104.292 124.260  80.406  0.00  0.00    +0.000 A 
ATOM     16  C   UNL     1     104.593 123.578  81.565  0.00  0.00    +0.000 A 
ATOM     17  S   UNL     1     103.926 124.337  82.946  0.00  0.00    +0.000 S 
ENDBRANCH  12  13
ENDBRANCH   6  11
TORSDOF 4
ENDMDL
