MODEL 1
REMARK VINA RESULT:      -5.1      0.000      0.000
REMARK  Name = *****
REMARK  3 active torsions:
REMARK  status: ('A' for Active; 'I' for Inactive)
REMARK    1  A    between atoms: C_1  and  C_2
REMARK    2  A    between atoms: C_4  and  C_8
REMARK    3  A    between atoms: C_15  and  C_17
REMARK                            x       y       z     vdW  Elec       q    Type
REMARK                         _______ _______ _______ _____ _____    ______ ____
ROOT
ATOM      1  C   UNL     1     102.412 126.148  82.408  0.00  0.00    +0.000 A 
ATOM      2  N   UNL     1     102.673 127.287  83.028  0.00  0.00    +0.000 NA
ATOM      3  C   UNL     1     101.445 127.886  83.143  0.00  0.00    +0.000 A 
ATOM      4  C   UNL     1     100.472 127.076  82.587  0.00  0.00    +0.000 A 
ATOM      5  O   UNL     1     101.084 125.955  82.111  0.00  0.00    +0.000 OA
ATOM      6  C   UNL     1      99.118 127.380  82.545  0.00  0.00    +0.000 A 
ATOM      7  C   UNL     1      98.753 128.608  83.111  0.00  0.00    +0.000 A 
ATOM      8  C   UNL     1      99.706 129.477  83.675  0.00  0.00    +0.000 A 
ATOM      9  C   UNL     1     101.066 129.112  83.706  0.00  0.00    +0.000 A 
ATOM     10  C   UNL     1      99.270 130.772  84.300  0.00  0.00    +0.000 C 
ENDROOT
BRANCH   1  14
ATOM     11  C   UNL     1     105.147 122.060  83.475  0.00  0.00    +0.000 C 
ATOM     12  C   UNL     1     104.667 123.099  82.505  0.00  0.00    +0.000 A 
ATOM     13  C   UNL     1     103.784 124.111  82.910  0.00  0.00    +0.000 A 
ATOM     14  C   UNL     1     103.335 125.089  82.007  0.00  0.00    +0.000 A 
ATOM     15  C   UNL     1     103.794 125.036  80.683  0.00  0.00    +0.000 A 
ATOM     16  C   UNL     1     104.676 124.036  80.269  0.00  0.00    +0.000 A 
ATOM     17  C   UNL     1     105.111 123.072  81.179  0.00  0.00    +0.000 A 
ENDBRANCH   1  14
TORSDOF 1
ENDMDL
