MODEL 1
REMARK VINA RESULT:      -4.4      0.000      0.000
REMARK  Name = *****
REMARK  4 active torsions:
REMARK  status: ('A' for Active; 'I' for Inactive)
REMARK    1  A    between atoms: N_2  and  C_3
REMARK    2  A    between atoms: C_3  and  C_9
REMARK    3  A    between atoms: C_9  and  C_10
REMARK    4  A    between atoms: C_11  and  C_12
REMARK                            x       y       z     vdW  Elec       q    Type
REMARK                         _______ _______ _______ _____ _____    ______ ____
ROOT
ATOM      1  C   UNL     1      88.744  64.753  87.511  0.00  0.00    +0.000 C 
ENDROOT
BRANCH   1   2
ATOM      2  C   UNL     1      87.769  64.412  88.672  0.00  0.00    +0.000 C 
ATOM      3  C   UNL     1      88.601  64.138  89.948  0.00  0.00    +0.000 C 
ATOM      4  C   UNL     1      87.740  63.945  91.196  0.00  0.00    +0.000 C 
ATOM      5  C   UNL     1      86.791  65.116  91.411  0.00  0.00    +0.000 C 
ATOM      6  C   UNL     1      85.925  65.363  90.182  0.00  0.00    +0.000 C 
ATOM      7  C   UNL     1      86.770  65.563  88.922  0.00  0.00    +0.000 C 
BRANCH   2   9
ATOM      8  C   UNL     1      86.445  62.239  88.046  0.00  0.00    +0.000 C 
ATOM      9  N   UNL     1      87.042  63.209  88.326  0.00  0.00    +0.000 NA
ENDBRANCH   2   9
ENDBRANCH   1   2
BRANCH   1  10
ATOM     10  C   UNL     1      88.722  66.195  87.069  0.00  0.00    +0.000 C 
ATOM     11  C   UNL     1      89.765  66.813  86.493  0.00  0.00    +0.000 C 
BRANCH  11  12
ATOM     12  C   UNL     1      89.754  68.217  86.058  0.00  0.00    +0.000 A 
ATOM     13  C   UNL     1      89.599  69.280  86.958  0.00  0.00    +0.000 A 
ATOM     14  C   UNL     1      89.629  70.603  86.510  0.00  0.00    +0.000 A 
ATOM     15  C   UNL     1      89.825  70.878  85.158  0.00  0.00    +0.000 A 
ATOM     16  C   UNL     1      89.996  69.832  84.256  0.00  0.00    +0.000 A 
ATOM     17  C   UNL     1      89.967  68.509  84.704  0.00  0.00    +0.000 A 
ENDBRANCH  11  12
ENDBRANCH   1  10
TORSDOF 4
ENDMDL
