REMARK  Name = *****
REMARK  6 active torsions:
REMARK  status: ('A' for Active; 'I' for Inactive)
REMARK    1  A    between atoms: C_1  and  C_2
REMARK    2  A    between atoms: C_2  and  O_4
REMARK    3  A    between atoms: O_4  and  C_5
REMARK    4  A    between atoms: C_5  and  C_6
REMARK    5  A    between atoms: C_5  and  C_13
REMARK    6  A    between atoms: C_6  and  C_7
REMARK                            x       y       z     vdW  Elec       q    Type
REMARK                         _______ _______ _______ _____ _____    ______ ____
ROOT
ATOM      1  C   UNL     1       4.533  -0.912  -0.828  0.00  0.00    +0.000 C 
ENDROOT
BRANCH   1   2
ATOM      2  C   UNL     1       5.140  -1.662  -2.007  0.00  0.00    +0.000 A 
ATOM      3  C   UNL     1       4.369  -2.413  -2.909  0.00  0.00    +0.000 A 
ATOM      4  C   UNL     1       4.975  -3.095  -3.968  0.00  0.00    +0.000 A 
ATOM      5  C   UNL     1       6.353  -3.036  -4.126  0.00  0.00    +0.000 A 
ATOM      6  C   UNL     1       7.141  -2.313  -3.241  0.00  0.00    +0.000 A 
ATOM      7  C   UNL     1       6.537  -1.631  -2.183  0.00  0.00    +0.000 A 
ATOM      8  F   UNL     1       6.931  -3.693  -5.140  0.00  0.00    +0.000 F 
ENDBRANCH   1   2
BRANCH   1   9
ATOM      9  O   UNL     1       4.845  -1.604   0.405  0.00  0.00    +0.000 OA
BRANCH   9  11
ATOM     10  C   UNL     1       4.713  -3.302   2.002  0.00  0.00    +0.000 C 
ATOM     11  C   UNL     1       4.211  -2.768   0.695  0.00  0.00    +0.000 C 
ATOM     12  O   UNL     1       3.347  -3.310   0.022  0.00  0.00    +0.000 OA
ENDBRANCH   9  11
ENDBRANCH   1   9
BRANCH   1  13
ATOM     13  C   UNL     1       3.049  -0.494  -0.957  0.00  0.00    +0.000 C 
BRANCH  13  14
ATOM     14  C   UNL     1       2.592   0.413   0.165  0.00  0.00    +0.000 A 
ATOM     15  C   UNL     1       2.950   1.768   0.179  0.00  0.00    +0.000 A 
ATOM     16  C   UNL     1       2.537   2.597   1.224  0.00  0.00    +0.000 A 
ATOM     17  C   UNL     1       1.764   2.080   2.262  0.00  0.00    +0.000 A 
ATOM     18  C   UNL     1       1.401   0.735   2.256  0.00  0.00    +0.000 A 
ATOM     19  C   UNL     1       1.812  -0.095   1.213  0.00  0.00    +0.000 A 
ENDBRANCH  13  14
ENDBRANCH   1  13
TORSDOF 5
