MODEL 1
REMARK VINA RESULT:      -4.2      0.000      0.000
REMARK  Name = *****
REMARK  4 active torsions:
REMARK  status: ('A' for Active; 'I' for Inactive)
REMARK    1  A    between atoms: C_1  and  C_2
REMARK    2  A    between atoms: C_6  and  C_8
REMARK    3  A    between atoms: C_8  and  C_9
REMARK    4  A    between atoms: C_9  and  C_10
REMARK                            x       y       z     vdW  Elec       q    Type
REMARK                         _______ _______ _______ _____ _____    ______ ____
ROOT
ATOM      1  C   UNL     1     103.595 128.837  83.054  0.00  0.00    +0.000 C 
ENDROOT
BRANCH   1   7
ATOM      2  C   UNL     1     104.175 124.114  81.969  0.00  0.00    +0.000 C 
ATOM      3  C   UNL     1     104.234 125.571  81.595  0.00  0.00    +0.000 C 
ATOM      4  C   UNL     1     103.563 126.037  80.529  0.00  0.00    +0.000 C 
ATOM      5  C   UNL     1     103.521 127.440  80.010  0.00  0.00    +0.000 C 
ATOM      6  C   UNL     1     104.502 128.413  80.650  0.00  0.00    +0.000 C 
ATOM      7  C   UNL     1     104.711 128.266  82.158  0.00  0.00    +0.000 C 
ATOM      8  S   UNL     1     105.219 126.578  82.609  0.00  0.00    +0.000 S 
ENDBRANCH   1   7
BRANCH   1   9
ATOM      9  C   UNL     1     102.770 127.856  83.892  0.00  0.00    +0.000 C 
BRANCH   9  10
ATOM     10  C   UNL     1     101.319 127.858  83.463  0.00  0.00    +0.000 A 
ATOM     11  C   UNL     1     100.774 126.757  82.789  0.00  0.00    +0.000 A 
ATOM     12  C   UNL     1      99.441 126.771  82.376  0.00  0.00    +0.000 A 
ATOM     13  C   UNL     1      98.642 127.884  82.631  0.00  0.00    +0.000 A 
ATOM     14  C   UNL     1      99.177 128.986  83.297  0.00  0.00    +0.000 A 
ATOM     15  C   UNL     1     100.511 128.975  83.708  0.00  0.00    +0.000 A 
ENDBRANCH   9  10
ENDBRANCH   1   9
TORSDOF 3
ENDMDL
