MODEL 1
REMARK VINA RESULT:      -4.5      0.000      0.000
REMARK  Name = *****
REMARK  4 active torsions:
REMARK  status: ('A' for Active; 'I' for Inactive)
REMARK    1  A    between atoms: C_1  and  N_2
REMARK    2  A    between atoms: N_2  and  C_3
REMARK    3  A    between atoms: C_10  and  C_12
REMARK    4  A    between atoms: C_12  and  C_13
REMARK                            x       y       z     vdW  Elec       q    Type
REMARK                         _______ _______ _______ _____ _____    ______ ____
ROOT
ATOM      1  C   UNL     1      87.720  68.514  84.597  0.00  0.00    +0.000 C 
ATOM      2  N   UNL     1      88.427  69.477  85.434  0.00  0.00    +0.000 N 
ATOM      3  C   UNL     1      88.684  69.101  86.756  0.00  0.00    +0.000 C 
ATOM      4  O   UNL     1      88.446  67.958  87.158  0.00  0.00    +0.000 OA
ENDROOT
BRANCH   2   5
ATOM      5  C   UNL     1      89.013  70.604  84.785  0.00  0.00    +0.000 A 
ATOM      6  C   UNL     1      90.377  70.561  84.454  0.00  0.00    +0.000 A 
ATOM      7  C   UNL     1      90.985  71.623  83.782  0.00  0.00    +0.000 A 
ATOM      8  C   UNL     1      90.238  72.743  83.427  0.00  0.00    +0.000 A 
ATOM      9  C   UNL     1      88.882  72.803  83.745  0.00  0.00    +0.000 A 
ATOM     10  C   UNL     1      88.267  71.740  84.419  0.00  0.00    +0.000 A 
ATOM     11 CL   UNL     1      86.606  71.947  84.860  0.00  0.00    +0.000 Cl
ENDBRANCH   2   5
BRANCH   3  12
ATOM     12  C   UNL     1      89.231  70.173  87.702  0.00  0.00    +0.000 C 
BRANCH  12  13
ATOM     13  C   UNL     1      88.166  70.810  88.567  0.00  0.00    +0.000 A 
ATOM     14  C   UNL     1      86.854  70.953  88.095  0.00  0.00    +0.000 A 
ATOM     15  C   UNL     1      85.876  71.547  88.893  0.00  0.00    +0.000 A 
ATOM     16  C   UNL     1      86.201  72.009  90.167  0.00  0.00    +0.000 A 
ATOM     17  C   UNL     1      87.504  71.882  90.643  0.00  0.00    +0.000 A 
ATOM     18  C   UNL     1      88.485  71.288  89.845  0.00  0.00    +0.000 A 
ENDBRANCH  12  13
ENDBRANCH   3  12
TORSDOF 3
ENDMDL
