MODEL 1
REMARK VINA RESULT:      -4.2      0.000      0.000
REMARK  Name = *****
REMARK  2 active torsions:
REMARK  status: ('A' for Active; 'I' for Inactive)
REMARK    1  A    between atoms: C_2  and  C_9
REMARK    2  A    between atoms: C_3  and  C_4
REMARK                            x       y       z     vdW  Elec       q    Type
REMARK                         _______ _______ _______ _____ _____    ______ ____
ROOT
ATOM      1  C   UNL     1     103.603 128.353  82.238  0.00  0.00    +0.000 C 
ATOM      2  C   UNL     1     102.665 127.229  82.560  0.00  0.00    +0.000 C 
ATOM      3  C   UNL     1     103.239 127.372  81.151  0.00  0.00    +0.000 C 
ENDROOT
BRANCH   2   4
ATOM      4  C   UNL     1     101.201 127.511  82.805  0.00  0.00    +0.000 A 
ATOM      5  C   UNL     1     100.778 128.684  83.453  0.00  0.00    +0.000 A 
ATOM      6  C   UNL     1      99.423 128.952  83.663  0.00  0.00    +0.000 A 
ATOM      7  C   UNL     1      98.458 128.053  83.219  0.00  0.00    +0.000 A 
ATOM      8  C   UNL     1      98.849 126.889  82.564  0.00  0.00    +0.000 A 
ATOM      9  C   UNL     1     100.205 126.625  82.359  0.00  0.00    +0.000 A 
ENDBRANCH   2   4
BRANCH   3  10
ATOM     10  C   UNL     1     104.280 126.366  80.671  0.00  0.00    +0.000 A 
ATOM     11  C   UNL     1     105.616 126.623  80.461  0.00  0.00    +0.000 A 
ATOM     12  S   UNL     1     106.456 125.231  79.922  0.00  0.00    +0.000 S 
ATOM     13  C   UNL     1     105.030 124.286  79.967  0.00  0.00    +0.000 A 
ATOM     14  C   UNL     1     103.937 125.015  80.384  0.00  0.00    +0.000 A 
ENDBRANCH   3  10
TORSDOF 2
ENDMDL
