MODEL 1
REMARK VINA RESULT:      -4.3      0.000      0.000
REMARK  Name = *****
REMARK  3 active torsions:
REMARK  status: ('A' for Active; 'I' for Inactive)
REMARK    1  A    between atoms: C_4  and  N_7
REMARK    2  A    between atoms: N_7  and  S_8
REMARK    3  A    between atoms: S_8  and  C_10
REMARK                            x       y       z     vdW  Elec       q    Type
REMARK                         _______ _______ _______ _____ _____    ______ ____
ROOT
ATOM      1  S   UNL     1      88.859  70.425  86.768  0.00  0.00    +0.000 S 
ATOM      2  O   UNL     1      89.966  70.870  85.862  0.00  0.00    +0.000 OA
ENDROOT
BRANCH   1   3
ATOM      3  C   UNL     1      88.924  68.614  86.787  0.00  0.00    +0.000 A 
ATOM      4  C   UNL     1      90.036  67.954  86.246  0.00  0.00    +0.000 A 
ATOM      5  C   UNL     1      90.098  66.558  86.260  0.00  0.00    +0.000 A 
ATOM      6  C   UNL     1      89.052  65.822  86.815  0.00  0.00    +0.000 A 
ATOM      7  C   UNL     1      87.944  66.469  87.360  0.00  0.00    +0.000 A 
ATOM      8  C   UNL     1      87.882  67.865  87.347  0.00  0.00    +0.000 A 
ATOM      9 CL   UNL     1      89.132  64.104  86.829  0.00  0.00    +0.000 Cl
ENDBRANCH   1   3
BRANCH   1  10
ATOM     10  N   UNL     1      89.272  70.529  88.377  0.00  0.00    +0.000 NA
ATOM     11  H   UNL     1      89.733  69.653  88.618  0.00  0.00    +0.000 HD
BRANCH  10  15
ATOM     12  C   UNL     1      86.326  72.562  90.752  0.00  0.00    +0.000 C 
ATOM     13  C   UNL     1      85.859  71.562  89.699  0.00  0.00    +0.000 C 
ATOM     14  C   UNL     1      86.964  71.250  88.692  0.00  0.00    +0.000 C 
ATOM     15  C   UNL     1      88.241  70.757  89.391  0.00  0.00    +0.000 C 
ATOM     16  C   UNL     1      88.709  71.779  90.439  0.00  0.00    +0.000 C 
ATOM     17  C   UNL     1      87.602  72.094  91.445  0.00  0.00    +0.000 C 
ENDBRANCH  10  15
ENDBRANCH   1  10
TORSDOF 3
ENDMDL
