MODEL 1
REMARK VINA RESULT:      -5.0      0.000      0.000
REMARK  Name = *****
REMARK  5 active torsions:
REMARK  status: ('A' for Active; 'I' for Inactive)
REMARK    1  A    between atoms: C_1  and  C_2
REMARK    2  A    between atoms: C_4  and  C_19
REMARK    3  A    between atoms: C_6  and  O_8
REMARK    4  A    between atoms: O_8  and  C_9
REMARK    5  A    between atoms: C_9  and  C_11
REMARK                            x       y       z     vdW  Elec       q    Type
REMARK                         _______ _______ _______ _____ _____    ______ ____
ROOT
ATOM      1  C   UNL     1     101.738 125.977  82.950  0.00  0.00    +0.000 C 
ATOM      2  O   UNL     1     102.291 125.359  83.850  0.00  0.00    +0.000 OA
ENDROOT
BRANCH   1   3
ATOM      3  C   UNL     1     100.931 127.189  83.222  0.00  0.00    +0.000 A 
ATOM      4  C   UNL     1      99.617 127.351  82.769  0.00  0.00    +0.000 A 
ATOM      5  C   UNL     1      98.937 128.550  82.964  0.00  0.00    +0.000 A 
ATOM      6  C   UNL     1      99.579 129.599  83.610  0.00  0.00    +0.000 A 
ATOM      7  C   UNL     1     100.884 129.465  84.070  0.00  0.00    +0.000 A 
ATOM      8  C   UNL     1     101.564 128.261  83.875  0.00  0.00    +0.000 A 
ATOM      9  F   UNL     1      98.937 130.760  83.780  0.00  0.00    +0.000 F 
ATOM     10  F   UNL     1      98.979 126.379  82.102  0.00  0.00    +0.000 F 
ENDBRANCH   1   3
BRANCH   1  11
ATOM     11  O   UNL     1     101.753 125.681  81.604  0.00  0.00    +0.000 OA
BRANCH  11  17
ATOM     12  C   UNL     1     106.090 124.058  79.864  0.00  0.00    +0.000 C 
ATOM     13  C   UNL     1     105.140 125.172  80.189  0.00  0.00    +0.000 A 
ATOM     14  C   UNL     1     105.528 126.515  80.055  0.00  0.00    +0.000 A 
ATOM     15  C   UNL     1     104.653 127.557  80.393  0.00  0.00    +0.000 A 
ATOM     16  C   UNL     1     103.381 127.244  80.877  0.00  0.00    +0.000 A 
ATOM     17  C   UNL     1     103.010 125.910  81.042  0.00  0.00    +0.000 A 
ATOM     18  C   UNL     1     103.858 124.872  80.666  0.00  0.00    +0.000 A 
ATOM     19  C   UNL     1     105.063 128.993  80.261  0.00  0.00    +0.000 C 
ENDBRANCH  11  17
ENDBRANCH   1  11
TORSDOF 3
ENDMDL
