MODEL 1
REMARK VINA RESULT:      -4.5      0.000      0.000
REMARK  Name = *****
REMARK  3 active torsions:
REMARK  status: ('A' for Active; 'I' for Inactive)
REMARK    1  A    between atoms: C_5  and  C_7
REMARK    2  A    between atoms: C_7  and  S_8
REMARK    3  A    between atoms: S_8  and  C_9
REMARK                            x       y       z     vdW  Elec       q    Type
REMARK                         _______ _______ _______ _____ _____    ______ ____
ROOT
ATOM      1  S   UNL     1     103.362 127.059  81.166  0.00  0.00    +0.000 S 
ENDROOT
BRANCH   1   2
ATOM      2  C   UNL     1     103.882 125.356  81.322  0.00  0.00    +0.000 A 
ATOM      3  C   UNL     1     103.787 124.777  82.594  0.00  0.00    +0.000 A 
ATOM      4  C   UNL     1     104.195 123.461  82.803  0.00  0.00    +0.000 A 
ATOM      5  C   UNL     1     104.707 122.702  81.756  0.00  0.00    +0.000 A 
ATOM      6  C   UNL     1     104.814 123.267  80.487  0.00  0.00    +0.000 A 
ATOM      7  C   UNL     1     104.407 124.591  80.273  0.00  0.00    +0.000 A 
ATOM      8 CL   UNL     1     105.217 121.078  82.007  0.00  0.00    +0.000 Cl
ATOM      9  F   UNL     1     104.088 122.942  84.035  0.00  0.00    +0.000 F 
ENDBRANCH   1   2
BRANCH   1  10
ATOM     10  C   UNL     1     102.795 127.474  82.851  0.00  0.00    +0.000 C 
BRANCH  10  15
ATOM     11  C   UNL     1      99.059 126.810  82.442  0.00  0.00    +0.000 A 
ATOM     12  C   UNL     1      98.509 127.949  83.031  0.00  0.00    +0.000 A 
ATOM     13  C   UNL     1      99.347 128.930  83.559  0.00  0.00    +0.000 A 
ATOM     14  C   UNL     1     100.727 128.765  83.493  0.00  0.00    +0.000 A 
ATOM     15  C   UNL     1     101.300 127.634  82.903  0.00  0.00    +0.000 A 
ATOM     16  C   UNL     1     100.446 126.651  82.379  0.00  0.00    +0.000 A 
ATOM     17  F   UNL     1     101.514 129.724  84.002  0.00  0.00    +0.000 F 
ENDBRANCH  10  15
ENDBRANCH   1  10
TORSDOF 3
ENDMDL
