REMARK  Name = *****
REMARK  4 active torsions:
REMARK  status: ('A' for Active; 'I' for Inactive)
REMARK    1  A    between atoms: C_4  and  C_19
REMARK    2  A    between atoms: C_5  and  C_7
REMARK    3  A    between atoms: C_8  and  C_9
REMARK    4  A    between atoms: C_14  and  C_15
REMARK                            x       y       z     vdW  Elec       q    Type
REMARK                         _______ _______ _______ _____ _____    ______ ____
ROOT
ATOM      1  C   UNL     1      -0.941   2.329  -0.615  0.00  0.00    +0.000 C 
ATOM      2  C   UNL     1      -2.265   2.476  -0.775  0.00  0.00    +0.000 C 
ENDROOT
BRANCH   1   7
ATOM      3  C   UNL     1       0.025  -1.293  -1.056  0.00  0.00    +0.000 A 
ATOM      4  C   UNL     1       0.902  -1.490   0.007  0.00  0.00    +0.000 A 
ATOM      5  C   UNL     1       1.182  -0.439   0.880  0.00  0.00    +0.000 A 
ATOM      6  C   UNL     1       0.583   0.817   0.696  0.00  0.00    +0.000 A 
ATOM      7  C   UNL     1      -0.312   1.021  -0.371  0.00  0.00    +0.000 A 
ATOM      8  C   UNL     1      -0.574  -0.046  -1.247  0.00  0.00    +0.000 A 
BRANCH   6   9
ATOM      9  C   UNL     1       0.896   1.867   1.625  0.00  0.00    +0.000 C 
ATOM     10  N   UNL     1       1.157   2.710   2.379  0.00  0.00    +0.000 NA
ENDBRANCH   6   9
ENDBRANCH   1   7
BRANCH   2  11
ATOM     11  C   UNL     1      -2.862   3.792  -1.021  0.00  0.00    +0.000 A 
ATOM     12  C   UNL     1      -2.951   4.698   0.047  0.00  0.00    +0.000 A 
ATOM     13  C   UNL     1      -3.509   5.963  -0.138  0.00  0.00    +0.000 A 
ATOM     14  C   UNL     1      -3.981   6.336  -1.392  0.00  0.00    +0.000 A 
ATOM     15  C   UNL     1      -3.896   5.445  -2.462  0.00  0.00    +0.000 A 
ATOM     16  C   UNL     1      -3.338   4.163  -2.293  0.00  0.00    +0.000 A 
BRANCH  16  17
ATOM     17  C   UNL     1      -3.244   3.226  -3.472  0.00  0.00    +0.000 C 
ATOM     18  F   UNL     1      -1.959   2.953  -3.835  0.00  0.00    +0.000 F 
ATOM     19  F   UNL     1      -3.835   2.018  -3.246  0.00  0.00    +0.000 F 
ATOM     20  F   UNL     1      -3.842   3.713  -4.599  0.00  0.00    +0.000 F 
ENDBRANCH  16  17
ENDBRANCH   2  11
TORSDOF 4
