MODEL 1
REMARK VINA RESULT:      -4.6      0.000      0.000
REMARK  Name = *****
REMARK  4 active torsions:
REMARK  status: ('A' for Active; 'I' for Inactive)
REMARK    1  A    between atoms: C_1  and  C_2
REMARK    2  A    between atoms: C_5  and  O_8
REMARK    3  A    between atoms: O_8  and  C_9
REMARK    4  A    between atoms: C_10  and  C_11
REMARK                            x       y       z     vdW  Elec       q    Type
REMARK                         _______ _______ _______ _____ _____    ______ ____
ROOT
ATOM      1  O   UNL     1      89.209  64.532  86.780  0.00  0.00    +0.000 OA
ENDROOT
BRANCH   1   6
ATOM      2  C   UNL     1      85.753  62.021  90.508  0.00  0.00    +0.000 C 
ATOM      3  C   UNL     1      86.636  62.706  89.507  0.00  0.00    +0.000 A 
ATOM      4  C   UNL     1      86.558  62.372  88.148  0.00  0.00    +0.000 A 
ATOM      5  C   UNL     1      87.403  62.983  87.220  0.00  0.00    +0.000 A 
ATOM      6  C   UNL     1      88.329  63.934  87.649  0.00  0.00    +0.000 A 
ATOM      7  C   UNL     1      88.443  64.247  89.002  0.00  0.00    +0.000 A 
ATOM      8  C   UNL     1      87.596  63.636  89.929  0.00  0.00    +0.000 A 
ENDBRANCH   1   6
BRANCH   1   9
ATOM      9  C   UNL     1      88.989  65.859  86.484  0.00  0.00    +0.000 C 
ATOM     10  C   UNL     1      89.993  66.741  86.433  0.00  0.00    +0.000 C 
BRANCH  10  11
ATOM     11  C   UNL     1      89.828  68.166  86.120  0.00  0.00    +0.000 A 
ATOM     12  C   UNL     1      89.600  69.130  87.111  0.00  0.00    +0.000 A 
ATOM     13  C   UNL     1      89.476  70.482  86.773  0.00  0.00    +0.000 A 
ATOM     14  C   UNL     1      89.589  70.882  85.443  0.00  0.00    +0.000 A 
ATOM     15  C   UNL     1      89.833  69.936  84.452  0.00  0.00    +0.000 A 
ATOM     16  C   UNL     1      89.957  68.585  84.789  0.00  0.00    +0.000 A 
ENDBRANCH  10  11
ENDBRANCH   1   9
TORSDOF 3
ENDMDL
