REMARK  Name = *****
REMARK  4 active torsions:
REMARK  status: ('A' for Active; 'I' for Inactive)
REMARK    1  A    between atoms: C_4  and  C_7
REMARK    2  A    between atoms: C_7  and  N_8
REMARK    3  A    between atoms: N_8  and  O_9
REMARK    4  A    between atoms: O_9  and  C_10
REMARK                            x       y       z     vdW  Elec       q    Type
REMARK                         _______ _______ _______ _____ _____    ______ ____
ROOT
ATOM      1  O   UNL     1      -4.932  -0.335  -0.712  0.00  0.00    +0.000 OA
ENDROOT
BRANCH   1   2
ATOM      2  C   UNL     1      -5.826  -1.381  -0.719  0.00  0.00    +0.000 A 
ATOM      3  C   UNL     1      -5.551  -2.665  -0.242  0.00  0.00    +0.000 A 
ATOM      4  C   UNL     1      -6.542  -3.642  -0.288  0.00  0.00    +0.000 A 
ATOM      5  C   UNL     1      -7.803  -3.365  -0.797  0.00  0.00    +0.000 A 
ATOM      6  C   UNL     1      -8.067  -2.085  -1.262  0.00  0.00    +0.000 A 
ATOM      7  C   UNL     1      -7.095  -1.091  -1.226  0.00  0.00    +0.000 A 
ATOM      8  F   UNL     1      -9.281  -1.800  -1.753  0.00  0.00    +0.000 F 
ATOM      9  F   UNL     1      -6.274  -4.872   0.170  0.00  0.00    +0.000 F 
ENDBRANCH   1   2
BRANCH   1  10
ATOM     10  N   UNL     1      -3.632  -0.783  -0.446  0.00  0.00    +0.000 NA
BRANCH  10  11
ATOM     11  C   UNL     1      -2.833   0.236  -0.443  0.00  0.00    +0.000 C 
BRANCH  11  15
ATOM     12  C   UNL     1       1.356  -0.109   0.263  0.00  0.00    +0.000 A 
ATOM     13  C   UNL     1       0.562  -1.256   0.258  0.00  0.00    +0.000 A 
ATOM     14  C   UNL     1      -0.811  -1.155   0.029  0.00  0.00    +0.000 A 
ATOM     15  C   UNL     1      -1.386   0.099  -0.196  0.00  0.00    +0.000 A 
ATOM     16  C   UNL     1      -0.592   1.250  -0.193  0.00  0.00    +0.000 A 
ATOM     17  C   UNL     1       0.780   1.142   0.038  0.00  0.00    +0.000 A 
ENDBRANCH  11  15
ENDBRANCH  10  11
ENDBRANCH   1  10
TORSDOF 4
