MODEL 1
REMARK VINA RESULT:      -4.6      0.000      0.000
REMARK  Name = *****
REMARK  3 active torsions:
REMARK  status: ('A' for Active; 'I' for Inactive)
REMARK    1  A    between atoms: C_1  and  C_2
REMARK    2  A    between atoms: C_2  and  C_10
REMARK    3  A    between atoms: C_3  and  C_4
REMARK                            x       y       z     vdW  Elec       q    Type
REMARK                         _______ _______ _______ _____ _____    ______ ____
ROOT
ATOM      1  C   UNL     1     103.165 127.181  80.671  0.00  0.00    +0.000 C 
ATOM      2  C   UNL     1     102.982 125.946  81.535  0.00  0.00    +0.000 C 
ATOM      3  C   UNL     1     102.007 125.874  82.472  0.00  0.00    +0.000 C 
ENDROOT
BRANCH   3   4
ATOM      4  C   UNL     1     101.016 126.917  82.750  0.00  0.00    +0.000 A 
ATOM      5  C   UNL     1     101.391 128.090  83.415  0.00  0.00    +0.000 A 
ATOM      6  C   UNL     1     100.442 129.081  83.678  0.00  0.00    +0.000 A 
ATOM      7  C   UNL     1      99.119 128.903  83.278  0.00  0.00    +0.000 A 
ATOM      8  C   UNL     1      98.741 127.736  82.614  0.00  0.00    +0.000 A 
ATOM      9  C   UNL     1      99.687 126.744  82.350  0.00  0.00    +0.000 A 
ENDBRANCH   3   4
BRANCH   2  10
ATOM     10  C   UNL     1     103.839 124.790  81.416  0.00  0.00    +0.000 A 
ATOM     11  C   UNL     1     104.467 124.257  80.297  0.00  0.00    +0.000 A 
ATOM     12  C   UNL     1     105.240 123.094  80.583  0.00  0.00    +0.000 A 
ATOM     13  C   UNL     1     105.182 122.755  81.912  0.00  0.00    +0.000 A 
ATOM     14  S   UNL     1     104.202 123.830  82.805  0.00  0.00    +0.000 S 
ENDBRANCH   2  10
TORSDOF 2
ENDMDL
