REMARK  Name = *****
REMARK  4 active torsions:
REMARK  status: ('A' for Active; 'I' for Inactive)
REMARK    1  A    between atoms: C_4  and  S_7
REMARK    2  A    between atoms: S_7  and  C_8
REMARK    3  A    between atoms: C_8  and  C_10
REMARK    4  A    between atoms: C_13  and  C_16
REMARK                            x       y       z     vdW  Elec       q    Type
REMARK                         _______ _______ _______ _____ _____    ______ ____
ROOT
ATOM      1  C   UNL     1      -5.412  -1.132  -0.709  0.00  0.00    +0.000 A 
ATOM      2  C   UNL     1      -6.046  -0.458  -1.762  0.00  0.00    +0.000 A 
ATOM      3  C   UNL     1      -7.441  -0.487  -1.887  0.00  0.00    +0.000 A 
ATOM      4  C   UNL     1      -8.230  -1.181  -0.958  0.00  0.00    +0.000 A 
ATOM      5  C   UNL     1      -7.596  -1.854   0.095  0.00  0.00    +0.000 A 
ATOM      6  C   UNL     1      -6.204  -1.824   0.222  0.00  0.00    +0.000 A 
ENDROOT
BRANCH   4   7
ATOM      7  C   UNL     1      -9.733  -1.236  -1.104  0.00  0.00    +0.000 C 
ATOM      8  F   UNL     1     -10.237  -0.224  -1.864  0.00  0.00    +0.000 F 
ATOM      9  F   UNL     1     -10.152  -2.390  -1.692  0.00  0.00    +0.000 F 
ATOM     10  F   UNL     1     -10.384  -1.164   0.090  0.00  0.00    +0.000 F 
ENDBRANCH   4   7
BRANCH   1  11
ATOM     11  C   UNL     1      -3.931  -1.154  -0.507  0.00  0.00    +0.000 C 
ATOM     12  O   UNL     1      -3.465  -1.519   0.566  0.00  0.00    +0.000 OA
BRANCH  11  13
ATOM     13  S   UNL     1      -2.909  -0.666  -1.856  0.00  0.00    +0.000 S 
BRANCH  13  17
ATOM     14  C   UNL     1       1.214  -2.416  -0.878  0.00  0.00    +0.000 A 
ATOM     15  C   UNL     1       0.096  -3.247  -0.867  0.00  0.00    +0.000 A 
ATOM     16  C   UNL     1      -1.168  -2.724  -1.152  0.00  0.00    +0.000 A 
ATOM     17  C   UNL     1      -1.324  -1.362  -1.437  0.00  0.00    +0.000 A 
ATOM     18  C   UNL     1      -0.193  -0.538  -1.457  0.00  0.00    +0.000 A 
ATOM     19  C   UNL     1       1.071  -1.062  -1.175  0.00  0.00    +0.000 A 
ENDBRANCH  13  17
ENDBRANCH  11  13
ENDBRANCH   1  11
TORSDOF 4
