REMARK  Name = *****
REMARK  3 active torsions:
REMARK  status: ('A' for Active; 'I' for Inactive)
REMARK    1  A    between atoms: C_1  and  C_2
REMARK    2  A    between atoms: C_5  and  C_8
REMARK    3  A    between atoms: C_9  and  C_10
REMARK                            x       y       z     vdW  Elec       q    Type
REMARK                         _______ _______ _______ _____ _____    ______ ____
ROOT
ATOM      1  C   UNL     1       6.819   0.185  -0.864  0.00  0.00    +0.000 C 
ATOM      2  C   UNL     1       7.997   0.206  -1.099  0.00  0.00    +0.000 C 
ENDROOT
BRANCH   1   7
ATOM      3  C   UNL     1       1.189   0.083   0.232  0.00  0.00    +0.000 C 
ATOM      4  C   UNL     1       2.667   0.113  -0.026  0.00  0.00    +0.000 A 
ATOM      5  C   UNL     1       3.327   1.330  -0.233  0.00  0.00    +0.000 A 
ATOM      6  C   UNL     1       4.698   1.354  -0.505  0.00  0.00    +0.000 A 
ATOM      7  C   UNL     1       5.417   0.160  -0.584  0.00  0.00    +0.000 A 
ATOM      8  C   UNL     1       4.763  -1.057  -0.393  0.00  0.00    +0.000 A 
ATOM      9  C   UNL     1       3.392  -1.081  -0.121  0.00  0.00    +0.000 A 
ENDBRANCH   1   7
BRANCH   2  10
ATOM     10  C   UNL     1       9.400   0.230  -1.379  0.00  0.00    +0.000 A 
ATOM     11  C   UNL     1      10.066   1.453  -1.506  0.00  0.00    +0.000 A 
ATOM     12  C   UNL     1      11.435   1.476  -1.780  0.00  0.00    +0.000 A 
ATOM     13  C   UNL     1      12.125   0.277  -1.924  0.00  0.00    +0.000 A 
ATOM     14  C   UNL     1      11.473  -0.945  -1.800  0.00  0.00    +0.000 A 
ATOM     15  C   UNL     1      10.104  -0.970  -1.526  0.00  0.00    +0.000 A 
ATOM     16  F   UNL     1      13.438   0.300  -2.187  0.00  0.00    +0.000 F 
ENDBRANCH   2  10
TORSDOF 2
