MODEL 1
REMARK VINA RESULT:      -5.0      0.000      0.000
REMARK  Name = *****
REMARK  2 active torsions:
REMARK  status: ('A' for Active; 'I' for Inactive)
REMARK    1  A    between atoms: C_2  and  C_11
REMARK    2  A    between atoms: C_4  and  C_5
REMARK                            x       y       z     vdW  Elec       q    Type
REMARK                         _______ _______ _______ _____ _____    ______ ____
ROOT
ATOM      1  C   UNL     1     103.465 126.014  83.195  0.00  0.00    +0.000 C 
ATOM      2  C   UNL     1     102.084 125.907  82.491  0.00  0.00    +0.000 C 
ATOM      3  C   UNL     1     102.879 125.962  81.157  0.00  0.00    +0.000 C 
ATOM      4  C   UNL     1     104.108 125.386  81.922  0.00  0.00    +0.000 C 
ENDROOT
BRANCH   4   5
ATOM      5  C   UNL     1     104.374 123.809  81.891  0.00  0.00    +0.000 A 
ATOM      6  C   UNL     1     104.677 123.122  80.698  0.00  0.00    +0.000 A 
ATOM      7  C   UNL     1     104.920 121.745  80.671  0.00  0.00    +0.000 A 
ATOM      8  C   UNL     1     104.878 121.008  81.849  0.00  0.00    +0.000 A 
ATOM      9  C   UNL     1     104.600 121.652  83.049  0.00  0.00    +0.000 A 
ATOM     10  C   UNL     1     104.357 123.029  83.065  0.00  0.00    +0.000 A 
ENDBRANCH   4   5
BRANCH   2  11
ATOM     11  C   UNL     1     100.988 127.017  82.775  0.00  0.00    +0.000 A 
ATOM     12  C   UNL     1      99.635 126.833  82.426  0.00  0.00    +0.000 A 
ATOM     13  C   UNL     1      98.662 127.805  82.683  0.00  0.00    +0.000 A 
ATOM     14  C   UNL     1      99.018 128.996  83.306  0.00  0.00    +0.000 A 
ATOM     15  C   UNL     1     100.340 129.211  83.674  0.00  0.00    +0.000 A 
ATOM     16  C   UNL     1     101.306 128.233  83.414  0.00  0.00    +0.000 A 
ENDBRANCH   2  11
TORSDOF 2
ENDMDL
