MODEL 1
REMARK VINA RESULT:      -4.7      0.000      0.000
REMARK  Name = *****
REMARK  3 active torsions:
REMARK  status: ('A' for Active; 'I' for Inactive)
REMARK    1  A    between atoms: C_1  and  C_2
REMARK    2  A    between atoms: C_6  and  C_8
REMARK    3  A    between atoms: C_9  and  C_10
REMARK                            x       y       z     vdW  Elec       q    Type
REMARK                         _______ _______ _______ _____ _____    ______ ____
ROOT
ATOM      1  C   UNL     1     101.684 130.148  84.563  0.00  0.00    +0.000 C 
ATOM      2  C   UNL     1     101.176 128.949  83.823  0.00  0.00    +0.000 A 
ATOM      3  C   UNL     1      99.815 128.637  83.805  0.00  0.00    +0.000 A 
ATOM      4  C   UNL     1      99.334 127.536  83.102  0.00  0.00    +0.000 A 
ATOM      5  C   UNL     1     100.222 126.727  82.392  0.00  0.00    +0.000 A 
ATOM      6  C   UNL     1     101.586 127.028  82.388  0.00  0.00    +0.000 A 
ATOM      7  C   UNL     1     102.062 128.138  83.097  0.00  0.00    +0.000 A 
ATOM      8  F   UNL     1      98.942 129.402  84.475  0.00  0.00    +0.000 F 
ENDROOT
BRANCH   6   9
ATOM      9  C   UNL     1     102.496 126.195  81.663  0.00  0.00    +0.000 C 
ATOM     10  C   UNL     1     103.250 125.504  81.033  0.00  0.00    +0.000 C 
BRANCH  10  11
ATOM     11  C   UNL     1     104.160 124.675  80.223  0.00  0.00    +0.000 C 
ATOM     12  C   UNL     1     104.579 123.422  81.010  0.00  0.00    +0.000 C 
ATOM     13  C   UNL     1     105.743 122.706  80.326  0.00  0.00    +0.000 C 
ATOM     14  C   UNL     1     106.960 123.624  80.192  0.00  0.00    +0.000 C 
ATOM     15  C   UNL     1     106.604 125.022  79.777  0.00  0.00    +0.000 C 
ATOM     16  C   UNL     1     105.346 125.492  79.780  0.00  0.00    +0.000 C 
ENDBRANCH  10  11
ENDBRANCH   6   9
TORSDOF 2
ENDMDL
