MODEL 1
REMARK VINA RESULT:      -4.6      0.000      0.000
REMARK  Name = *****
REMARK  4 active torsions:
REMARK  status: ('A' for Active; 'I' for Inactive)
REMARK    1  A    between atoms: C_4  and  C_7
REMARK    2  A    between atoms: C_7  and  C_8
REMARK    3  A    between atoms: C_8  and  C_10
REMARK    4  A    between atoms: C_15  and  C_16
REMARK                            x       y       z     vdW  Elec       q    Type
REMARK                         _______ _______ _______ _____ _____    ______ ____
ROOT
ATOM      1  C   UNL     1      87.126  70.897  86.406  0.00  0.00    +0.000 A 
ATOM      2  C   UNL     1      86.301  71.502  85.445  0.00  0.00    +0.000 A 
ATOM      3  C   UNL     1      85.152  72.189  85.838  0.00  0.00    +0.000 A 
ATOM      4  C   UNL     1      84.816  72.265  87.186  0.00  0.00    +0.000 A 
ATOM      5  C   UNL     1      85.629  71.656  88.145  0.00  0.00    +0.000 A 
ATOM      6  C   UNL     1      86.799  70.967  87.772  0.00  0.00    +0.000 A 
ENDROOT
BRANCH   6   7
ATOM      7  C   UNL     1      87.657  70.330  88.838  0.00  0.00    +0.000 C 
ATOM      8  F   UNL     1      88.897  70.882  88.947  0.00  0.00    +0.000 F 
ATOM      9  F   UNL     1      87.110  70.463  90.085  0.00  0.00    +0.000 F 
ATOM     10  F   UNL     1      87.826  68.992  88.668  0.00  0.00    +0.000 F 
ENDBRANCH   6   7
BRANCH   1  11
ATOM     11  C   UNL     1      88.320  70.141  85.950  0.00  0.00    +0.000 C 
ATOM     12  O   UNL     1      88.168  68.972  85.605  0.00  0.00    +0.000 OA
BRANCH  11  13
ATOM     13  C   UNL     1      89.662  70.845  85.860  0.00  0.00    +0.000 C 
BRANCH  13  17
ATOM     14  C   UNL     1      90.621  72.349  81.933  0.00  0.00    +0.000 A 
ATOM     15  C   UNL     1      91.077  71.094  82.331  0.00  0.00    +0.000 A 
ATOM     16  C   UNL     1      90.759  70.606  83.599  0.00  0.00    +0.000 A 
ATOM     17  C   UNL     1      89.988  71.372  84.485  0.00  0.00    +0.000 A 
ATOM     18  C   UNL     1      89.527  72.630  84.070  0.00  0.00    +0.000 A 
ATOM     19  C   UNL     1      89.844  73.115  82.800  0.00  0.00    +0.000 A 
ENDBRANCH  13  17
ENDBRANCH  11  13
ENDBRANCH   1  11
TORSDOF 4
ENDMDL
