REMARK  Name = *****
REMARK  4 active torsions:
REMARK  status: ('A' for Active; 'I' for Inactive)
REMARK    1  A    between atoms: C_1  and  C_2
REMARK    2  A    between atoms: C_7  and  C_8
REMARK    3  A    between atoms: N_9  and  C_12
REMARK    4  A    between atoms: C_12  and  C_13
REMARK                            x       y       z     vdW  Elec       q    Type
REMARK                         _______ _______ _______ _____ _____    ______ ____
ROOT
ATOM      1  C   UNL     1       0.914  -0.238  -0.109  0.00  0.00    +0.000 C 
ATOM      2  C   UNL     1       2.409  -0.059  -0.083  0.00  0.00    +0.000 A 
ATOM      3  C   UNL     1       3.224  -1.201   0.052  0.00  0.00    +0.000 A 
ATOM      4  C   UNL     1       4.617  -1.052   0.083  0.00  0.00    +0.000 A 
ATOM      5  C   UNL     1       5.170   0.215  -0.025  0.00  0.00    +0.000 A 
ATOM      6  C   UNL     1       4.398   1.373  -0.159  0.00  0.00    +0.000 A 
ATOM      7  C   UNL     1       2.996   1.222  -0.184  0.00  0.00    +0.000 A 
ATOM      8  C   UNL     1       2.142   2.456  -0.326  0.00  0.00    +0.000 C 
ATOM      9  N   UNL     1       6.518  -0.033   0.038  0.00  0.00    +0.000 N 
ATOM     10  N   UNL     1       6.776  -1.348   0.202  0.00  0.00    +0.000 NA
ATOM     11  N   UNL     1       5.611  -1.984   0.215  0.00  0.00    +0.000 NA
ENDROOT
BRANCH   9  12
ATOM     12  C   UNL     1       7.608   0.923   0.033  0.00  0.00    +0.000 C 
BRANCH  12  13
ATOM     13  C   UNL     1       8.051   1.263  -1.369  0.00  0.00    +0.000 A 
ATOM     14  C   UNL     1       7.736   2.505  -1.940  0.00  0.00    +0.000 A 
ATOM     15  C   UNL     1       8.148   2.811  -3.239  0.00  0.00    +0.000 A 
ATOM     16  C   UNL     1       8.878   1.883  -3.978  0.00  0.00    +0.000 A 
ATOM     17  C   UNL     1       9.196   0.646  -3.422  0.00  0.00    +0.000 A 
ATOM     18  C   UNL     1       8.785   0.337  -2.125  0.00  0.00    +0.000 A 
ENDBRANCH  12  13
ENDBRANCH   9  12
TORSDOF 2
