REMARK  Name = *****
REMARK  3 active torsions:
REMARK  status: ('A' for Active; 'I' for Inactive)
REMARK    1  A    between atoms: C_1  and  C_2
REMARK    2  A    between atoms: C_2  and  C_11
REMARK    3  A    between atoms: C_3  and  C_4
REMARK                            x       y       z     vdW  Elec       q    Type
REMARK                         _______ _______ _______ _____ _____    ______ ____
ROOT
ATOM      1  C   UNL     1       1.071   0.283  -0.619  0.00  0.00    +0.000 C 
ATOM      2  C   UNL     1       2.466  -0.037  -0.153  0.00  0.00    +0.000 C 
ATOM      3  C   UNL     1       3.009  -1.272  -0.125  0.00  0.00    +0.000 C 
ATOM      4  F   UNL     1       4.259  -1.439   0.372  0.00  0.00    +0.000 F 
ENDROOT
BRANCH   3   5
ATOM      5  C   UNL     1       2.357  -2.510  -0.576  0.00  0.00    +0.000 A 
ATOM      6  C   UNL     1       1.861  -2.652  -1.879  0.00  0.00    +0.000 A 
ATOM      7  C   UNL     1       1.269  -3.850  -2.285  0.00  0.00    +0.000 A 
ATOM      8  C   UNL     1       1.180  -4.920  -1.397  0.00  0.00    +0.000 A 
ATOM      9  C   UNL     1       1.689  -4.797  -0.105  0.00  0.00    +0.000 A 
ATOM     10  C   UNL     1       2.281  -3.599   0.301  0.00  0.00    +0.000 A 
ENDBRANCH   3   5
BRANCH   2  11
ATOM     11  C   UNL     1       3.252   1.128   0.318  0.00  0.00    +0.000 A 
ATOM     12  C   UNL     1       3.415   2.252  -0.504  0.00  0.00    +0.000 A 
ATOM     13  C   UNL     1       4.135   3.364  -0.059  0.00  0.00    +0.000 A 
ATOM     14  C   UNL     1       4.698   3.366   1.215  0.00  0.00    +0.000 A 
ATOM     15  C   UNL     1       4.540   2.259   2.046  0.00  0.00    +0.000 A 
ATOM     16  C   UNL     1       3.820   1.147   1.600  0.00  0.00    +0.000 A 
ENDBRANCH   2  11
TORSDOF 2
