REMARK  Name = *****
REMARK  2 active torsions:
REMARK  status: ('A' for Active; 'I' for Inactive)
REMARK    1  A    between atoms: C_1  and  N_2
REMARK    2  A    between atoms: C_3  and  C_14
REMARK                            x       y       z     vdW  Elec       q    Type
REMARK                         _______ _______ _______ _____ _____    ______ ____
ROOT
ATOM      1  C   UNL     1       0.983   0.160  -0.356  0.00  0.00    +0.000 C 
ATOM      2  N   UNL     1       2.311   0.014   0.245  0.00  0.00    +0.000 N 
ATOM      3  C   UNL     1       3.143   1.248   0.254  0.00  0.00    +0.000 C 
ATOM      4  C   UNL     1       3.630   1.616   1.676  0.00  0.00    +0.000 C 
ATOM      5  C   UNL     1       4.014   0.466   2.609  0.00  0.00    +0.000 C 
ATOM      6  C   UNL     1       2.797  -0.348   3.047  0.00  0.00    +0.000 C 
ATOM      7  S   UNL     1       2.926  -2.118   2.667  0.00  0.00    +0.000 S 
ATOM      8  C   UNL     1       3.238  -2.187   0.895  0.00  0.00    +0.000 A 
ATOM      9  C   UNL     1       3.818  -3.409   0.489  0.00  0.00    +0.000 A 
ATOM     10  C   UNL     1       4.080  -3.686  -0.851  0.00  0.00    +0.000 A 
ATOM     11  C   UNL     1       3.750  -2.750  -1.817  0.00  0.00    +0.000 A 
ATOM     12  C   UNL     1       3.167  -1.541  -1.435  0.00  0.00    +0.000 A 
ATOM     13  C   UNL     1       2.916  -1.216  -0.081  0.00  0.00    +0.000 A 
ENDROOT
BRANCH   3  14
ATOM     14  C   UNL     1       4.215   1.346  -0.829  0.00  0.00    +0.000 A 
ATOM     15  C   UNL     1       3.911   1.991  -2.043  0.00  0.00    +0.000 A 
ATOM     16  C   UNL     1       4.866   2.106  -3.056  0.00  0.00    +0.000 A 
ATOM     17  C   UNL     1       6.139   1.574  -2.875  0.00  0.00    +0.000 A 
ATOM     18  C   UNL     1       6.457   0.927  -1.684  0.00  0.00    +0.000 A 
ATOM     19  C   UNL     1       5.503   0.814  -0.669  0.00  0.00    +0.000 A 
ENDBRANCH   3  14
TORSDOF 1
