MODEL 1
REMARK VINA RESULT:      -4.6      0.000      0.000
REMARK  Name = *****
REMARK  2 active torsions:
REMARK  status: ('A' for Active; 'I' for Inactive)
REMARK    1  A    between atoms: C_5  and  C_7
REMARK    2  A    between atoms: C_8  and  C_9
REMARK                            x       y       z     vdW  Elec       q    Type
REMARK                         _______ _______ _______ _____ _____    ______ ____
ROOT
ATOM      1  C   UNL     1     102.039 126.236  82.219  0.00  0.00    +0.000 C 
ATOM      2  C   UNL     1     102.917 125.493  81.871  0.00  0.00    +0.000 C 
ENDROOT
BRANCH   1   7
ATOM      3  C   UNL     1      98.611 127.584  82.757  0.00  0.00    +0.000 A 
ATOM      4  C   UNL     1      98.875 128.789  83.406  0.00  0.00    +0.000 A 
ATOM      5  C   UNL     1     100.194 129.163  83.670  0.00  0.00    +0.000 A 
ATOM      6  C   UNL     1     101.250 128.333  83.283  0.00  0.00    +0.000 A 
ATOM      7  C   UNL     1     100.990 127.120  82.631  0.00  0.00    +0.000 A 
ATOM      8  C   UNL     1      99.664 126.752  82.371  0.00  0.00    +0.000 A 
ATOM      9 CL   UNL     1     102.861 128.855  83.639  0.00  0.00    +0.000 Cl
ENDBRANCH   1   7
BRANCH   2  10
ATOM     10  C   UNL     1     103.956 124.600  81.460  0.00  0.00    +0.000 A 
ATOM     11  C   UNL     1     104.539 123.666  82.313  0.00  0.00    +0.000 A 
ATOM     12  N   UNL     1     105.525 122.811  81.948  0.00  0.00    +0.000 NA
ATOM     13  C   UNL     1     105.950 122.891  80.670  0.00  0.00    +0.000 A 
ATOM     14  C   UNL     1     105.437 123.783  79.742  0.00  0.00    +0.000 A 
ATOM     15  C   UNL     1     104.423 124.651  80.146  0.00  0.00    +0.000 A 
ATOM     16 CL   UNL     1     104.067 123.485  83.960  0.00  0.00    +0.000 Cl
ENDBRANCH   2  10
TORSDOF 2
ENDMDL
