REMARK  Name = *****
REMARK  4 active torsions:
REMARK  status: ('A' for Active; 'I' for Inactive)
REMARK    1  A    between atoms: C_1  and  C_2
REMARK    2  A    between atoms: C_5  and  O_7
REMARK    3  A    between atoms: O_7  and  C_8
REMARK    4  A    between atoms: C_8  and  C_9
REMARK                            x       y       z     vdW  Elec       q    Type
REMARK                         _______ _______ _______ _____ _____    ______ ____
ROOT
ATOM      1  O   UNL     1      -2.386   1.312   0.111  0.00  0.00    +0.000 OA
ENDROOT
BRANCH   1   6
ATOM      2  C   UNL     1       1.854  -0.046  -0.739  0.00  0.00    +0.000 C 
ATOM      3  C   UNL     1       0.923  -0.130   0.469  0.00  0.00    +0.000 C 
ATOM      4  C   UNL     1      -0.082  -1.273   0.350  0.00  0.00    +0.000 C 
ATOM      5  C   UNL     1      -1.225  -0.716  -0.497  0.00  0.00    +0.000 C 
ATOM      6  C   UNL     1      -1.145   0.812  -0.376  0.00  0.00    +0.000 C 
ATOM      7  C   UNL     1       0.011   1.087   0.590  0.00  0.00    +0.000 C 
ENDBRANCH   1   6
BRANCH   1   8
ATOM      8  C   UNL     1      -2.477   2.735   0.054  0.00  0.00    +0.000 C 
BRANCH   8   9
ATOM      9  C   UNL     1      -3.855   3.168   0.487  0.00  0.00    +0.000 A 
ATOM     10  C   UNL     1      -4.018   4.198   1.424  0.00  0.00    +0.000 A 
ATOM     11  C   UNL     1      -5.296   4.619   1.800  0.00  0.00    +0.000 A 
ATOM     12  C   UNL     1      -6.422   4.021   1.238  0.00  0.00    +0.000 A 
ATOM     13  C   UNL     1      -6.273   3.002   0.300  0.00  0.00    +0.000 A 
ATOM     14  C   UNL     1      -4.997   2.579  -0.076  0.00  0.00    +0.000 A 
ENDBRANCH   8   9
ENDBRANCH   1   8
TORSDOF 3
