REMARK  Name = *****
REMARK  4 active torsions:
REMARK  status: ('A' for Active; 'I' for Inactive)
REMARK    1  A    between atoms: C_1  and  C_2
REMARK    2  A    between atoms: C_4  and  C_8
REMARK    3  A    between atoms: C_9  and  C_10
REMARK    4  A    between atoms: C_9  and  C_12
REMARK                            x       y       z     vdW  Elec       q    Type
REMARK                         _______ _______ _______ _____ _____    ______ ____
ROOT
ATOM      1  C   UNL     1      -1.628   2.599   0.256  0.00  0.00    +0.000 C 
ATOM      2  C   UNL     1      -1.088   3.713  -0.278  0.00  0.00    +0.000 C 
ENDROOT
BRANCH   1   6
ATOM      3  C   UNL     1       0.072  -1.488   2.562  0.00  0.00    +0.000 C 
ATOM      4  C   UNL     1      -0.279  -0.764   1.297  0.00  0.00    +0.000 A 
ATOM      5  C   UNL     1      -0.782   0.544   1.343  0.00  0.00    +0.000 A 
ATOM      6  C   UNL     1      -1.073   1.243   0.164  0.00  0.00    +0.000 A 
ATOM      7  C   UNL     1      -0.868   0.618  -1.070  0.00  0.00    +0.000 A 
ATOM      8  C   UNL     1      -0.352  -0.677  -1.125  0.00  0.00    +0.000 A 
ATOM      9  C   UNL     1      -0.052  -1.362   0.052  0.00  0.00    +0.000 A 
ENDBRANCH   1   6
BRANCH   2  10
ATOM     10  C   UNL     1      -1.797   4.992  -0.080  0.00  0.00    +0.000 A 
ATOM     11  C   UNL     1      -1.482   5.769   1.048  0.00  0.00    +0.000 A 
ATOM     12  C   UNL     1      -2.131   6.984   1.277  0.00  0.00    +0.000 A 
ATOM     13  C   UNL     1      -3.101   7.437   0.385  0.00  0.00    +0.000 A 
ATOM     14  C   UNL     1      -3.425   6.675  -0.738  0.00  0.00    +0.000 A 
ATOM     15  C   UNL     1      -2.778   5.458  -0.972  0.00  0.00    +0.000 A 
ATOM     16 CL   UNL     1      -3.229   4.562  -2.381  0.00  0.00    +0.000 Cl
ENDBRANCH   2  10
BRANCH   2  17
ATOM     17  C   UNL     1       0.142   3.726  -1.004  0.00  0.00    +0.000 C 
ATOM     18  N   UNL     1       1.142   3.760  -1.593  0.00  0.00    +0.000 NA
ENDBRANCH   2  17
TORSDOF 3
