MODEL 1
REMARK VINA RESULT:      -4.7      0.000      0.000
REMARK  Name = *****
REMARK  6 active torsions:
REMARK  status: ('A' for Active; 'I' for Inactive)
REMARK    1  A    between atoms: C_1  and  C_2
REMARK    2  A    between atoms: C_2  and  N_3
REMARK    3  A    between atoms: C_2  and  N_10
REMARK    4  A    between atoms: N_3  and  C_4
REMARK    5  A    between atoms: N_10  and  C_11
REMARK    6  A    between atoms: N_10  and  C_12
REMARK                            x       y       z     vdW  Elec       q    Type
REMARK                         _______ _______ _______ _____ _____    ______ ____
ROOT
ATOM      1  C   UNL     1     103.964 127.866  81.332  0.00  0.00    +0.000 C 
ATOM      2  C   UNL     1     103.097 126.605  81.435  0.00  0.00    +0.000 C 
ENDROOT
BRANCH   2   3
ATOM      3  N   UNL     1     103.107 125.697  80.494  0.00  0.00    +0.000 N 
ATOM      4  H   UNL     1     102.342 125.641  79.878  0.00  0.00    +0.000 HD
BRANCH   3   5
ATOM      5  C   UNL     1     104.169 124.804  80.336  0.00  0.00    +0.000 A 
ATOM      6  C   UNL     1     105.164 125.040  79.383  0.00  0.00    +0.000 A 
ATOM      7  C   UNL     1     106.239 124.160  79.249  0.00  0.00    +0.000 A 
ATOM      8  C   UNL     1     106.333 123.045  80.080  0.00  0.00    +0.000 A 
ATOM      9  C   UNL     1     105.357 122.814  81.049  0.00  0.00    +0.000 A 
ATOM     10  C   UNL     1     104.283 123.696  81.181  0.00  0.00    +0.000 A 
ENDBRANCH   3   5
ENDBRANCH   2   3
BRANCH   2  11
ATOM     11  N   UNL     1     102.304 126.470  82.590  0.00  0.00    +0.000 N 
ATOM     12  C   UNL     1     102.758 125.747  83.775  0.00  0.00    +0.000 C 
BRANCH  11  13
ATOM     13  C   UNL     1     101.077 127.168  82.763  0.00  0.00    +0.000 A 
ATOM     14  C   UNL     1     101.026 128.431  83.378  0.00  0.00    +0.000 A 
ATOM     15  C   UNL     1      99.811 129.100  83.549  0.00  0.00    +0.000 A 
ATOM     16  C   UNL     1      98.619 128.530  83.116  0.00  0.00    +0.000 A 
ATOM     17  C   UNL     1      98.643 127.282  82.504  0.00  0.00    +0.000 A 
ATOM     18  C   UNL     1      99.860 126.612  82.331  0.00  0.00    +0.000 A 
ATOM     19 CL   UNL     1      99.790 130.649  84.303  0.00  0.00    +0.000 Cl
ENDBRANCH  11  13
ENDBRANCH   2  11
TORSDOF 4
ENDMDL
