MODEL 1
REMARK VINA RESULT:      -4.9      0.000      0.000
REMARK  Name = *****
REMARK  5 active torsions:
REMARK  status: ('A' for Active; 'I' for Inactive)
REMARK    1  A    between atoms: C_1  and  C_2
REMARK    2  A    between atoms: C_4  and  C_19
REMARK    3  A    between atoms: C_6  and  O_8
REMARK    4  A    between atoms: O_8  and  C_9
REMARK    5  A    between atoms: C_9  and  C_11
REMARK                            x       y       z     vdW  Elec       q    Type
REMARK                         _______ _______ _______ _____ _____    ______ ____
ROOT
ATOM      1  C   UNL     1     101.677 126.029  82.874  0.00  0.00    +0.000 C 
ATOM      2  O   UNL     1     102.158 125.388  83.792  0.00  0.00    +0.000 OA
ENDROOT
BRANCH   1   3
ATOM      3  C   UNL     1     100.836 127.210  83.067  0.00  0.00    +0.000 A 
ATOM      4  C   UNL     1     101.361 128.330  83.703  0.00  0.00    +0.000 A 
ATOM      5  C   UNL     1     100.571 129.459  83.914  0.00  0.00    +0.000 A 
ATOM      6  C   UNL     1      99.241 129.468  83.491  0.00  0.00    +0.000 A 
ATOM      7  C   UNL     1      98.709 128.343  82.856  0.00  0.00    +0.000 A 
ATOM      8  C   UNL     1      99.508 127.220  82.649  0.00  0.00    +0.000 A 
ATOM      9  F   UNL     1      98.966 126.147  82.056  0.00  0.00    +0.000 F 
ATOM     10  F   UNL     1     102.641 128.359  84.100  0.00  0.00    +0.000 F 
ENDBRANCH   1   3
BRANCH   1  11
ATOM     11  O   UNL     1     101.838 125.851  81.514  0.00  0.00    +0.000 OA
BRANCH  11  17
ATOM     12  C   UNL     1     105.509 128.964  80.393  0.00  0.00    +0.000 C 
ATOM     13  C   UNL     1     104.927 127.582  80.431  0.00  0.00    +0.000 A 
ATOM     14  C   UNL     1     105.664 126.477  79.977  0.00  0.00    +0.000 A 
ATOM     15  C   UNL     1     105.127 125.182  80.021  0.00  0.00    +0.000 A 
ATOM     16  C   UNL     1     103.850 124.991  80.558  0.00  0.00    +0.000 A 
ATOM     17  C   UNL     1     103.133 126.085  81.036  0.00  0.00    +0.000 A 
ATOM     18  C   UNL     1     103.649 127.378  80.961  0.00  0.00    +0.000 A 
ATOM     19  C   UNL     1     105.924 124.004  79.543  0.00  0.00    +0.000 C 
ENDBRANCH  11  17
ENDBRANCH   1  11
TORSDOF 3
ENDMDL
