MODEL 1
REMARK VINA RESULT:      -4.5      0.000      0.000
REMARK  Name = *****
REMARK  3 active torsions:
REMARK  status: ('A' for Active; 'I' for Inactive)
REMARK    1  A    between atoms: C_6  and  C_7
REMARK    2  A    between atoms: C_7  and  C_8
REMARK    3  A    between atoms: C_8  and  C_9
REMARK                            x       y       z     vdW  Elec       q    Type
REMARK                         _______ _______ _______ _____ _____    ______ ____
ROOT
ATOM      1  C   UNL     1      88.762  70.074  86.965  0.00  0.00    +0.000 C 
ENDROOT
BRANCH   1   7
ATOM      2  C   UNL     1      87.914  67.740  87.435  0.00  0.00    +0.000 A 
ATOM      3  C   UNL     1      88.040  66.353  87.357  0.00  0.00    +0.000 A 
ATOM      4  C   UNL     1      89.157  65.800  86.741  0.00  0.00    +0.000 A 
ATOM      5  C   UNL     1      90.149  66.608  86.201  0.00  0.00    +0.000 A 
ATOM      6  C   UNL     1      90.025  67.995  86.278  0.00  0.00    +0.000 A 
ATOM      7  C   UNL     1      88.908  68.573  86.901  0.00  0.00    +0.000 A 
ATOM      8  F   UNL     1      89.276  64.467  86.665  0.00  0.00    +0.000 F 
ENDBRANCH   1   7
BRANCH   1   9
ATOM      9  C   UNL     1      87.849  70.503  88.116  0.00  0.00    +0.000 C 
BRANCH   9  10
ATOM     10  C   UNL     1      86.617  71.219  87.615  0.00  0.00    +0.000 A 
ATOM     11  C   UNL     1      85.636  71.658  88.516  0.00  0.00    +0.000 A 
ATOM     12  C   UNL     1      84.491  72.304  88.050  0.00  0.00    +0.000 A 
ATOM     13  C   UNL     1      84.325  72.505  86.685  0.00  0.00    +0.000 A 
ATOM     14  C   UNL     1      85.282  72.072  85.776  0.00  0.00    +0.000 A 
ATOM     15  C   UNL     1      86.429  71.425  86.239  0.00  0.00    +0.000 A 
ATOM     16  F   UNL     1      83.224  73.126  86.239  0.00  0.00    +0.000 F 
ENDBRANCH   9  10
ENDBRANCH   1   9
TORSDOF 3
ENDMDL
