MODEL 1
REMARK VINA RESULT:      -5.2      0.000      0.000
REMARK  Name = *****
REMARK  3 active torsions:
REMARK  status: ('A' for Active; 'I' for Inactive)
REMARK    1  A    between atoms: C_1  and  C_2
REMARK    2  A    between atoms: C_5  and  C_8
REMARK    3  A    between atoms: C_9  and  C_10
REMARK                            x       y       z     vdW  Elec       q    Type
REMARK                         _______ _______ _______ _____ _____    ______ ____
ROOT
ATOM      1  C   UNL     1     102.895 125.911  81.653  0.00  0.00    +0.000 C 
ATOM      2  C   UNL     1     101.892 125.904  82.549  0.00  0.00    +0.000 C 
ATOM      3 CL   UNL     1     103.242 127.257  80.621  0.00  0.00    +0.000 Cl
ENDROOT
BRANCH   1   8
ATOM      4  C   UNL     1     106.433 121.346  81.178  0.00  0.00    +0.000 C 
ATOM      5  C   UNL     1     105.541 122.545  81.306  0.00  0.00    +0.000 A 
ATOM      6  C   UNL     1     104.938 122.851  82.532  0.00  0.00    +0.000 A 
ATOM      7  C   UNL     1     104.078 123.948  82.645  0.00  0.00    +0.000 A 
ATOM      8  C   UNL     1     103.796 124.752  81.531  0.00  0.00    +0.000 A 
ATOM      9  C   UNL     1     104.389 124.432  80.302  0.00  0.00    +0.000 A 
ATOM     10  C   UNL     1     105.247 123.336  80.190  0.00  0.00    +0.000 A 
ENDBRANCH   1   8
BRANCH   2  11
ATOM     11  C   UNL     1     100.925 126.983  82.784  0.00  0.00    +0.000 A 
ATOM     12  C   UNL     1      99.581 126.853  82.415  0.00  0.00    +0.000 A 
ATOM     13  C   UNL     1      98.675 127.883  82.675  0.00  0.00    +0.000 A 
ATOM     14  C   UNL     1      99.104 129.045  83.315  0.00  0.00    +0.000 A 
ATOM     15  C   UNL     1     100.437 129.177  83.698  0.00  0.00    +0.000 A 
ATOM     16  C   UNL     1     101.345 128.149  83.436  0.00  0.00    +0.000 A 
ENDBRANCH   2  11
TORSDOF 2
ENDMDL
