MODEL 1
REMARK VINA RESULT:      -4.3      0.000      0.000
REMARK  Name = *****
REMARK  2 active torsions:
REMARK  status: ('A' for Active; 'I' for Inactive)
REMARK    1  A    between atoms: C_4  and  C_8
REMARK    2  A    between atoms: C_9  and  C_10
REMARK                            x       y       z     vdW  Elec       q    Type
REMARK                         _______ _______ _______ _____ _____    ______ ____
ROOT
ATOM      1  C   UNL     1     101.281 127.108  83.095  0.00  0.00    +0.000 C 
ATOM      2  C   UNL     1     102.041 126.923  82.001  0.00  0.00    +0.000 C 
ENDROOT
BRANCH   1   6
ATOM      3  C   UNL     1      98.806 127.343  85.995  0.00  0.00    +0.000 C 
ATOM      4  C   UNL     1     100.242 127.827  86.152  0.00  0.00    +0.000 C 
ATOM      5  S   UNL     1     100.686 129.130  84.963  0.00  0.00    +0.000 S 
ATOM      6  C   UNL     1     100.350 128.260  83.396  0.00  0.00    +0.000 C 
ATOM      7  S   UNL     1      98.574 127.793  83.275  0.00  0.00    +0.000 S 
ATOM      8  O   UNL     1      98.367 126.996  82.018  0.00  0.00    +0.000 OA
ATOM      9  C   UNL     1      98.549 126.638  84.672  0.00  0.00    +0.000 C 
ENDBRANCH   1   6
BRANCH   2  10
ATOM     10  C   UNL     1     102.927 125.768  81.790  0.00  0.00    +0.000 A 
ATOM     11  C   UNL     1     103.464 125.444  80.537  0.00  0.00    +0.000 A 
ATOM     12  C   UNL     1     104.324 124.353  80.392  0.00  0.00    +0.000 A 
ATOM     13  C   UNL     1     104.664 123.578  81.499  0.00  0.00    +0.000 A 
ATOM     14  C   UNL     1     104.152 123.900  82.753  0.00  0.00    +0.000 A 
ATOM     15  C   UNL     1     103.292 124.991  82.899  0.00  0.00    +0.000 A 
ENDBRANCH   2  10
TORSDOF 2
ENDMDL
