MODEL 1
REMARK VINA RESULT:      -4.5      0.000      0.000
REMARK  Name = *****
REMARK  4 active torsions:
REMARK  status: ('A' for Active; 'I' for Inactive)
REMARK    1  A    between atoms: C_1  and  C_2
REMARK    2  A    between atoms: C_5  and  C_8
REMARK    3  A    between atoms: C_8  and  O_10
REMARK    4  A    between atoms: O_10  and  C_11
REMARK                            x       y       z     vdW  Elec       q    Type
REMARK                         _______ _______ _______ _____ _____    ______ ____
ROOT
ATOM      1  C   UNL     1     102.473 125.402  82.825  0.00  0.00    +0.000 C 
ATOM      2  O   UNL     1     102.420 125.269  84.040  0.00  0.00    +0.000 OA
ENDROOT
BRANCH   1   7
ATOM      3  C   UNL     1     104.908 129.117  80.599  0.00  0.00    +0.000 C 
ATOM      4  C   UNL     1     104.869 127.605  80.814  0.00  0.00    +0.000 C 
ATOM      5  C   UNL     1     105.007 127.266  82.302  0.00  0.00    +0.000 C 
ATOM      6  C   UNL     1     104.957 125.758  82.540  0.00  0.00    +0.000 C 
ATOM      7  C   UNL     1     103.696 125.109  81.960  0.00  0.00    +0.000 C 
ATOM      8  C   UNL     1     103.478 125.505  80.492  0.00  0.00    +0.000 C 
ATOM      9  C   UNL     1     103.578 127.010  80.242  0.00  0.00    +0.000 C 
ENDBRANCH   1   7
BRANCH   1  10
ATOM     10  O   UNL     1     101.449 125.864  81.999  0.00  0.00    +0.000 OA
BRANCH  10  11
ATOM     11  C   UNL     1     100.717 126.911  82.558  0.00  0.00    +0.000 A 
ATOM     12  C   UNL     1     101.396 127.984  83.131  0.00  0.00    +0.000 A 
ATOM     13  C   UNL     1     100.665 129.056  83.641  0.00  0.00    +0.000 A 
ATOM     14  C   UNL     1      99.270 129.051  83.561  0.00  0.00    +0.000 A 
ATOM     15  C   UNL     1      98.603 127.977  82.967  0.00  0.00    +0.000 A 
ATOM     16  C   UNL     1      99.328 126.902  82.455  0.00  0.00    +0.000 A 
ENDBRANCH  10  11
ENDBRANCH   1  10
TORSDOF 3
ENDMDL
