MODEL 1
REMARK VINA RESULT:      -5.0      0.000      0.000
REMARK  Name = *****
REMARK  2 active torsions:
REMARK  status: ('A' for Active; 'I' for Inactive)
REMARK    1  A    between atoms: C_4  and  C_7
REMARK    2  A    between atoms: C_8  and  C_9
REMARK                            x       y       z     vdW  Elec       q    Type
REMARK                         _______ _______ _______ _____ _____    ______ ____
ROOT
ATOM      1  C   UNL     1     101.956 126.241  82.185  0.00  0.00    +0.000 C 
ATOM      2  C   UNL     1     102.835 125.500  81.834  0.00  0.00    +0.000 C 
ENDROOT
BRANCH   2   3
ATOM      3  C   UNL     1     103.880 124.617  81.416  0.00  0.00    +0.000 A 
ATOM      4  C   UNL     1     104.454 124.765  80.151  0.00  0.00    +0.000 A 
ATOM      5  C   UNL     1     105.468 123.898  79.756  0.00  0.00    +0.000 A 
ATOM      6  C   UNL     1     105.910 122.892  80.608  0.00  0.00    +0.000 A 
ATOM      7  C   UNL     1     105.344 122.739  81.870  0.00  0.00    +0.000 A 
ATOM      8  C   UNL     1     104.325 123.604  82.275  0.00  0.00    +0.000 A 
ATOM      9  F   UNL     1     106.887 122.060  80.222  0.00  0.00    +0.000 F 
ATOM     10  F   UNL     1     106.017 124.041  78.542  0.00  0.00    +0.000 F 
ENDBRANCH   2   3
BRANCH   1  14
ATOM     11  C   UNL     1      98.859 128.836  83.412  0.00  0.00    +0.000 A 
ATOM     12  C   UNL     1     100.189 129.168  83.668  0.00  0.00    +0.000 A 
ATOM     13  C   UNL     1     101.214 128.311  83.262  0.00  0.00    +0.000 A 
ATOM     14  C   UNL     1     100.907 127.119  82.600  0.00  0.00    +0.000 A 
ATOM     15  C   UNL     1      99.574 126.788  82.345  0.00  0.00    +0.000 A 
ATOM     16  C   UNL     1      98.551 127.647  82.751  0.00  0.00    +0.000 A 
ENDBRANCH   1  14
TORSDOF 2
ENDMDL
