MODEL 1
REMARK VINA RESULT:      -4.1      0.000      0.000
REMARK  Name = *****
REMARK  4 active torsions:
REMARK  status: ('A' for Active; 'I' for Inactive)
REMARK    1  A    between atoms: C_4  and  O_7
REMARK    2  A    between atoms: O_7  and  C_8
REMARK    3  A    between atoms: C_8  and  O_10
REMARK    4  A    between atoms: O_10  and  C_11
REMARK                            x       y       z     vdW  Elec       q    Type
REMARK                         _______ _______ _______ _____ _____    ______ ____
ROOT
ATOM      1  C   UNL     1     103.594 128.233  82.156  0.00  0.00    +0.000 C 
ATOM      2  O   UNL     1     104.293 129.168  82.525  0.00  0.00    +0.000 OA
ENDROOT
BRANCH   1   3
ATOM      3  O   UNL     1     103.418 127.812  80.862  0.00  0.00    +0.000 OA
BRANCH   3   7
ATOM      4  C   UNL     1     105.679 124.442  79.510  0.00  0.00    +0.000 C 
ATOM      5  C   UNL     1     104.483 124.199  80.427  0.00  0.00    +0.000 C 
ATOM      6  C   UNL     1     103.497 125.369  80.363  0.00  0.00    +0.000 C 
ATOM      7  C   UNL     1     104.188 126.707  80.441  0.00  0.00    +0.000 C 
ATOM      8  C   UNL     1     105.508 126.858  80.258  0.00  0.00    +0.000 C 
ATOM      9  C   UNL     1     106.422 125.725  79.890  0.00  0.00    +0.000 C 
ENDBRANCH   3   7
ENDBRANCH   1   3
BRANCH   1  10
ATOM     10  O   UNL     1     102.841 127.416  82.959  0.00  0.00    +0.000 OA
BRANCH  10  11
ATOM     11  C   UNL     1     101.444 127.617  82.926  0.00  0.00    +0.000 C 
ATOM     12  C   UNL     1     100.651 126.651  82.438  0.00  0.00    +0.000 C 
ATOM     13  C   UNL     1      99.153 126.744  82.431  0.00  0.00    +0.000 C 
ATOM     14  C   UNL     1      98.627 128.132  82.804  0.00  0.00    +0.000 C 
ATOM     15  C   UNL     1      99.429 128.740  83.953  0.00  0.00    +0.000 C 
ATOM     16  C   UNL     1     100.910 128.864  83.582  0.00  0.00    +0.000 C 
ENDBRANCH  10  11
ENDBRANCH   1  10
TORSDOF 4
ENDMDL
