MODEL 1
REMARK VINA RESULT:      -4.8      0.000      0.000
REMARK  Name = *****
REMARK  2 active torsions:
REMARK  status: ('A' for Active; 'I' for Inactive)
REMARK    1  A    between atoms: C_5  and  C_7
REMARK    2  A    between atoms: C_8  and  C_10
REMARK                            x       y       z     vdW  Elec       q    Type
REMARK                         _______ _______ _______ _____ _____    ______ ____
ROOT
ATOM      1  C   UNL     1     101.576 126.257  82.875  0.00  0.00    +0.000 C 
ATOM      2  C   UNL     1     103.059 125.952  83.064  0.00  0.00    +0.000 C 
ATOM      3  O   UNL     1     102.054 125.403  83.928  0.00  0.00    +0.000 OA
ENDROOT
BRANCH   1   8
ATOM      4  C   UNL     1     101.283 129.832  84.235  0.00  0.00    +0.000 A 
ATOM      5  C   UNL     1      99.932 130.108  84.055  0.00  0.00    +0.000 A 
ATOM      6  C   UNL     1      99.104 129.144  83.487  0.00  0.00    +0.000 A 
ATOM      7  C   UNL     1      99.627 127.902  83.105  0.00  0.00    +0.000 A 
ATOM      8  C   UNL     1     100.989 127.586  83.289  0.00  0.00    +0.000 A 
ATOM      9  C   UNL     1     101.801 128.590  83.852  0.00  0.00    +0.000 A 
ATOM     10 CL   UNL     1      98.541 126.772  82.372  0.00  0.00    +0.000 Cl
ENDBRANCH   1   8
BRANCH   2  11
ATOM     11  C   UNL     1     103.759 124.998  82.121  0.00  0.00    +0.000 A 
ATOM     12  C   UNL     1     104.145 123.718  82.562  0.00  0.00    +0.000 A 
ATOM     13  C   UNL     1     104.801 122.815  81.720  0.00  0.00    +0.000 A 
ATOM     14  C   UNL     1     105.095 123.175  80.410  0.00  0.00    +0.000 A 
ATOM     15  C   UNL     1     104.734 124.436  79.944  0.00  0.00    +0.000 A 
ATOM     16  C   UNL     1     104.077 125.336  80.791  0.00  0.00    +0.000 A 
ATOM     17 CL   UNL     1     103.668 126.889  80.149  0.00  0.00    +0.000 Cl
ENDBRANCH   2  11
TORSDOF 2
ENDMDL
