MODEL 1
REMARK VINA RESULT:      -4.5      0.000      0.000
REMARK  Name = *****
REMARK  5 active torsions:
REMARK  status: ('A' for Active; 'I' for Inactive)
REMARK    1  A    between atoms: C_1  and  N_2
REMARK    2  A    between atoms: N_2  and  C_3
REMARK    3  A    between atoms: N_2  and  C_9
REMARK    4  A    between atoms: C_9  and  S_10
REMARK    5  A    between atoms: C_9  and  C_12
REMARK                            x       y       z     vdW  Elec       q    Type
REMARK                         _______ _______ _______ _____ _____    ______ ____
ROOT
ATOM      1  C   UNL     1     101.701 126.576  83.368  0.00  0.00    +0.000 C 
ENDROOT
BRANCH   1   2
ATOM      2  C   UNL     1     102.586 126.333  82.200  0.00  0.00    +0.000 A 
ATOM      3  C   UNL     1     103.128 125.053  82.022  0.00  0.00    +0.000 A 
ATOM      4  C   UNL     1     103.968 124.794  80.938  0.00  0.00    +0.000 A 
ATOM      5  C   UNL     1     104.271 125.812  80.033  0.00  0.00    +0.000 A 
ATOM      6  C   UNL     1     103.737 127.089  80.209  0.00  0.00    +0.000 A 
ATOM      7  C   UNL     1     102.894 127.353  81.291  0.00  0.00    +0.000 A 
ENDBRANCH   1   2
BRANCH   1   9
ATOM      8  C   UNL     1      99.410 126.891  82.528  0.00  0.00    +0.000 C 
ATOM      9  N   UNL     1     100.601 127.430  83.184  0.00  0.00    +0.000 N 
BRANCH   9  10
ATOM     10  C   UNL     1     100.586 128.810  83.598  0.00  0.00    +0.000 A 
ATOM     11  C   UNL     1     101.691 129.390  84.242  0.00  0.00    +0.000 A 
ATOM     12  C   UNL     1     101.662 130.718  84.683  0.00  0.00    +0.000 A 
ATOM     13  C   UNL     1     100.522 131.491  84.502  0.00  0.00    +0.000 A 
ATOM     14  C   UNL     1      99.409 130.933  83.884  0.00  0.00    +0.000 A 
ATOM     15  C   UNL     1      99.440 129.604  83.443  0.00  0.00    +0.000 A 
ENDBRANCH   9  10
ENDBRANCH   1   9
BRANCH   1  16
ATOM     16  S   UNL     1     102.025 125.787  84.782  0.00  0.00    +0.000 S 
ATOM     17  O   UNL     1     100.846 125.206  85.483  0.00  0.00    +0.000 OA
ENDBRANCH   1  16
TORSDOF 4
ENDMDL
