MODEL 1
REMARK VINA RESULT:      -4.9      0.000      0.000
REMARK  Name = *****
REMARK  2 active torsions:
REMARK  status: ('A' for Active; 'I' for Inactive)
REMARK    1  A    between atoms: C_4  and  C_7
REMARK    2  A    between atoms: C_8  and  C_9
REMARK                            x       y       z     vdW  Elec       q    Type
REMARK                         _______ _______ _______ _____ _____    ______ ____
ROOT
ATOM      1  C   UNL     1     101.978 125.969  82.248  0.00  0.00    +0.000 C 
ATOM      2  C   UNL     1     102.856 126.149  81.247  0.00  0.00    +0.000 C 
ENDROOT
BRANCH   2   3
ATOM      3  C   UNL     1     103.846 125.144  80.836  0.00  0.00    +0.000 A 
ATOM      4  C   UNL     1     104.660 125.313  79.710  0.00  0.00    +0.000 A 
ATOM      5  C   UNL     1     105.604 124.343  79.383  0.00  0.00    +0.000 A 
ATOM      6  C   UNL     1     105.766 123.205  80.163  0.00  0.00    +0.000 A 
ATOM      7  C   UNL     1     104.974 123.033  81.295  0.00  0.00    +0.000 A 
ATOM      8  C   UNL     1     104.023 124.001  81.633  0.00  0.00    +0.000 A 
ATOM      9  F   UNL     1     106.373 124.514  78.300  0.00  0.00    +0.000 F 
ENDBRANCH   2   3
BRANCH   1  13
ATOM     10  C   UNL     1      99.087 128.914  83.372  0.00  0.00    +0.000 A 
ATOM     11  C   UNL     1     100.433 129.129  83.661  0.00  0.00    +0.000 A 
ATOM     12  C   UNL     1     101.387 128.172  83.306  0.00  0.00    +0.000 A 
ATOM     13  C   UNL     1     101.002 126.984  82.668  0.00  0.00    +0.000 A 
ATOM     14  C   UNL     1      99.648 126.788  82.368  0.00  0.00    +0.000 A 
ATOM     15  C   UNL     1      98.694 127.745  82.724  0.00  0.00    +0.000 A 
ENDBRANCH   1  13
TORSDOF 2
ENDMDL
