MODEL 1
REMARK VINA RESULT:      -4.4      0.000      0.000
REMARK  Name = *****
REMARK  6 active torsions:
REMARK  status: ('A' for Active; 'I' for Inactive)
REMARK    1  A    between atoms: C_1  and  O_2
REMARK    2  A    between atoms: O_2  and  C_3
REMARK    3  A    between atoms: C_8  and  P_9
REMARK    4  A    between atoms: P_9  and  C_10
REMARK    5  A    between atoms: P_9  and  C_11
REMARK    6  A    between atoms: C_11  and  C_12
REMARK                            x       y       z     vdW  Elec       q    Type
REMARK                         _______ _______ _______ _____ _____    ______ ____
ROOT
ATOM      1  P   UNL     1     102.906 125.786  83.949  0.00  0.00    +0.000 P 
ATOM      2  C   UNL     1     104.329 126.096  85.060  0.00  0.00    +0.000 C 
ENDROOT
BRANCH   1   8
ATOM      3  C   UNL     1     104.156 123.425  82.814  0.00  0.00    +0.000 A 
ATOM      4  C   UNL     1     104.714 122.753  81.715  0.00  0.00    +0.000 A 
ATOM      5  C   UNL     1     104.794 123.367  80.464  0.00  0.00    +0.000 A 
ATOM      6  C   UNL     1     104.316 124.659  80.294  0.00  0.00    +0.000 A 
ATOM      7  C   UNL     1     103.759 125.339  81.377  0.00  0.00    +0.000 A 
ATOM      8  C   UNL     1     103.668 124.740  82.650  0.00  0.00    +0.000 A 
BRANCH   3  10
ATOM      9  C   UNL     1     104.448 121.515  84.228  0.00  0.00    +0.000 C 
ATOM     10  O   UNL     1     104.051 122.869  84.063  0.00  0.00    +0.000 OA
ENDBRANCH   3  10
ENDBRANCH   1   8
BRANCH   1  11
ATOM     11  C   UNL     1     102.735 127.405  83.118  0.00  0.00    +0.000 C 
BRANCH  11  12
ATOM     12  C   UNL     1     101.244 127.618  83.016  0.00  0.00    +0.000 A 
ATOM     13  C   UNL     1     100.418 126.633  82.448  0.00  0.00    +0.000 A 
ATOM     14  C   UNL     1      99.036 126.818  82.373  0.00  0.00    +0.000 A 
ATOM     15  C   UNL     1      98.460 127.985  82.870  0.00  0.00    +0.000 A 
ATOM     16  C   UNL     1      99.263 128.968  83.444  0.00  0.00    +0.000 A 
ATOM     17  C   UNL     1     100.645 128.785  83.520  0.00  0.00    +0.000 A 
ENDBRANCH  11  12
ENDBRANCH   1  11
TORSDOF 4
ENDMDL
