MODEL 1
REMARK VINA RESULT:      -4.8      0.000      0.000
REMARK  Name = *****
REMARK  3 active torsions:
REMARK  status: ('A' for Active; 'I' for Inactive)
REMARK    1  A    between atoms: C_1  and  C_2
REMARK    2  A    between atoms: C_3  and  C_9
REMARK    3  A    between atoms: C_10  and  C_11
REMARK                            x       y       z     vdW  Elec       q    Type
REMARK                         _______ _______ _______ _____ _____    ______ ____
ROOT
ATOM      1  C   UNL     1     106.087 126.126  80.935  0.00  0.00    +0.000 C 
ATOM      2  C   UNL     1     105.298 125.435  79.805  0.00  0.00    +0.000 C 
ATOM      3  C   UNL     1     104.063 124.657  80.337  0.00  0.00    +0.000 C 
ATOM      4  C   UNL     1     104.475 123.433  81.171  0.00  0.00    +0.000 C 
ATOM      5  C   UNL     1     105.402 122.499  80.392  0.00  0.00    +0.000 C 
ATOM      6  C   UNL     1     106.597 123.229  79.781  0.00  0.00    +0.000 C 
ATOM      7  C   UNL     1     106.141 124.445  78.978  0.00  0.00    +0.000 C 
ATOM      8 BR   UNL     1     107.683 125.304  78.142  0.00  0.00    +0.000 Br
ENDROOT
BRANCH   3   9
ATOM      9  C   UNL     1     103.140 125.522  81.096  0.00  0.00    +0.000 C 
ATOM     10  C   UNL     1     102.389 126.225  81.715  0.00  0.00    +0.000 C 
BRANCH  10  11
ATOM     11  C   UNL     1     101.500 127.074  82.447  0.00  0.00    +0.000 A 
ATOM     12  C   UNL     1     100.128 126.811  82.450  0.00  0.00    +0.000 A 
ATOM     13  C   UNL     1      99.260 127.640  83.163  0.00  0.00    +0.000 A 
ATOM     14  C   UNL     1      99.761 128.731  83.873  0.00  0.00    +0.000 A 
ATOM     15  C   UNL     1     101.131 128.995  83.869  0.00  0.00    +0.000 A 
ATOM     16  C   UNL     1     102.001 128.167  83.157  0.00  0.00    +0.000 A 
ENDBRANCH  10  11
ENDBRANCH   3   9
TORSDOF 2
ENDMDL
