REMARK  Name = *****
REMARK  5 active torsions:
REMARK  status: ('A' for Active; 'I' for Inactive)
REMARK    1  A    between atoms: C_1  and  O_2
REMARK    2  A    between atoms: O_2  and  C_3
REMARK    3  A    between atoms: C_6  and  C_9
REMARK    4  A    between atoms: C_9  and  S_11
REMARK    5  A    between atoms: S_11  and  C_12
REMARK                            x       y       z     vdW  Elec       q    Type
REMARK                         _______ _______ _______ _____ _____    ______ ____
ROOT
ATOM      1  C   UNL     1       5.699  -3.502   3.474  0.00  0.00    +0.000 C 
ATOM      2  O   UNL     1       5.642  -4.696   3.205  0.00  0.00    +0.000 OA
ENDROOT
BRANCH   1   6
ATOM      3  C   UNL     1       3.347  -0.745   1.129  0.00  0.00    +0.000 A 
ATOM      4  C   UNL     1       3.322  -2.115   0.877  0.00  0.00    +0.000 A 
ATOM      5  C   UNL     1       4.095  -2.986   1.655  0.00  0.00    +0.000 A 
ATOM      6  C   UNL     1       4.905  -2.503   2.696  0.00  0.00    +0.000 A 
ATOM      7  C   UNL     1       4.925  -1.125   2.942  0.00  0.00    +0.000 A 
ATOM      8  C   UNL     1       4.151  -0.258   2.161  0.00  0.00    +0.000 A 
BRANCH   3  10
ATOM      9  C   UNL     1       1.796  -0.235  -0.600  0.00  0.00    +0.000 C 
ATOM     10  O   UNL     1       2.646   0.212   0.450  0.00  0.00    +0.000 OA
ENDBRANCH   3  10
ENDBRANCH   1   6
BRANCH   1  11
ATOM     11  S   UNL     1       6.707  -2.939   4.803  0.00  0.00    +0.000 S 
BRANCH  11  12
ATOM     12  C   UNL     1       8.309  -2.962   4.022  0.00  0.00    +0.000 A 
ATOM     13  C   UNL     1       8.843  -4.139   3.486  0.00  0.00    +0.000 A 
ATOM     14  C   UNL     1      10.107  -4.134   2.888  0.00  0.00    +0.000 A 
ATOM     15  C   UNL     1      10.842  -2.953   2.834  0.00  0.00    +0.000 A 
ATOM     16  C   UNL     1      10.326  -1.777   3.375  0.00  0.00    +0.000 A 
ATOM     17  C   UNL     1       9.062  -1.783   3.971  0.00  0.00    +0.000 A 
ATOM     18 CL   UNL     1      12.398  -2.945   2.100  0.00  0.00    +0.000 Cl
ENDBRANCH  11  12
ENDBRANCH   1  11
TORSDOF 4
