MODEL 1
REMARK VINA RESULT:      -4.9      0.000      0.000
REMARK  Name = *****
REMARK  3 active torsions:
REMARK  status: ('A' for Active; 'I' for Inactive)
REMARK    1  A    between atoms: C_1  and  C_2
REMARK    2  A    between atoms: C_5  and  C_8
REMARK    3  A    between atoms: N_9  and  C_10
REMARK                            x       y       z     vdW  Elec       q    Type
REMARK                         _______ _______ _______ _____ _____    ______ ____
ROOT
ATOM      1  C   UNL     1     104.068 124.738  81.895  0.00  0.00    +0.000 A 
ATOM      2  C   UNL     1     104.604 124.754  80.601  0.00  0.00    +0.000 A 
ATOM      3  C   UNL     1     105.320 123.667  80.107  0.00  0.00    +0.000 A 
ATOM      4  C   UNL     1     105.522 122.549  80.900  0.00  0.00    +0.000 A 
ATOM      5  C   UNL     1     105.009 122.514  82.188  0.00  0.00    +0.000 A 
ATOM      6  C   UNL     1     104.294 123.600  82.684  0.00  0.00    +0.000 A 
ATOM      7  F   UNL     1     103.809 123.542  83.934  0.00  0.00    +0.000 F 
ATOM      8  F   UNL     1     105.201 121.432  82.957  0.00  0.00    +0.000 F 
ATOM      9  F   UNL     1     106.209 121.501  80.423  0.00  0.00    +0.000 F 
ATOM     10  F   UNL     1     105.815 123.702  78.861  0.00  0.00    +0.000 F 
ATOM     11  F   UNL     1     104.423 125.826  79.812  0.00  0.00    +0.000 F 
ENDROOT
BRANCH   1  13
ATOM     12  C   UNL     1     102.094 125.900  82.273  0.00  0.00    +0.000 C 
ATOM     13  N   UNL     1     103.385 125.875  82.379  0.00  0.00    +0.000 NA
BRANCH  12  18
ATOM     14  C   UNL     1      99.025 130.417  84.158  0.00  0.00    +0.000 C 
ATOM     15  C   UNL     1      99.813 129.227  83.691  0.00  0.00    +0.000 A 
ATOM     16  C   UNL     1      99.171 128.157  83.056  0.00  0.00    +0.000 A 
ATOM     17  C   UNL     1      99.907 127.065  82.592  0.00  0.00    +0.000 A 
ATOM     18  C   UNL     1     101.294 127.042  82.753  0.00  0.00    +0.000 A 
ATOM     19  C   UNL     1     101.947 128.111  83.371  0.00  0.00    +0.000 A 
ATOM     20  C   UNL     1     101.207 129.202  83.834  0.00  0.00    +0.000 A 
ENDBRANCH  12  18
ENDBRANCH   1  13
TORSDOF 2
ENDMDL
