MODEL 1
REMARK VINA RESULT:      -4.5      0.000      0.000
REMARK  Name = *****
REMARK  5 active torsions:
REMARK  status: ('A' for Active; 'I' for Inactive)
REMARK    1  A    between atoms: C_1  and  C_2
REMARK    2  A    between atoms: C_5  and  C_8
REMARK    3  A    between atoms: C_8  and  C_9
REMARK    4  A    between atoms: C_8  and  O_10
REMARK    5  A    between atoms: O_10  and  C_11
REMARK                            x       y       z     vdW  Elec       q    Type
REMARK                         _______ _______ _______ _____ _____    ______ ____
ROOT
ATOM      1  C   UNL     1      87.569  63.417  87.842  0.00  0.00    +0.000 C 
ATOM      2  C   UNL     1      86.289  62.628  87.546  0.00  0.00    +0.000 C 
ENDROOT
BRANCH   1   7
ATOM      3  C   UNL     1      88.154  64.686  93.522  0.00  0.00    +0.000 C 
ATOM      4  C   UNL     1      88.012  64.387  92.061  0.00  0.00    +0.000 A 
ATOM      5  C   UNL     1      86.758  64.392  91.445  0.00  0.00    +0.000 A 
ATOM      6  C   UNL     1      86.635  64.084  90.087  0.00  0.00    +0.000 A 
ATOM      7  C   UNL     1      87.761  63.764  89.311  0.00  0.00    +0.000 A 
ATOM      8  C   UNL     1      89.010  63.728  89.945  0.00  0.00    +0.000 A 
ATOM      9  C   UNL     1      89.135  64.041  91.303  0.00  0.00    +0.000 A 
ENDBRANCH   1   7
BRANCH   1  10
ATOM     10  O   UNL     1      87.558  64.664  87.129  0.00  0.00    +0.000 OA
BRANCH  10  11
ATOM     11  C   UNL     1      88.747  64.991  86.531  0.00  0.00    +0.000 A 
ATOM     12  C   UNL     1      89.579  64.004  85.993  0.00  0.00    +0.000 A 
ATOM     13  C   UNL     1      90.803  64.356  85.422  0.00  0.00    +0.000 A 
ATOM     14  C   UNL     1      91.213  65.689  85.408  0.00  0.00    +0.000 A 
ATOM     15  C   UNL     1      90.401  66.673  85.975  0.00  0.00    +0.000 A 
ATOM     16  C   UNL     1      89.175  66.324  86.544  0.00  0.00    +0.000 A 
ATOM     17 CL   UNL     1      88.204  67.573  87.237  0.00  0.00    +0.000 Cl
ENDBRANCH  10  11
ENDBRANCH   1  10
TORSDOF 3
ENDMDL
