MODEL 1
REMARK VINA RESULT:      -4.6      0.000      0.000
REMARK  Name = *****
REMARK  1 active torsions:
REMARK  status: ('A' for Active; 'I' for Inactive)
REMARK    1  A    between atoms: C_6  and  C_11
REMARK                            x       y       z     vdW  Elec       q    Type
REMARK                         _______ _______ _______ _____ _____    ______ ____
ROOT
ATOM      1  C   UNL     1      99.273 129.646  83.880  0.00  0.00    +0.000 A 
ATOM      2  C   UNL     1     100.558 129.864  84.185  0.00  0.00    +0.000 A 
ATOM      3  C   UNL     1     101.722 129.062  83.887  0.00  0.00    +0.000 A 
ATOM      4  C   UNL     1     101.769 127.905  83.216  0.00  0.00    +0.000 A 
ATOM      5  C   UNL     1     102.990 127.165  82.955  0.00  0.00    +0.000 A 
ATOM      6  C   UNL     1     102.660 126.063  82.250  0.00  0.00    +0.000 A 
ATOM      7  C   UNL     1     101.206 126.083  82.056  0.00  0.00    +0.000 A 
ATOM      8  C   UNL     1     100.659 127.176  82.625  0.00  0.00    +0.000 A 
ATOM      9  C   UNL     1      99.253 127.474  82.618  0.00  0.00    +0.000 A 
ATOM     10  C   UNL     1      98.666 128.546  83.166  0.00  0.00    +0.000 A 
ENDROOT
BRANCH   6  11
ATOM     11  C   UNL     1     103.540 125.044  81.764  0.00  0.00    +0.000 A 
ATOM     12  C   UNL     1     104.041 124.023  82.551  0.00  0.00    +0.000 A 
ATOM     13  S   UNL     1     105.066 122.959  81.684  0.00  0.00    +0.000 S 
ATOM     14  C   UNL     1     104.855 123.850  80.242  0.00  0.00    +0.000 A 
ATOM     15  C   UNL     1     104.021 124.933  80.420  0.00  0.00    +0.000 A 
ENDBRANCH   6  11
TORSDOF 1
ENDMDL
