MODEL 1
REMARK VINA RESULT:      -4.8      0.000      0.000
REMARK  Name = *****
REMARK  2 active torsions:
REMARK  status: ('A' for Active; 'I' for Inactive)
REMARK    1  A    between atoms: C_4  and  C_7
REMARK    2  A    between atoms: C_14  and  C_15
REMARK                            x       y       z     vdW  Elec       q    Type
REMARK                         _______ _______ _______ _____ _____    ______ ____
ROOT
ATOM      1  C   UNL     1      88.386  69.961  86.403  0.00  0.00    +0.000 C 
ATOM      2  C   UNL     1      88.585  68.671  86.092  0.00  0.00    +0.000 C 
ATOM      3  C   UNL     1      88.318  67.437  86.810  0.00  0.00    +0.000 A 
ATOM      4  C   UNL     1      89.182  66.516  86.243  0.00  0.00    +0.000 A 
ATOM      5  C   UNL     1      89.320  65.207  86.688  0.00  0.00    +0.000 A 
ATOM      6  C   UNL     1      88.529  64.798  87.756  0.00  0.00    +0.000 A 
ATOM      7  C   UNL     1      87.591  65.683  88.302  0.00  0.00    +0.000 A 
ATOM      8  C   UNL     1      87.455  66.999  87.806  0.00  0.00    +0.000 A 
ATOM      9  C   UNL     1      89.842  67.108  85.087  0.00  0.00    +0.000 C 
ATOM     10  O   UNL     1      90.631  66.543  84.355  0.00  0.00    +0.000 OA
ATOM     11  O   UNL     1      89.370  68.386  84.953  0.00  0.00    +0.000 OA
ENDROOT
BRANCH   1  15
ATOM     12  C   UNL     1      86.852  71.750  89.957  0.00  0.00    +0.000 A 
ATOM     13  C   UNL     1      88.112  71.155  89.973  0.00  0.00    +0.000 A 
ATOM     14  C   UNL     1      88.621  70.561  88.816  0.00  0.00    +0.000 A 
ATOM     15  C   UNL     1      87.862  70.543  87.640  0.00  0.00    +0.000 A 
ATOM     16  C   UNL     1      86.610  71.170  87.624  0.00  0.00    +0.000 A 
ATOM     17  C   UNL     1      86.103  71.763  88.781  0.00  0.00    +0.000 A 
ENDBRANCH   1  15
BRANCH   8  18
ATOM     18  C   UNL     1      86.293  67.773  88.301  0.00  0.00    +0.000 C 
ATOM     19  O   UNL     1      86.268  68.016  89.506  0.00  0.00    +0.000 OA
ATOM     20 CL   UNL     1      84.987  68.094  87.185  0.00  0.00    +0.000 Cl
ENDBRANCH   8  18
TORSDOF 2
ENDMDL
