MODEL 1
REMARK VINA RESULT:      -4.2      0.000      0.000
REMARK  Name = *****
REMARK  3 active torsions:
REMARK  status: ('A' for Active; 'I' for Inactive)
REMARK    1  A    between atoms: C_1  and  C_2
REMARK    2  A    between atoms: C_6  and  C_16
REMARK    3  A    between atoms: N_8  and  C_10
REMARK                            x       y       z     vdW  Elec       q    Type
REMARK                         _______ _______ _______ _____ _____    ______ ____
ROOT
ATOM      1  C   UNL     1      85.525  63.770  86.017  0.00  0.00    +0.000 C 
ATOM      2  C   UNL     1      86.190  63.001  87.164  0.00  0.00    +0.000 C 
ATOM      3  C   UNL     1      85.057  62.691  88.169  0.00  0.00    +0.000 C 
ATOM      4  C   UNL     1      85.545  61.953  89.403  0.00  0.00    +0.000 C 
ATOM      5  C   UNL     1      86.577  62.801  90.122  0.00  0.00    +0.000 C 
ATOM      6  C   UNL     1      87.789  63.065  89.224  0.00  0.00    +0.000 C 
ATOM      7  C   UNL     1      87.387  63.662  87.858  0.00  0.00    +0.000 C 
ATOM      8  N   UNL     1      88.535  64.249  87.161  0.00  0.00    +0.000 NA
ATOM      9  O   UNL     1      87.499  65.083  87.746  0.00  0.00    +0.000 OA
ATOM     10  C   UNL     1      88.797  63.912  90.018  0.00  0.00    +0.000 C 
ENDROOT
BRANCH   8  11
ATOM     11  C   UNL     1      88.555  64.605  85.748  0.00  0.00    +0.000 C 
ATOM     12  C   UNL     1      89.603  63.770  84.991  0.00  0.00    +0.000 C 
ATOM     13  C   UNL     1      91.039  64.057  85.431  0.00  0.00    +0.000 C 
ATOM     14  C   UNL     1      91.371  65.541  85.325  0.00  0.00    +0.000 C 
ATOM     15  C   UNL     1      90.361  66.403  86.076  0.00  0.00    +0.000 C 
ATOM     16  C   UNL     1      88.926  66.102  85.638  0.00  0.00    +0.000 C 
ENDBRANCH   8  11
TORSDOF 1
ENDMDL
