MODEL 1
REMARK VINA RESULT:      -4.3      0.000      0.000
REMARK  Name = *****
REMARK  4 active torsions:
REMARK  status: ('A' for Active; 'I' for Inactive)
REMARK    1  A    between atoms: C_4  and  O_7
REMARK    2  A    between atoms: O_7  and  C_8
REMARK    3  A    between atoms: C_8  and  C_9
REMARK    4  A    between atoms: C_12  and  S_15
REMARK                            x       y       z     vdW  Elec       q    Type
REMARK                         _______ _______ _______ _____ _____    ______ ____
ROOT
ATOM      1  C   UNL     1     103.575 124.885  82.027  0.00  0.00    +0.000 A 
ATOM      2  C   UNL     1     104.053 124.479  80.778  0.00  0.00    +0.000 A 
ATOM      3  C   UNL     1     104.799 123.313  80.622  0.00  0.00    +0.000 A 
ATOM      4  C   UNL     1     105.087 122.523  81.734  0.00  0.00    +0.000 A 
ATOM      5  C   UNL     1     104.635 122.923  82.995  0.00  0.00    +0.000 A 
ATOM      6  C   UNL     1     103.887 124.097  83.142  0.00  0.00    +0.000 A 
ATOM      7  F   UNL     1     103.797 125.228  79.695  0.00  0.00    +0.000 F 
ENDROOT
BRANCH   4   8
ATOM      8  S   UNL     1     106.048 121.036  81.571  0.00  0.00    +0.000 S 
ATOM      9  H   UNL     1     107.339 121.291  81.915  0.00  0.00    +0.000 HD
ENDBRANCH   4   8
BRANCH   1  10
ATOM     10  C   UNL     1     102.804 126.176  82.131  0.00  0.00    +0.000 C 
BRANCH  10  11
ATOM     11  O   UNL     1     101.397 125.927  82.130  0.00  0.00    +0.000 OA
BRANCH  11  15
ATOM     12  C   UNL     1      99.344 129.412  83.411  0.00  0.00    +0.000 C 
ATOM     13  C   UNL     1      98.529 128.130  83.272  0.00  0.00    +0.000 C 
ATOM     14  C   UNL     1      99.264 127.079  82.447  0.00  0.00    +0.000 C 
ATOM     15  C   UNL     1     100.662 126.788  83.005  0.00  0.00    +0.000 C 
ATOM     16  C   UNL     1     101.469 128.084  83.136  0.00  0.00    +0.000 C 
ATOM     17  C   UNL     1     100.737 129.132  83.968  0.00  0.00    +0.000 C 
ENDBRANCH  11  15
ENDBRANCH  10  11
ENDBRANCH   1  10
TORSDOF 4
ENDMDL
