REMARK  Name = *****
REMARK  4 active torsions:
REMARK  status: ('A' for Active; 'I' for Inactive)
REMARK    1  A    between atoms: C_3  and  C_17
REMARK    2  A    between atoms: C_6  and  C_7
REMARK    3  A    between atoms: C_7  and  N_8
REMARK    4  A    between atoms: N_8  and  C_9
REMARK                            x       y       z     vdW  Elec       q    Type
REMARK                         _______ _______ _______ _____ _____    ______ ____
ROOT
ATOM      1  C   UNL     1       1.304  -0.391  -0.404  0.00  0.00    +0.000 A 
ATOM      2  C   UNL     1       0.304  -1.357  -0.245  0.00  0.00    +0.000 A 
ATOM      3  C   UNL     1      -0.998  -0.990   0.125  0.00  0.00    +0.000 A 
ATOM      4  C   UNL     1      -1.277   0.366   0.344  0.00  0.00    +0.000 A 
ATOM      5  C   UNL     1      -0.278   1.332   0.186  0.00  0.00    +0.000 A 
ATOM      6  C   UNL     1       1.021   0.957  -0.180  0.00  0.00    +0.000 A 
ENDROOT
BRANCH   3   7
ATOM      7  C   UNL     1      -2.068  -2.037   0.319  0.00  0.00    +0.000 C 
ATOM      8  F   UNL     1      -1.885  -3.142  -0.456  0.00  0.00    +0.000 F 
ATOM      9  F   UNL     1      -2.127  -2.484   1.603  0.00  0.00    +0.000 F 
ATOM     10  F   UNL     1      -3.317  -1.580   0.024  0.00  0.00    +0.000 F 
ENDBRANCH   3   7
BRANCH   6  11
ATOM     11  C   UNL     1       1.990   2.056  -0.335  0.00  0.00    +0.000 C 
BRANCH  11  12
ATOM     12  N   UNL     1       3.299   1.941  -0.380  0.00  0.00    +0.000 N 
ATOM     13  O   UNL     1       3.919   0.832  -0.304  0.00  0.00    +0.000 OA
BRANCH  12  14
ATOM     14  C   UNL     1       4.071   3.165  -0.545  0.00  0.00    +0.000 A 
ATOM     15  C   UNL     1       3.907   4.239   0.339  0.00  0.00    +0.000 A 
ATOM     16  C   UNL     1       4.673   5.393   0.165  0.00  0.00    +0.000 A 
ATOM     17  C   UNL     1       5.600   5.463  -0.876  0.00  0.00    +0.000 A 
ATOM     18  C   UNL     1       5.775   4.385  -1.746  0.00  0.00    +0.000 A 
ATOM     19  C   UNL     1       5.013   3.228  -1.578  0.00  0.00    +0.000 A 
ATOM     20 CL   UNL     1       6.541   6.888  -1.084  0.00  0.00    +0.000 Cl
ENDBRANCH  12  14
ENDBRANCH  11  12
ENDBRANCH   6  11
TORSDOF 4
