MODEL 1
REMARK VINA RESULT:      -4.7      0.000      0.000
REMARK  Name = *****
REMARK  3 active torsions:
REMARK  status: ('A' for Active; 'I' for Inactive)
REMARK    1  A    between atoms: C_2  and  C_12
REMARK    2  A    between atoms: C_3  and  C_4
REMARK    3  A    between atoms: C_7  and  C_10
REMARK                            x       y       z     vdW  Elec       q    Type
REMARK                         _______ _______ _______ _____ _____    ______ ____
ROOT
ATOM      1  C   UNL     1      89.778  65.741  85.933  0.00  0.00    +0.000 C 
ATOM      2  C   UNL     1      88.523  66.186  86.640  0.00  0.00    +0.000 C 
ATOM      3  C   UNL     1      89.776  67.052  86.675  0.00  0.00    +0.000 C 
ENDROOT
BRANCH   3   4
ATOM      4  C   UNL     1      89.806  68.357  85.915  0.00  0.00    +0.000 A 
ATOM      5  C   UNL     1      89.678  69.591  86.578  0.00  0.00    +0.000 A 
ATOM      6  C   UNL     1      89.719  70.801  85.882  0.00  0.00    +0.000 A 
ATOM      7  C   UNL     1      89.897  70.797  84.499  0.00  0.00    +0.000 A 
ATOM      8  C   UNL     1      90.038  69.591  83.813  0.00  0.00    +0.000 A 
ATOM      9  C   UNL     1      89.995  68.385  84.523  0.00  0.00    +0.000 A 
BRANCH   7  10
ATOM     10  C   UNL     1      89.943  72.068  83.750  0.00  0.00    +0.000 C 
ATOM     11  O   UNL     1      89.473  73.107  84.196  0.00  0.00    +0.000 OA
ENDBRANCH   7  10
ENDBRANCH   3   4
BRANCH   2  12
ATOM     12  C   UNL     1      88.066  65.475  87.891  0.00  0.00    +0.000 A 
ATOM     13  C   UNL     1      87.004  65.969  88.667  0.00  0.00    +0.000 A 
ATOM     14  C   UNL     1      86.568  65.303  89.816  0.00  0.00    +0.000 A 
ATOM     15  C   UNL     1      87.184  64.119  90.209  0.00  0.00    +0.000 A 
ATOM     16  C   UNL     1      88.230  63.601  89.453  0.00  0.00    +0.000 A 
ATOM     17  C   UNL     1      88.662  64.272  88.306  0.00  0.00    +0.000 A 
ENDBRANCH   2  12
TORSDOF 3
ENDMDL
