MODEL 1
REMARK VINA RESULT:      -4.4      0.000      0.000
REMARK  Name = *****
REMARK  5 active torsions:
REMARK  status: ('A' for Active; 'I' for Inactive)
REMARK    1  A    between atoms: C_1  and  C_2
REMARK    2  A    between atoms: C_5  and  S_8
REMARK    3  A    between atoms: S_8  and  O_10
REMARK    4  A    between atoms: O_10  and  C_11
REMARK    5  A    between atoms: C_11  and  C_18
REMARK                            x       y       z     vdW  Elec       q    Type
REMARK                         _______ _______ _______ _____ _____    ______ ____
ROOT
ATOM      1  S   UNL     1      87.164  66.474  87.714  0.00  0.00    +0.000 S 
ATOM      2  O   UNL     1      87.194  65.774  89.041  0.00  0.00    +0.000 OA
ENDROOT
BRANCH   1   7
ATOM      3  C   UNL     1      92.045  64.419  84.645  0.00  0.00    +0.000 C 
ATOM      4  C   UNL     1      90.865  64.926  85.421  0.00  0.00    +0.000 A 
ATOM      5  C   UNL     1      89.835  64.053  85.791  0.00  0.00    +0.000 A 
ATOM      6  C   UNL     1      88.719  64.528  86.484  0.00  0.00    +0.000 A 
ATOM      7  C   UNL     1      88.615  65.884  86.809  0.00  0.00    +0.000 A 
ATOM      8  C   UNL     1      89.636  66.760  86.430  0.00  0.00    +0.000 A 
ATOM      9  C   UNL     1      90.751  66.285  85.734  0.00  0.00    +0.000 A 
ENDBRANCH   1   7
BRANCH   1  10
ATOM     10  O   UNL     1      87.805  67.940  87.917  0.00  0.00    +0.000 OA
BRANCH  10  11
ATOM     11  C   UNL     1      86.972  69.079  87.674  0.00  0.00    +0.000 C 
ATOM     12  C   UNL     1      87.057  70.202  88.735  0.00  0.00    +0.000 C 
ATOM     13  C   UNL     1      88.572  70.511  88.784  0.00  0.00    +0.000 C 
ATOM     14  C   UNL     1      89.000  70.343  87.318  0.00  0.00    +0.000 C 
ATOM     15  C   UNL     1      87.670  69.978  86.618  0.00  0.00    +0.000 C 
ATOM     16  C   UNL     1      86.807  71.255  86.585  0.00  0.00    +0.000 C 
ATOM     17  C   UNL     1      86.362  71.396  88.050  0.00  0.00    +0.000 C 
ATOM     18  C   UNL     1      85.567  68.621  87.256  0.00  0.00    +0.000 C 
ENDBRANCH  10  11
ENDBRANCH   1  10
TORSDOF 3
ENDMDL
