MODEL 1
REMARK VINA RESULT:      -4.9      0.000      0.000
REMARK  Name = *****
REMARK  1 active torsions:
REMARK  status: ('A' for Active; 'I' for Inactive)
REMARK    1  A    between atoms: N_11  and  C_12
REMARK                            x       y       z     vdW  Elec       q    Type
REMARK                         _______ _______ _______ _____ _____    ______ ____
ROOT
ATOM      1  C   UNL     1     103.594 127.432  79.928  0.00  0.00    +0.000 C 
ATOM      2  C   UNL     1     103.387 126.334  80.659  0.00  0.00    +0.000 C 
ATOM      3  C   UNL     1     103.951 124.969  80.531  0.00  0.00    +0.000 C 
ATOM      4  C   UNL     1     105.290 124.692  79.865  0.00  0.00    +0.000 C 
ATOM      5  C   UNL     1     105.635 123.205  80.041  0.00  0.00    +0.000 C 
ATOM      6  C   UNL     1     105.550 122.731  81.501  0.00  0.00    +0.000 C 
ATOM      7  C   UNL     1     104.246 123.149  82.196  0.00  0.00    +0.000 C 
ATOM      8  C   UNL     1     104.035 124.643  82.008  0.00  0.00    +0.000 C 
ATOM      9  O   UNL     1     102.823 125.146  82.558  0.00  0.00    +0.000 OA
ATOM     10  C   UNL     1     102.524 126.298  81.873  0.00  0.00    +0.000 C 
ATOM     11  N   UNL     1     101.636 127.150  82.222  0.00  0.00    +0.000 NA
ENDROOT
BRANCH  11  12
ATOM     12  C   UNL     1     100.901 126.882  83.466  0.00  0.00    +0.000 C 
ATOM     13  C   UNL     1      99.393 126.848  83.188  0.00  0.00    +0.000 C 
ATOM     14  C   UNL     1      98.833 128.215  82.795  0.00  0.00    +0.000 C 
ATOM     15  C   UNL     1      99.181 129.283  83.825  0.00  0.00    +0.000 C 
ATOM     16  C   UNL     1     100.683 129.352  84.079  0.00  0.00    +0.000 C 
ATOM     17  C   UNL     1     101.251 127.988  84.472  0.00  0.00    +0.000 C 
ENDBRANCH  11  12
TORSDOF 1
ENDMDL
