REMARK  Name = *****
REMARK  3 active torsions:
REMARK  status: ('A' for Active; 'I' for Inactive)
REMARK    1  A    between atoms: C_4  and  N_7
REMARK    2  A    between atoms: N_7  and  C_8
REMARK    3  A    between atoms: C_8  and  C_9
REMARK                            x       y       z     vdW  Elec       q    Type
REMARK                         _______ _______ _______ _____ _____    ______ ____
ROOT
ATOM      1  C   UNL     1      -3.335   1.494  -0.205  0.00  0.00    +0.000 C 
ENDROOT
BRANCH   1   2
ATOM      2  C   UNL     1      -4.775   1.777  -0.371  0.00  0.00    +0.000 A 
ATOM      3  C   UNL     1      -5.445   2.605   0.549  0.00  0.00    +0.000 A 
ATOM      4  C   UNL     1      -6.802   2.900   0.343  0.00  0.00    +0.000 A 
ATOM      5  C   UNL     1      -7.477   2.386  -0.769  0.00  0.00    +0.000 A 
ATOM      6  C   UNL     1      -6.806   1.578  -1.683  0.00  0.00    +0.000 A 
ATOM      7  C   UNL     1      -5.458   1.279  -1.489  0.00  0.00    +0.000 A 
ATOM      8 CL   UNL     1      -7.711   3.902   1.422  0.00  0.00    +0.000 Cl
ATOM      9 CL   UNL     1      -4.612   3.230   1.940  0.00  0.00    +0.000 Cl
ENDBRANCH   1   2
BRANCH   1  10
ATOM     10  N   UNL     1      -2.783   0.325  -0.441  0.00  0.00    +0.000 N 
ATOM     11  O   UNL     1      -3.457  -0.698  -0.794  0.00  0.00    +0.000 OA
BRANCH  10  15
ATOM     12  C   UNL     1       1.388  -0.117   0.183  0.00  0.00    +0.000 A 
ATOM     13  C   UNL     1       0.495  -1.054   0.705  0.00  0.00    +0.000 A 
ATOM     14  C   UNL     1      -0.875  -0.902   0.497  0.00  0.00    +0.000 A 
ATOM     15  C   UNL     1      -1.348   0.197  -0.228  0.00  0.00    +0.000 A 
ATOM     16  C   UNL     1      -0.454   1.129  -0.769  0.00  0.00    +0.000 A 
ATOM     17  C   UNL     1       0.916   0.970  -0.555  0.00  0.00    +0.000 A 
ENDBRANCH  10  15
ENDBRANCH   1  10
TORSDOF 3
