MODEL 1
REMARK VINA RESULT:      -4.8      0.000      0.000
REMARK  Name = *****
REMARK  3 active torsions:
REMARK  status: ('A' for Active; 'I' for Inactive)
REMARK    1  A    between atoms: C_3  and  C_8
REMARK    2  A    between atoms: C_8  and  C_9
REMARK    3  A    between atoms: C_9  and  C_11
REMARK                            x       y       z     vdW  Elec       q    Type
REMARK                         _______ _______ _______ _____ _____    ______ ____
ROOT
ATOM      1  C   UNL     1     103.510 127.412  82.001  0.00  0.00    +0.000 C 
ATOM      2  O   UNL     1     103.770 128.305  81.193  0.00  0.00    +0.000 OA
ENDROOT
BRANCH   1   3
ATOM      3  C   UNL     1     103.884 126.001  81.669  0.00  0.00    +0.000 A 
ATOM      4  C   UNL     1     104.225 125.587  80.375  0.00  0.00    +0.000 A 
ATOM      5  C   UNL     1     104.574 124.254  80.131  0.00  0.00    +0.000 A 
ATOM      6  C   UNL     1     104.582 123.331  81.175  0.00  0.00    +0.000 A 
ATOM      7  C   UNL     1     104.239 123.727  82.464  0.00  0.00    +0.000 A 
ATOM      8  C   UNL     1     103.889 125.058  82.710  0.00  0.00    +0.000 A 
ATOM      9 CL   UNL     1     105.017 121.695  80.868  0.00  0.00    +0.000 Cl
ENDBRANCH   1   3
BRANCH   1  10
ATOM     10  C   UNL     1     102.819 127.728  83.314  0.00  0.00    +0.000 C 
BRANCH  10  13
ATOM     11  C   UNL     1      99.290 129.181  83.486  0.00  0.00    +0.000 A 
ATOM     12  C   UNL     1     100.674 129.041  83.616  0.00  0.00    +0.000 A 
ATOM     13  C   UNL     1     101.320 127.868  83.193  0.00  0.00    +0.000 A 
ATOM     14  C   UNL     1     100.553 126.849  82.614  0.00  0.00    +0.000 A 
ATOM     15  C   UNL     1      99.175 126.999  82.491  0.00  0.00    +0.000 A 
ATOM     16  C   UNL     1      98.536 128.154  82.924  0.00  0.00    +0.000 A 
ATOM     17  F   UNL     1      98.453 126.012  81.944  0.00  0.00    +0.000 F 
ENDBRANCH  10  13
ENDBRANCH   1  10
TORSDOF 3
ENDMDL
