MODEL 1
REMARK VINA RESULT:      -4.4      0.000      0.000
REMARK  Name = *****
REMARK  4 active torsions:
REMARK  status: ('A' for Active; 'I' for Inactive)
REMARK    1  A    between atoms: C_1  and  C_2
REMARK    2  A    between atoms: C_6  and  O_8
REMARK    3  A    between atoms: O_8  and  C_9
REMARK    4  A    between atoms: C_9  and  C_11
REMARK                            x       y       z     vdW  Elec       q    Type
REMARK                         _______ _______ _______ _____ _____    ______ ____
ROOT
ATOM      1  O   UNL     1     100.477 126.854  83.349  0.00  0.00    +0.000 OA
ENDROOT
BRANCH   1   7
ATOM      2  C   UNL     1     103.654 127.603  80.269  0.00  0.00    +0.000 C 
ATOM      3  C   UNL     1     103.766 127.780  81.786  0.00  0.00    +0.000 C 
ATOM      4  C   UNL     1     104.507 126.599  82.441  0.00  0.00    +0.000 C 
ATOM      5  C   UNL     1     103.633 125.406  82.702  0.00  0.00    +0.000 C 
ATOM      6  C   UNL     1     102.292 125.453  82.656  0.00  0.00    +0.000 C 
ATOM      7  C   UNL     1     101.510 126.705  82.359  0.00  0.00    +0.000 C 
ATOM      8  C   UNL     1     102.389 127.965  82.439  0.00  0.00    +0.000 C 
ENDBRANCH   1   7
BRANCH   1   9
ATOM      9  C   UNL     1      99.351 127.492  82.954  0.00  0.00    +0.000 C 
ATOM     10  O   UNL     1      98.647 127.190  82.003  0.00  0.00    +0.000 OA
BRANCH   9  11
ATOM     11  C   UNL     1      99.062 128.643  83.852  0.00  0.00    +0.000 A 
ATOM     12  C   UNL     1      99.517 129.913  83.468  0.00  0.00    +0.000 A 
ATOM     13  C   UNL     1      99.271 131.024  84.276  0.00  0.00    +0.000 A 
ATOM     14  C   UNL     1      98.570 130.874  85.472  0.00  0.00    +0.000 A 
ATOM     15  C   UNL     1      98.114 129.616  85.862  0.00  0.00    +0.000 A 
ATOM     16  C   UNL     1      98.358 128.501  85.056  0.00  0.00    +0.000 A 
ENDBRANCH   9  11
ENDBRANCH   1   9
TORSDOF 3
ENDMDL
