MODEL 1
REMARK VINA RESULT:      -5.1      0.000      0.000
REMARK  Name = *****
REMARK  4 active torsions:
REMARK  status: ('A' for Active; 'I' for Inactive)
REMARK    1  A    between atoms: C_1  and  O_2
REMARK    2  A    between atoms: O_2  and  C_3
REMARK    3  A    between atoms: C_6  and  C_9
REMARK    4  A    between atoms: C_10  and  C_11
REMARK                            x       y       z     vdW  Elec       q    Type
REMARK                         _______ _______ _______ _____ _____    ______ ____
ROOT
ATOM      1  C   UNL     1     101.399 127.030  82.768  0.00  0.00    +0.000 A 
ATOM      2  C   UNL     1     100.031 126.941  82.472  0.00  0.00    +0.000 A 
ATOM      3  C   UNL     1      99.145 127.954  82.839  0.00  0.00    +0.000 A 
ATOM      4  C   UNL     1      99.604 129.069  83.521  0.00  0.00    +0.000 A 
ATOM      5  C   UNL     1     100.947 129.173  83.843  0.00  0.00    +0.000 A 
ATOM      6  C   UNL     1     101.833 128.162  83.476  0.00  0.00    +0.000 A 
ATOM      7  F   UNL     1     103.128 128.288  83.810  0.00  0.00    +0.000 F 
ATOM      8  F   UNL     1     101.396 130.245  84.512  0.00  0.00    +0.000 F 
ATOM      9  F   UNL     1      98.750 130.040  83.875  0.00  0.00    +0.000 F 
ATOM     10  F   UNL     1      97.844 127.842  82.537  0.00  0.00    +0.000 F 
ATOM     11  F   UNL     1      99.536 125.867  81.838  0.00  0.00    +0.000 F 
ENDROOT
BRANCH   1  13
ATOM     12  C   UNL     1     102.995 125.852  81.244  0.00  0.00    +0.000 C 
ATOM     13  C   UNL     1     102.384 125.985  82.433  0.00  0.00    +0.000 C 
BRANCH  12  17
ATOM     14  C   UNL     1     105.940 122.819  80.498  0.00  0.00    +0.000 A 
ATOM     15  C   UNL     1     105.787 123.871  79.596  0.00  0.00    +0.000 A 
ATOM     16  C   UNL     1     104.825 124.863  79.825  0.00  0.00    +0.000 A 
ATOM     17  C   UNL     1     103.995 124.812  80.952  0.00  0.00    +0.000 A 
ATOM     18  C   UNL     1     104.167 123.764  81.862  0.00  0.00    +0.000 A 
ATOM     19  C   UNL     1     105.127 122.774  81.632  0.00  0.00    +0.000 A 
BRANCH  14  21
ATOM     20  C   UNL     1     107.029 120.990  81.555  0.00  0.00    +0.000 C 
ATOM     21  O   UNL     1     106.837 121.792  80.396  0.00  0.00    +0.000 OA
ENDBRANCH  14  21
ENDBRANCH  12  17
ENDBRANCH   1  13
TORSDOF 3
ENDMDL
