MODEL 1
REMARK VINA RESULT:      -4.8      0.000      0.000
REMARK  Name = *****
REMARK  4 active torsions:
REMARK  status: ('A' for Active; 'I' for Inactive)
REMARK    1  A    between atoms: C_6  and  C_7
REMARK    2  A    between atoms: C_7  and  C_8
REMARK    3  A    between atoms: C_8  and  C_9
REMARK    4  A    between atoms: C_8  and  C_11
REMARK                            x       y       z     vdW  Elec       q    Type
REMARK                         _______ _______ _______ _____ _____    ______ ____
ROOT
ATOM      1  C   UNL     1     103.062 127.197  81.344  0.00  0.00    +0.000 C 
ENDROOT
BRANCH   1   2
ATOM      2  C   UNL     1     103.640 125.786  81.412  0.00  0.00    +0.000 A 
ATOM      3  C   UNL     1     104.130 125.173  80.248  0.00  0.00    +0.000 A 
ATOM      4  C   UNL     1     104.655 123.879  80.289  0.00  0.00    +0.000 A 
ATOM      5  C   UNL     1     104.693 123.186  81.496  0.00  0.00    +0.000 A 
ATOM      6  C   UNL     1     104.213 123.775  82.663  0.00  0.00    +0.000 A 
ATOM      7  C   UNL     1     103.688 125.069  82.622  0.00  0.00    +0.000 A 
ATOM      8 BR   UNL     1     105.402 121.435  81.551  0.00  0.00    +0.000 Br
ENDBRANCH   1   2
BRANCH   1   9
ATOM      9  C   UNL     1     104.043 128.153  80.784  0.00  0.00    +0.000 C 
ATOM     10  N   UNL     1     104.797 128.916  80.338  0.00  0.00    +0.000 NA
ENDBRANCH   1   9
BRANCH   1  11
ATOM     11  C   UNL     1     102.580 127.653  82.737  0.00  0.00    +0.000 C 
BRANCH  11  17
ATOM     12  C   UNL     1     100.409 128.683  83.543  0.00  0.00    +0.000 A 
ATOM     13  C   UNL     1      99.018 128.677  83.653  0.00  0.00    +0.000 A 
ATOM     14  C   UNL     1      98.291 127.632  83.099  0.00  0.00    +0.000 A 
ATOM     15  C   UNL     1      98.928 126.591  82.435  0.00  0.00    +0.000 A 
ATOM     16  C   UNL     1     100.319 126.594  82.321  0.00  0.00    +0.000 A 
ATOM     17  C   UNL     1     101.072 127.641  82.877  0.00  0.00    +0.000 A 
ATOM     18  F   UNL     1      96.956 127.626  83.205  0.00  0.00    +0.000 F 
ENDBRANCH  11  17
ENDBRANCH   1  11
TORSDOF 4
ENDMDL
