MODEL 1
REMARK VINA RESULT:      -4.6      0.000      0.000
REMARK  Name = *****
REMARK  5 active torsions:
REMARK  status: ('A' for Active; 'I' for Inactive)
REMARK    1  A    between atoms: C_1  and  N_2
REMARK    2  A    between atoms: N_2  and  C_3
REMARK    3  A    between atoms: N_2  and  C_9
REMARK    4  A    between atoms: C_9  and  S_10
REMARK    5  A    between atoms: C_9  and  C_12
REMARK                            x       y       z     vdW  Elec       q    Type
REMARK                         _______ _______ _______ _____ _____    ______ ____
ROOT
ATOM      1  C   UNL     1     101.596 126.440  83.493  0.00  0.00    +0.000 C 
ENDROOT
BRANCH   1   2
ATOM      2  C   UNL     1     102.562 126.151  82.401  0.00  0.00    +0.000 A 
ATOM      3  C   UNL     1     102.802 127.072  81.373  0.00  0.00    +0.000 A 
ATOM      4  C   UNL     1     103.712 126.761  80.357  0.00  0.00    +0.000 A 
ATOM      5  C   UNL     1     104.377 125.536  80.371  0.00  0.00    +0.000 A 
ATOM      6  C   UNL     1     104.141 124.614  81.390  0.00  0.00    +0.000 A 
ATOM      7  C   UNL     1     103.232 124.919  82.407  0.00  0.00    +0.000 A 
ATOM      8 CL   UNL     1     105.493 125.157  79.119  0.00  0.00    +0.000 Cl
ENDBRANCH   1   2
BRANCH   1  10
ATOM      9  C   UNL     1      99.416 126.850  82.430  0.00  0.00    +0.000 C 
ATOM     10  N   UNL     1     100.550 127.334  83.217  0.00  0.00    +0.000 N 
BRANCH  10  11
ATOM     11  C   UNL     1     100.535 128.705  83.660  0.00  0.00    +0.000 A 
ATOM     12  C   UNL     1      99.408 129.518  83.470  0.00  0.00    +0.000 A 
ATOM     13  C   UNL     1      99.406 130.863  83.859  0.00  0.00    +0.000 A 
ATOM     14  C   UNL     1     100.539 131.426  84.436  0.00  0.00    +0.000 A 
ATOM     15  C   UNL     1     101.674 130.645  84.618  0.00  0.00    +0.000 A 
ATOM     16  C   UNL     1     101.673 129.301  84.228  0.00  0.00    +0.000 A 
ENDBRANCH  10  11
ENDBRANCH   1  10
BRANCH   1  17
ATOM     17  S   UNL     1     101.844 125.744  84.970  0.00  0.00    +0.000 S 
ATOM     18  O   UNL     1     100.642 125.144  85.612  0.00  0.00    +0.000 OA
ENDBRANCH   1  17
TORSDOF 4
ENDMDL
