MODEL 1
REMARK VINA RESULT:      -5.2      0.000      0.000
REMARK  Name = *****
REMARK  1 active torsions:
REMARK  status: ('A' for Active; 'I' for Inactive)
REMARK    1  A    between atoms: C_5  and  C_6
REMARK                            x       y       z     vdW  Elec       q    Type
REMARK                         _______ _______ _______ _____ _____    ______ ____
ROOT
ATOM      1  C   UNL     1      86.965  69.041  88.896  0.00  0.00    +0.000 C 
ATOM      2  C   UNL     1      87.157  70.534  89.236  0.00  0.00    +0.000 C 
ATOM      3  C   UNL     1      88.321  70.894  88.296  0.00  0.00    +0.000 C 
ATOM      4  C   UNL     1      87.601  70.443  87.007  0.00  0.00    +0.000 C 
ATOM      5  C   UNL     1      87.221  68.971  87.348  0.00  0.00    +0.000 C 
ATOM      6  C   UNL     1      86.343  71.271  87.171  0.00  0.00    +0.000 A 
ATOM      7  C   UNL     1      85.514  71.868  86.245  0.00  0.00    +0.000 A 
ATOM      8  C   UNL     1      84.387  72.535  86.731  0.00  0.00    +0.000 A 
ATOM      9  C   UNL     1      84.108  72.580  88.113  0.00  0.00    +0.000 A 
ATOM     10  C   UNL     1      84.952  71.960  89.039  0.00  0.00    +0.000 A 
ATOM     11  C   UNL     1      86.065  71.316  88.548  0.00  0.00    +0.000 A 
ENDROOT
BRANCH   5  12
ATOM     12  C   UNL     1      88.215  67.882  86.990  0.00  0.00    +0.000 A 
ATOM     13  C   UNL     1      89.401  68.118  86.281  0.00  0.00    +0.000 A 
ATOM     14  C   UNL     1      90.274  67.068  85.979  0.00  0.00    +0.000 A 
ATOM     15  C   UNL     1      89.975  65.768  86.380  0.00  0.00    +0.000 A 
ATOM     16  C   UNL     1      88.800  65.515  87.081  0.00  0.00    +0.000 A 
ATOM     17  C   UNL     1      87.929  66.563  87.382  0.00  0.00    +0.000 A 
ENDBRANCH   5  12
TORSDOF 1
ENDMDL
