REMARK  Name = *****
REMARK  3 active torsions:
REMARK  status: ('A' for Active; 'I' for Inactive)
REMARK    1  A    between atoms: C_4  and  C_7
REMARK    2  A    between atoms: C_8  and  C_9
REMARK    3  A    between atoms: C_12  and  C_15
REMARK                            x       y       z     vdW  Elec       q    Type
REMARK                         _______ _______ _______ _____ _____    ______ ____
ROOT
ATOM      1  C   UNL     1      -2.836   0.441  -0.315  0.00  0.00    +0.000 C 
ATOM      2  C   UNL     1      -3.748  -0.536  -0.451  0.00  0.00    +0.000 C 
ENDROOT
BRANCH   1   6
ATOM      3  C   UNL     1       1.361  -0.164   0.249  0.00  0.00    +0.000 A 
ATOM      4  C   UNL     1       0.657  -1.002  -0.613  0.00  0.00    +0.000 A 
ATOM      5  C   UNL     1      -0.716  -0.820  -0.801  0.00  0.00    +0.000 A 
ATOM      6  C   UNL     1      -1.400   0.195  -0.120  0.00  0.00    +0.000 A 
ATOM      7  C   UNL     1      -0.677   1.042   0.731  0.00  0.00    +0.000 A 
ATOM      8  C   UNL     1       0.695   0.859   0.919  0.00  0.00    +0.000 A 
ENDBRANCH   1   6
BRANCH   2   9
ATOM      9  C   UNL     1      -5.186  -0.292  -0.627  0.00  0.00    +0.000 A 
ATOM     10  C   UNL     1      -5.675   0.751  -1.425  0.00  0.00    +0.000 A 
ATOM     11  C   UNL     1      -7.052   0.933  -1.595  0.00  0.00    +0.000 A 
ATOM     12  C   UNL     1      -7.956   0.065  -0.976  0.00  0.00    +0.000 A 
ATOM     13  C   UNL     1      -7.477  -0.988  -0.192  0.00  0.00    +0.000 A 
ATOM     14  C   UNL     1      -6.100  -1.167  -0.025  0.00  0.00    +0.000 A 
BRANCH  12  15
ATOM     15  C   UNL     1      -9.367   0.250  -1.150  0.00  0.00    +0.000 C 
ATOM     16  N   UNL     1     -10.509   0.400  -1.291  0.00  0.00    +0.000 NA
ENDBRANCH  12  15
ENDBRANCH   2   9
TORSDOF 3
