MODEL 1
REMARK VINA RESULT:      -4.8      0.000      0.000
REMARK  Name = *****
REMARK  2 active torsions:
REMARK  status: ('A' for Active; 'I' for Inactive)
REMARK    1  A    between atoms: N_11  and  C_12
REMARK    2  A    between atoms: C_13  and  C_14
REMARK                            x       y       z     vdW  Elec       q    Type
REMARK                         _______ _______ _______ _____ _____    ______ ____
ROOT
ATOM      1  C   UNL     1      86.860  70.907  85.774  0.00  0.00    +0.000 C 
ATOM      2  C   UNL     1      86.629  71.246  87.247  0.00  0.00    +0.000 C 
ATOM      3  C   UNL     1      87.401  70.450  88.308  0.00  0.00    +0.000 C 
ATOM      4  C   UNL     1      87.478  68.939  88.085  0.00  0.00    +0.000 C 
ATOM      5  C   UNL     1      88.495  68.494  87.086  0.00  0.00    +0.000 A 
ATOM      6  C   UNL     1      89.306  69.155  86.180  0.00  0.00    +0.000 A 
ATOM      7  C   UNL     1      89.451  70.606  85.901  0.00  0.00    +0.000 C 
ATOM      8  C   UNL     1      88.244  71.232  85.206  0.00  0.00    +0.000 C 
ATOM      9  N   UNL     1      90.047  68.243  85.480  0.00  0.00    +0.000 NA
ATOM     10  N   UNL     1      89.728  67.032  85.911  0.00  0.00    +0.000 NA
ATOM     11  N   UNL     1      88.792  67.163  86.870  0.00  0.00    +0.000 N 
ENDROOT
BRANCH  11  12
ATOM     12  C   UNL     1      88.197  66.048  87.547  0.00  0.00    +0.000 C 
ATOM     13  C   UNL     1      87.700  65.117  88.120  0.00  0.00    +0.000 C 
BRANCH  13  14
ATOM     14  C   UNL     1      87.107  64.010  88.802  0.00  0.00    +0.000 A 
ATOM     15  C   UNL     1      86.730  64.133  90.142  0.00  0.00    +0.000 A 
ATOM     16  C   UNL     1      86.149  63.051  90.807  0.00  0.00    +0.000 A 
ATOM     17  C   UNL     1      85.946  61.846  90.134  0.00  0.00    +0.000 A 
ATOM     18  C   UNL     1      86.321  61.722  88.797  0.00  0.00    +0.000 A 
ATOM     19  C   UNL     1      86.902  62.802  88.131  0.00  0.00    +0.000 A 
ENDBRANCH  13  14
ENDBRANCH  11  12
TORSDOF 2
ENDMDL
