MODEL 1
REMARK VINA RESULT:      -4.6      0.000      0.000
REMARK  Name = *****
REMARK  4 active torsions:
REMARK  status: ('A' for Active; 'I' for Inactive)
REMARK    1  A    between atoms: C_1  and  C_10
REMARK    2  A    between atoms: C_2  and  C_3
REMARK    3  A    between atoms: C_3  and  C_4
REMARK    4  A    between atoms: C_13  and  C_16
REMARK                            x       y       z     vdW  Elec       q    Type
REMARK                         _______ _______ _______ _____ _____    ______ ____
ROOT
ATOM      1  C   UNL     1      89.495  69.754  86.913  0.00  0.00    +0.000 C 
ATOM      2  C   UNL     1      89.676  68.485  86.512  0.00  0.00    +0.000 C 
ENDROOT
BRANCH   1   3
ATOM      3  C   UNL     1      88.202  70.434  86.979  0.00  0.00    +0.000 A 
ATOM      4  C   UNL     1      87.575  70.890  85.816  0.00  0.00    +0.000 A 
ATOM      5  C   UNL     1      86.341  71.542  85.891  0.00  0.00    +0.000 A 
ATOM      6  C   UNL     1      85.714  71.735  87.128  0.00  0.00    +0.000 A 
ATOM      7  C   UNL     1      86.353  71.289  88.291  0.00  0.00    +0.000 A 
ATOM      8  C   UNL     1      87.586  70.636  88.217  0.00  0.00    +0.000 A 
ATOM      9  C   UNL     1      84.407  72.465  87.212  0.00  0.00    +0.000 C 
ENDBRANCH   1   3
BRANCH   2  10
ATOM     10  C   UNL     1      88.624  67.513  86.052  0.00  0.00    +0.000 C 
BRANCH  10  11
ATOM     11  C   UNL     1      88.105  66.659  87.186  0.00  0.00    +0.000 A 
ATOM     12  C   UNL     1      88.726  65.443  87.509  0.00  0.00    +0.000 A 
ATOM     13  C   UNL     1      88.231  64.651  88.546  0.00  0.00    +0.000 A 
ATOM     14  C   UNL     1      87.111  65.062  89.266  0.00  0.00    +0.000 A 
ATOM     15  C   UNL     1      86.482  66.265  88.948  0.00  0.00    +0.000 A 
ATOM     16  C   UNL     1      86.974  67.058  87.911  0.00  0.00    +0.000 A 
ENDBRANCH  10  11
ENDBRANCH   2  10
TORSDOF 3
ENDMDL
