MODEL 1
REMARK VINA RESULT:      -4.8      0.000      0.000
REMARK  Name = *****
REMARK  4 active torsions:
REMARK  status: ('A' for Active; 'I' for Inactive)
REMARK    1  A    between atoms: C_1  and  C_2
REMARK    2  A    between atoms: C_4  and  N_8
REMARK    3  A    between atoms: N_8  and  O_19
REMARK    4  A    between atoms: C_9  and  C_11
REMARK                            x       y       z     vdW  Elec       q    Type
REMARK                         _______ _______ _______ _____ _____    ______ ____
ROOT
ATOM      1  N   UNL     1      88.383  63.943  87.857  0.00  0.00    +0.000 N 
ATOM      2  C   UNL     1      86.996  63.857  87.917  0.00  0.00    +0.000 C 
ATOM      3  O   UNL     1      86.181  64.382  87.162  0.00  0.00    +0.000 OA
ENDROOT
BRANCH   2   4
ATOM      4  C   UNL     1      86.421  63.078  89.034  0.00  0.00    +0.000 A 
ATOM      5  C   UNL     1      86.132  63.651  90.278  0.00  0.00    +0.000 A 
ATOM      6  C   UNL     1      85.611  62.857  91.303  0.00  0.00    +0.000 A 
ATOM      7  C   UNL     1      85.393  61.497  91.084  0.00  0.00    +0.000 A 
ATOM      8  C   UNL     1      85.697  60.916  89.853  0.00  0.00    +0.000 A 
ATOM      9  C   UNL     1      86.218  61.706  88.826  0.00  0.00    +0.000 A 
ATOM     10 CL   UNL     1      84.751  60.522  92.348  0.00  0.00    +0.000 Cl
ATOM     11 CL   UNL     1      86.415  65.322  90.616  0.00  0.00    +0.000 Cl
ENDBRANCH   2   4
BRANCH   1  15
ATOM     12  C   UNL     1      89.926  68.364  86.183  0.00  0.00    +0.000 C 
ATOM     13  C   UNL     1      89.928  66.867  86.090  0.00  0.00    +0.000 A 
ATOM     14  C   UNL     1      89.165  66.095  86.982  0.00  0.00    +0.000 A 
ATOM     15  C   UNL     1      89.166  64.688  86.933  0.00  0.00    +0.000 A 
ATOM     16  C   UNL     1      89.974  64.072  85.970  0.00  0.00    +0.000 A 
ATOM     17  C   UNL     1      90.752  64.830  85.089  0.00  0.00    +0.000 A 
ATOM     18  C   UNL     1      90.734  66.220  85.151  0.00  0.00    +0.000 A 
ENDBRANCH   1  15
BRANCH   1  19
ATOM     19  O   UNL     1      89.101  63.375  88.938  0.00  0.00    +0.000 OA
ATOM     20  H   UNL     1      89.421  62.494  88.686  0.00  0.00    +0.000 HD
ENDBRANCH   1  19
TORSDOF 3
ENDMDL
