MODEL 1
REMARK VINA RESULT:      -4.9      0.000      0.000
REMARK  Name = *****
REMARK  3 active torsions:
REMARK  status: ('A' for Active; 'I' for Inactive)
REMARK    1  A    between atoms: C_1  and  C_2
REMARK    2  A    between atoms: C_10  and  C_11
REMARK    3  A    between atoms: C_11  and  C_12
REMARK                            x       y       z     vdW  Elec       q    Type
REMARK                         _______ _______ _______ _____ _____    ______ ____
ROOT
ATOM      1  C   UNL     1      84.136  72.361  88.512  0.00  0.00    +0.000 C 
ATOM      2  C   UNL     1      84.950  72.104  87.277  0.00  0.00    +0.000 A 
ATOM      3  C   UNL     1      86.228  71.520  87.376  0.00  0.00    +0.000 A 
ATOM      4  C   UNL     1      86.970  71.277  86.202  0.00  0.00    +0.000 A 
ATOM      5  C   UNL     1      86.398  71.616  84.983  0.00  0.00    +0.000 A 
ATOM      6  C   UNL     1      85.136  72.186  84.840  0.00  0.00    +0.000 A 
ATOM      7  C   UNL     1      84.419  72.422  86.018  0.00  0.00    +0.000 A 
ATOM      8  O   UNL     1      87.240  71.305  83.961  0.00  0.00    +0.000 OA
ATOM      9  C   UNL     1      88.355  70.770  84.519  0.00  0.00    +0.000 A 
ATOM     10  C   UNL     1      88.258  70.729  85.898  0.00  0.00    +0.000 A 
ENDROOT
BRANCH  10  11
ATOM     11  C   UNL     1      89.270  70.194  86.850  0.00  0.00    +0.000 C 
BRANCH  11  12
ATOM     12  C   UNL     1      89.096  68.694  86.861  0.00  0.00    +0.000 A 
ATOM     13  C   UNL     1      90.067  67.856  86.291  0.00  0.00    +0.000 A 
ATOM     14  C   UNL     1      89.903  66.470  86.302  0.00  0.00    +0.000 A 
ATOM     15  C   UNL     1      88.768  65.905  86.880  0.00  0.00    +0.000 A 
ATOM     16  C   UNL     1      87.796  66.724  87.448  0.00  0.00    +0.000 A 
ATOM     17  C   UNL     1      87.958  68.111  87.439  0.00  0.00    +0.000 A 
ENDBRANCH  11  12
ENDBRANCH  10  11
TORSDOF 2
ENDMDL
