MODEL 1
REMARK VINA RESULT:      -5.1      0.000      0.000
REMARK  Name = *****
REMARK  6 active torsions:
REMARK  status: ('A' for Active; 'I' for Inactive)
REMARK    1  A    between atoms: C_1  and  C_2
REMARK    2  A    between atoms: C_4  and  C_8
REMARK    3  A    between atoms: C_8  and  O_10
REMARK    4  A    between atoms: O_10  and  C_11
REMARK    5  A    between atoms: C_13  and  C_18
REMARK    6  A    between atoms: C_15  and  C_17
REMARK                            x       y       z     vdW  Elec       q    Type
REMARK                         _______ _______ _______ _____ _____    ______ ____
ROOT
ATOM      1  C   UNL     1      88.150  70.486  87.975  0.00  0.00    +0.000 C 
ATOM      2  O   UNL     1      88.718  70.511  89.056  0.00  0.00    +0.000 OA
ENDROOT
BRANCH   1   6
ATOM      3  C   UNL     1      84.641  72.406  84.878  0.00  0.00    +0.000 C 
ATOM      4  C   UNL     1      85.125  72.069  86.259  0.00  0.00    +0.000 A 
ATOM      5  C   UNL     1      86.369  71.446  86.438  0.00  0.00    +0.000 A 
ATOM      6  C   UNL     1      86.841  71.154  87.727  0.00  0.00    +0.000 A 
ATOM      7  C   UNL     1      86.062  71.500  88.839  0.00  0.00    +0.000 A 
ATOM      8  C   UNL     1      84.832  72.136  88.666  0.00  0.00    +0.000 A 
ATOM      9  C   UNL     1      84.369  72.424  87.382  0.00  0.00    +0.000 A 
ENDBRANCH   1   6
BRANCH   1  10
ATOM     10  O   UNL     1      88.585  69.870  86.813  0.00  0.00    +0.000 OA
BRANCH  10  11
ATOM     11  C   UNL     1      88.685  68.470  86.817  0.00  0.00    +0.000 A 
ATOM     12  C   UNL     1      87.772  67.668  87.499  0.00  0.00    +0.000 A 
ATOM     13  C   UNL     1      87.941  66.279  87.509  0.00  0.00    +0.000 A 
ATOM     14  C   UNL     1      89.062  65.721  86.874  0.00  0.00    +0.000 A 
ATOM     15  C   UNL     1      90.002  66.534  86.222  0.00  0.00    +0.000 A 
ATOM     16  C   UNL     1      89.801  67.917  86.190  0.00  0.00    +0.000 A 
ATOM     17  C   UNL     1      91.178  65.922  85.521  0.00  0.00    +0.000 C 
ATOM     18  C   UNL     1      86.968  65.404  88.241  0.00  0.00    +0.000 C 
ENDBRANCH  10  11
ENDBRANCH   1  10
TORSDOF 3
ENDMDL
