REMARK  Name = *****
REMARK  4 active torsions:
REMARK  status: ('A' for Active; 'I' for Inactive)
REMARK    1  A    between atoms: C_1  and  C_2
REMARK    2  A    between atoms: C_5  and  S_7
REMARK    3  A    between atoms: S_7  and  C_8
REMARK    4  A    between atoms: C_8  and  C_9
REMARK                            x       y       z     vdW  Elec       q    Type
REMARK                         _______ _______ _______ _____ _____    ______ ____
ROOT
ATOM      1  C   UNL     1       4.004   1.046  -0.036  0.00  0.00    +0.000 C 
ENDROOT
BRANCH   1   2
ATOM      2  C   UNL     1       5.259   1.888  -0.082  0.00  0.00    +0.000 A 
ATOM      3  C   UNL     1       5.833   2.333  -1.286  0.00  0.00    +0.000 A 
ATOM      4  C   UNL     1       6.985   3.125  -1.279  0.00  0.00    +0.000 A 
ATOM      5  C   UNL     1       7.569   3.485  -0.068  0.00  0.00    +0.000 A 
ATOM      6  C   UNL     1       7.014   3.063   1.136  0.00  0.00    +0.000 A 
ATOM      7  C   UNL     1       5.864   2.272   1.130  0.00  0.00    +0.000 A 
ATOM      8 CL   UNL     1       8.986   4.461  -0.059  0.00  0.00    +0.000 Cl
ATOM      9 CL   UNL     1       5.154   1.933  -2.824  0.00  0.00    +0.000 Cl
ENDBRANCH   1   2
BRANCH   1  10
ATOM     10  S   UNL     1       2.512   2.082  -0.025  0.00  0.00    +0.000 S 
BRANCH  10  15
ATOM     11  C   UNL     1      -2.073  -0.197   0.029  0.00  0.00    +0.000 C 
ATOM     12  C   UNL     1      -0.604  -0.112   0.064  0.00  0.00    +0.000 A 
ATOM     13  N   UNL     1       0.293  -1.067   0.171  0.00  0.00    +0.000 NA
ATOM     14  N   UNL     1       1.522  -0.442   0.153  0.00  0.00    +0.000 NA
ATOM     15  C   UNL     1       1.291   0.851   0.036  0.00  0.00    +0.000 A 
ATOM     16  O   UNL     1      -0.049   1.135  -0.023  0.00  0.00    +0.000 OA
ENDBRANCH  10  15
ENDBRANCH   1  10
TORSDOF 3
