REMARK  Name = *****
REMARK  7 active torsions:
REMARK  status: ('A' for Active; 'I' for Inactive)
REMARK    1  A    between atoms: C_1  and  C_2
REMARK    2  A    between atoms: C_4  and  C_8
REMARK    3  A    between atoms: C_8  and  C_10
REMARK    4  A    between atoms: C_10  and  C_11
REMARK    5  A    between atoms: C_11  and  C_12
REMARK    6  A    between atoms: C_13  and  C_19
REMARK    7  A    between atoms: C_16  and  C_18
REMARK                            x       y       z     vdW  Elec       q    Type
REMARK                         _______ _______ _______ _____ _____    ______ ____
ROOT
ATOM      1  C   UNL     1      -1.058   3.783   0.027  0.00  0.00    +0.000 C 
ENDROOT
BRANCH   1   2
ATOM      2  C   UNL     1      -1.860   2.500   0.132  0.00  0.00    +0.000 C 
ATOM      3  O   UNL     1      -3.084   2.500   0.250  0.00  0.00    +0.000 OA
BRANCH   2   7
ATOM      4  C   UNL     1       2.408  -0.209  -0.135  0.00  0.00    +0.000 C 
ATOM      5  C   UNL     1       0.911  -0.129  -0.061  0.00  0.00    +0.000 A 
ATOM      6  C   UNL     1       0.266   1.117  -0.014  0.00  0.00    +0.000 A 
ATOM      7  C   UNL     1      -1.130   1.194   0.088  0.00  0.00    +0.000 A 
ATOM      8  C   UNL     1      -1.878   0.011   0.156  0.00  0.00    +0.000 A 
ATOM      9  C   UNL     1      -1.242  -1.230   0.125  0.00  0.00    +0.000 A 
ATOM     10  C   UNL     1       0.147  -1.299   0.023  0.00  0.00    +0.000 A 
ENDBRANCH   2   7
ENDBRANCH   1   2
BRANCH   1  11
ATOM     11  C   UNL     1      -1.958   5.019   0.061  0.00  0.00    +0.000 C 
BRANCH  11  12
ATOM     12  C   UNL     1      -1.147   6.293  -0.037  0.00  0.00    +0.000 A 
ATOM     13  C   UNL     1      -0.688   6.987   1.100  0.00  0.00    +0.000 A 
ATOM     14  C   UNL     1       0.065   8.159   0.925  0.00  0.00    +0.000 A 
ATOM     15  C   UNL     1       0.378   8.630  -0.351  0.00  0.00    +0.000 A 
ATOM     16  C   UNL     1      -0.050   7.936  -1.483  0.00  0.00    +0.000 A 
ATOM     17  C   UNL     1      -0.820   6.779  -1.318  0.00  0.00    +0.000 A 
ATOM     18  C   UNL     1       0.252   8.458  -2.856  0.00  0.00    +0.000 C 
ATOM     19  C   UNL     1      -1.013   6.534   2.497  0.00  0.00    +0.000 C 
ENDBRANCH  11  12
ENDBRANCH   1  11
TORSDOF 4
