MODEL 1
REMARK VINA RESULT:      -4.6      0.000      0.000
REMARK  Name = *****
REMARK  4 active torsions:
REMARK  status: ('A' for Active; 'I' for Inactive)
REMARK    1  A    between atoms: C_1  and  C_2
REMARK    2  A    between atoms: C_4  and  C_8
REMARK    3  A    between atoms: C_8  and  S_9
REMARK    4  A    between atoms: S_9  and  C_11
REMARK                            x       y       z     vdW  Elec       q    Type
REMARK                         _______ _______ _______ _____ _____    ______ ____
ROOT
ATOM      1  C   UNL     1     100.484 126.513  83.309  0.00  0.00    +0.000 C 
ENDROOT
BRANCH   1   5
ATOM      2  C   UNL     1     104.123 124.930  80.188  0.00  0.00    +0.000 C 
ATOM      3  C   UNL     1     103.516 126.009  81.035  0.00  0.00    +0.000 A 
ATOM      4  C   UNL     1     102.323 125.777  81.735  0.00  0.00    +0.000 A 
ATOM      5  C   UNL     1     101.766 126.769  82.557  0.00  0.00    +0.000 A 
ATOM      6  C   UNL     1     102.432 127.994  82.688  0.00  0.00    +0.000 A 
ATOM      7  C   UNL     1     103.626 128.226  82.008  0.00  0.00    +0.000 A 
ATOM      8  C   UNL     1     104.168 127.237  81.188  0.00  0.00    +0.000 A 
ENDBRANCH   1   5
BRANCH   1   9
ATOM      9  S   UNL     1      99.056 127.334  82.520  0.00  0.00    +0.000 S 
ATOM     10  O   UNL     1      97.852 126.460  82.732  0.00  0.00    +0.000 OA
BRANCH   9  11
ATOM     11  C   UNL     1      98.897 128.681  83.716  0.00  0.00    +0.000 A 
ATOM     12  C   UNL     1      98.267 128.445  84.944  0.00  0.00    +0.000 A 
ATOM     13  C   UNL     1      98.134 129.475  85.876  0.00  0.00    +0.000 A 
ATOM     14  C   UNL     1      98.637 130.743  85.589  0.00  0.00    +0.000 A 
ATOM     15  C   UNL     1      99.275 130.983  84.373  0.00  0.00    +0.000 A 
ATOM     16  C   UNL     1      99.407 129.954  83.439  0.00  0.00    +0.000 A 
ENDBRANCH   9  11
ENDBRANCH   1   9
TORSDOF 3
ENDMDL
