MODEL 1
REMARK VINA RESULT:      -4.3      0.000      0.000
REMARK  Name = *****
REMARK  3 active torsions:
REMARK  status: ('A' for Active; 'I' for Inactive)
REMARK    1  A    between atoms: C_1  and  C_2
REMARK    2  A    between atoms: C_2  and  C_7
REMARK    3  A    between atoms: C_7  and  C_8
REMARK                            x       y       z     vdW  Elec       q    Type
REMARK                         _______ _______ _______ _____ _____    ______ ____
ROOT
ATOM      1  C   UNL     1      88.694  70.396  86.996  0.00  0.00    +0.000 C 
ENDROOT
BRANCH   1   2
ATOM      2  C   UNL     1      88.795  68.888  86.934  0.00  0.00    +0.000 A 
ATOM      3  C   UNL     1      87.787  68.081  87.484  0.00  0.00    +0.000 A 
ATOM      4  C   UNL     1      87.886  66.689  87.429  0.00  0.00    +0.000 A 
ATOM      5  C   UNL     1      88.993  66.096  86.826  0.00  0.00    +0.000 A 
ATOM      6  C   UNL     1      90.003  66.882  86.276  0.00  0.00    +0.000 A 
ATOM      7  C   UNL     1      89.904  68.275  86.331  0.00  0.00    +0.000 A 
ATOM      8 CL   UNL     1      89.115  64.381  86.760  0.00  0.00    +0.000 Cl
ENDBRANCH   1   2
BRANCH   1  10
ATOM      9  C   UNL     1      88.058  71.131  84.635  0.00  0.00    +0.000 C 
ATOM     10  C   UNL     1      87.634  70.971  86.073  0.00  0.00    +0.000 C 
ATOM     11  C   UNL     1      86.413  71.342  86.511  0.00  0.00    +0.000 C 
ATOM     12  C   UNL     1      85.733  71.301  87.867  0.00  0.00    +0.000 C 
ATOM     13  C   UNL     1      84.779  72.344  87.253  0.00  0.00    +0.000 C 
ATOM     14  C   UNL     1      85.194  71.932  85.827  0.00  0.00    +0.000 C 
ENDBRANCH   1  10
TORSDOF 2
ENDMDL
