MODEL 1
REMARK VINA RESULT:      -5.1      0.000      0.000
REMARK  Name = *****
REMARK  2 active torsions:
REMARK  status: ('A' for Active; 'I' for Inactive)
REMARK    1  A    between atoms: C_4  and  C_7
REMARK    2  A    between atoms: C_8  and  C_9
REMARK                            x       y       z     vdW  Elec       q    Type
REMARK                         _______ _______ _______ _____ _____    ______ ____
ROOT
ATOM      1  C   UNL     1     102.028 125.947  82.340  0.00  0.00    +0.000 C 
ATOM      2  C   UNL     1     102.891 126.051  81.316  0.00  0.00    +0.000 C 
ATOM      3  F   UNL     1     102.902 127.180  80.568  0.00  0.00    +0.000 F 
ENDROOT
BRANCH   2   4
ATOM      4  C   UNL     1     103.901 125.034  80.964  0.00  0.00    +0.000 A 
ATOM      5  C   UNL     1     104.721 125.132  79.828  0.00  0.00    +0.000 A 
ATOM      6  C   UNL     1     105.675 124.147  79.549  0.00  0.00    +0.000 A 
ATOM      7  C   UNL     1     105.819 123.068  80.409  0.00  0.00    +0.000 A 
ATOM      8  C   UNL     1     105.031 122.952  81.546  0.00  0.00    +0.000 A 
ATOM      9  C   UNL     1     104.078 123.936  81.825  0.00  0.00    +0.000 A 
ATOM     10  F   UNL     1     106.734 122.127  80.141  0.00  0.00    +0.000 F 
ENDBRANCH   2   4
BRANCH   1  14
ATOM     11  C   UNL     1      99.073 128.891  83.304  0.00  0.00    +0.000 A 
ATOM     12  C   UNL     1     100.406 129.120  83.644  0.00  0.00    +0.000 A 
ATOM     13  C   UNL     1     101.379 128.164  83.344  0.00  0.00    +0.000 A 
ATOM     14  C   UNL     1     101.030 126.963  82.712  0.00  0.00    +0.000 A 
ATOM     15  C   UNL     1      99.690 126.753  82.361  0.00  0.00    +0.000 A 
ATOM     16  C   UNL     1      98.716 127.709  82.661  0.00  0.00    +0.000 A 
ENDBRANCH   1  14
TORSDOF 2
ENDMDL
