MODEL 1
REMARK VINA RESULT:      -4.7      0.000      0.000
REMARK  Name = *****
REMARK  2 active torsions:
REMARK  status: ('A' for Active; 'I' for Inactive)
REMARK    1  A    between atoms: C_2  and  C_11
REMARK    2  A    between atoms: C_3  and  C_4
REMARK                            x       y       z     vdW  Elec       q    Type
REMARK                         _______ _______ _______ _____ _____    ______ ____
ROOT
ATOM      1  C   UNL     1      88.839  63.998  87.184  0.00  0.00    +0.000 C 
ATOM      2  C   UNL     1      88.308  64.350  88.550  0.00  0.00    +0.000 C 
ATOM      3  C   UNL     1      87.868  65.141  87.326  0.00  0.00    +0.000 C 
ENDROOT
BRANCH   3   4
ATOM      4  C   UNL     1      88.340  66.565  87.146  0.00  0.00    +0.000 A 
ATOM      5  C   UNL     1      89.507  66.861  86.422  0.00  0.00    +0.000 A 
ATOM      6  C   UNL     1      89.939  68.179  86.240  0.00  0.00    +0.000 A 
ATOM      7  C   UNL     1      89.199  69.227  86.777  0.00  0.00    +0.000 A 
ATOM      8  C   UNL     1      88.033  68.968  87.490  0.00  0.00    +0.000 A 
ATOM      9  C   UNL     1      87.608  67.647  87.667  0.00  0.00    +0.000 A 
ATOM     10 CL   UNL     1      89.726  70.849  86.556  0.00  0.00    +0.000 Cl
ENDBRANCH   3   4
BRANCH   2  11
ATOM     11  C   UNL     1      87.327  63.434  89.244  0.00  0.00    +0.000 A 
ATOM     12  C   UNL     1      86.794  63.758  90.503  0.00  0.00    +0.000 A 
ATOM     13  C   UNL     1      85.873  62.923  91.142  0.00  0.00    +0.000 A 
ATOM     14  C   UNL     1      85.459  61.745  90.526  0.00  0.00    +0.000 A 
ATOM     15  C   UNL     1      85.964  61.406  89.274  0.00  0.00    +0.000 A 
ATOM     16  C   UNL     1      86.885  62.245  88.641  0.00  0.00    +0.000 A 
ENDBRANCH   2  11
TORSDOF 2
ENDMDL
