MODEL 1
REMARK VINA RESULT:      -4.3      0.000      0.000
REMARK  Name = *****
REMARK  2 active torsions:
REMARK  status: ('A' for Active; 'I' for Inactive)
REMARK    1  A    between atoms: C_9  and  S_10
REMARK    2  A    between atoms: S_10  and  C_11
REMARK                            x       y       z     vdW  Elec       q    Type
REMARK                         _______ _______ _______ _____ _____    ______ ____
ROOT
ATOM      1  C   UNL     1      89.669  64.809  85.981  0.00  0.00    +0.000 C 
ATOM      2  C   UNL     1      90.768  65.828  85.703  0.00  0.00    +0.000 C 
ATOM      3  C   UNL     1      90.183  67.205  85.980  0.00  0.00    +0.000 C 
ATOM      4  C   UNL     1      88.873  66.996  86.747  0.00  0.00    +0.000 C 
ATOM      5  C   UNL     1      88.682  65.497  86.918  0.00  0.00    +0.000 C 
ATOM      6  C   UNL     1      87.904  67.678  85.765  0.00  0.00    +0.000 C 
ATOM      7  C   UNL     1      88.318  67.200  84.323  0.00  0.00    +0.000 C 
ATOM      8  C   UNL     1      89.633  67.950  84.753  0.00  0.00    +0.000 C 
ATOM      9  C   UNL     1      88.582  69.017  85.265  0.00  0.00    +0.000 C 
ENDROOT
BRANCH   9  10
ATOM     10  S   UNL     1      89.142  70.157  86.572  0.00  0.00    +0.000 S 
BRANCH  10  11
ATOM     11  C   UNL     1      87.552  70.865  86.947  0.00  0.00    +0.000 A 
ATOM     12  C   UNL     1      87.123  70.976  88.272  0.00  0.00    +0.000 A 
ATOM     13  C   UNL     1      85.875  71.531  88.564  0.00  0.00    +0.000 A 
ATOM     14  C   UNL     1      85.055  71.983  87.531  0.00  0.00    +0.000 A 
ATOM     15  C   UNL     1      85.482  71.884  86.207  0.00  0.00    +0.000 A 
ATOM     16  C   UNL     1      86.730  71.329  85.916  0.00  0.00    +0.000 A 
ENDBRANCH  10  11
ENDBRANCH   9  10
TORSDOF 2
ENDMDL
