MODEL 1
REMARK VINA RESULT:      -4.4      0.000      0.000
REMARK  Name = *****
REMARK  6 active torsions:
REMARK  status: ('A' for Active; 'I' for Inactive)
REMARK    1  A    between atoms: C_1  and  C_2
REMARK    2  A    between atoms: C_3  and  N_16
REMARK    3  A    between atoms: C_4  and  C_15
REMARK    4  A    between atoms: N_6  and  C_7
REMARK    5  A    between atoms: C_7  and  C_8
REMARK    6  A    between atoms: C_8  and  C_9
REMARK                            x       y       z     vdW  Elec       q    Type
REMARK                         _______ _______ _______ _____ _____    ______ ____
ROOT
ATOM      1  C   UNL     1      86.940  67.437  87.843  0.00  0.00    +0.000 C 
ATOM      2  C   UNL     1      88.254  67.277  87.168  0.00  0.00    +0.000 A 
ATOM      3  C   UNL     1      88.920  66.161  86.701  0.00  0.00    +0.000 A 
ATOM      4  C   UNL     1      90.123  66.634  86.128  0.00  0.00    +0.000 A 
ATOM      5  N   UNL     1      90.225  67.964  86.241  0.00  0.00    +0.000 NA
ATOM      6  N   UNL     1      89.099  68.327  86.891  0.00  0.00    +0.000 N 
ATOM      7  C   UNL     1      91.199  65.855  85.469  0.00  0.00    +0.000 C 
ENDROOT
BRANCH   3   8
ATOM      8  N   UNL     1      88.548  64.813  86.745  0.00  0.00    +0.000 NA
ATOM      9  O   UNL     1      88.802  64.213  87.793  0.00  0.00    +0.000 OA
ENDBRANCH   3   8
BRANCH   6  10
ATOM     10  C   UNL     1      88.918  69.733  87.214  0.00  0.00    +0.000 C 
BRANCH  10  11
ATOM     11  C   UNL     1      88.229  70.484  86.078  0.00  0.00    +0.000 C 
BRANCH  11  12
ATOM     12  C   UNL     1      86.951  71.136  86.542  0.00  0.00    +0.000 A 
ATOM     13  C   UNL     1      86.659  71.228  87.910  0.00  0.00    +0.000 A 
ATOM     14  C   UNL     1      85.465  71.811  88.339  0.00  0.00    +0.000 A 
ATOM     15  C   UNL     1      84.554  72.304  87.407  0.00  0.00    +0.000 A 
ATOM     16  C   UNL     1      84.834  72.215  86.045  0.00  0.00    +0.000 A 
ATOM     17  C   UNL     1      86.026  71.631  85.613  0.00  0.00    +0.000 A 
ENDBRANCH  11  12
ENDBRANCH  10  11
ENDBRANCH   6  10
TORSDOF 4
ENDMDL
