MODEL 1
REMARK VINA RESULT:      -4.2      0.000      0.000
REMARK  Name = *****
REMARK  3 active torsions:
REMARK  status: ('A' for Active; 'I' for Inactive)
REMARK    1  A    between atoms: C_4  and  C_7
REMARK    2  A    between atoms: C_8  and  C_9
REMARK    3  A    between atoms: C_9  and  C_10
REMARK                            x       y       z     vdW  Elec       q    Type
REMARK                         _______ _______ _______ _____ _____    ______ ____
ROOT
ATOM      1  C   UNL     1      87.250  70.928  86.464  0.00  0.00    +0.000 C 
ATOM      2  C   UNL     1      88.153  70.514  87.368  0.00  0.00    +0.000 C 
ENDROOT
BRANCH   1   6
ATOM      3  C   UNL     1      83.540  72.779  87.525  0.00  0.00    +0.000 A 
ATOM      4  C   UNL     1      83.892  72.670  86.182  0.00  0.00    +0.000 A 
ATOM      5  C   UNL     1      85.105  72.075  85.821  0.00  0.00    +0.000 A 
ATOM      6  C   UNL     1      85.983  71.592  86.799  0.00  0.00    +0.000 A 
ATOM      7  C   UNL     1      85.608  71.693  88.146  0.00  0.00    +0.000 A 
ATOM      8  C   UNL     1      84.397  72.288  88.508  0.00  0.00    +0.000 A 
ENDBRANCH   1   6
BRANCH   2   9
ATOM      9  C   UNL     1      89.447  69.830  87.014  0.00  0.00    +0.000 C 
BRANCH   9  10
ATOM     10  C   UNL     1      89.328  68.358  86.822  0.00  0.00    +0.000 A 
ATOM     11  C   UNL     1      88.287  67.464  86.967  0.00  0.00    +0.000 A 
ATOM     12  C   UNL     1      88.805  66.191  86.630  0.00  0.00    +0.000 A 
ATOM     13  C   UNL     1      90.126  66.389  86.301  0.00  0.00    +0.000 A 
ATOM     14  O   UNL     1      90.453  67.702  86.415  0.00  0.00    +0.000 OA
ENDBRANCH   9  10
ENDBRANCH   2   9
TORSDOF 3
ENDMDL
