REMARK  Name = *****
REMARK  4 active torsions:
REMARK  status: ('A' for Active; 'I' for Inactive)
REMARK    1  A    between atoms: C_1  and  C_2
REMARK    2  A    between atoms: C_2  and  C_8
REMARK    3  A    between atoms: C_8  and  C_9
REMARK    4  A    between atoms: C_9  and  C_10
REMARK                            x       y       z     vdW  Elec       q    Type
REMARK                         _______ _______ _______ _____ _____    ______ ____
ROOT
ATOM      1  C   UNL     1       3.269   0.315   1.327  0.00  0.00    +0.000 C 
ENDROOT
BRANCH   1   3
ATOM      2  C   UNL     1       1.134   0.005   0.070  0.00  0.00    +0.000 C 
ATOM      3  C   UNL     1       2.666  -0.035  -0.064  0.00  0.00    +0.000 C 
ATOM      4  S   UNL     1       3.235   1.216  -1.286  0.00  0.00    +0.000 S 
ATOM      5  C   UNL     1       2.509   0.581  -2.822  0.00  0.00    +0.000 C 
ATOM      6  C   UNL     1       2.977  -0.822  -3.170  0.00  0.00    +0.000 C 
ATOM      7  C   UNL     1       2.499  -1.888  -2.198  0.00  0.00    +0.000 C 
ATOM      8  S   UNL     1       3.223  -1.721  -0.543  0.00  0.00    +0.000 S 
ENDBRANCH   1   3
BRANCH   1   9
ATOM      9  C   UNL     1       4.803   0.336   1.445  0.00  0.00    +0.000 C 
BRANCH   9  10
ATOM     10  C   UNL     1       5.233   0.693   2.850  0.00  0.00    +0.000 A 
ATOM     11  C   UNL     1       5.399  -0.308   3.817  0.00  0.00    +0.000 A 
ATOM     12  C   UNL     1       5.778   0.024   5.119  0.00  0.00    +0.000 A 
ATOM     13  C   UNL     1       5.990   1.357   5.466  0.00  0.00    +0.000 A 
ATOM     14  C   UNL     1       5.821   2.360   4.513  0.00  0.00    +0.000 A 
ATOM     15  C   UNL     1       5.442   2.030   3.211  0.00  0.00    +0.000 A 
ENDBRANCH   9  10
ENDBRANCH   1   9
TORSDOF 3
