MODEL 1
REMARK VINA RESULT:      -5.2      0.000      0.000
REMARK  Name = *****
REMARK  5 active torsions:
REMARK  status: ('A' for Active; 'I' for Inactive)
REMARK    1  A    between atoms: C_1  and  C_2
REMARK    2  A    between atoms: C_5  and  C_8
REMARK    3  A    between atoms: C_8  and  C_9
REMARK    4  A    between atoms: C_9  and  C_10
REMARK    5  A    between atoms: C_10  and  C_12
REMARK                            x       y       z     vdW  Elec       q    Type
REMARK                         _______ _______ _______ _____ _____    ______ ____
ROOT
ATOM      1  C   UNL     1     100.627 126.613  83.170  0.00  0.00    +0.000 C 
ATOM      2 CL   UNL     1     100.951 126.539  84.938  0.00  0.00    +0.000 Cl
ENDROOT
BRANCH   1   3
ATOM      3  C   UNL     1     101.808 127.144  82.333  0.00  0.00    +0.000 C 
ATOM      4 CL   UNL     1     102.744 128.447  83.137  0.00  0.00    +0.000 Cl
BRANCH   3   9
ATOM      5  C   UNL     1     105.446 122.933  80.536  0.00  0.00    +0.000 C 
ATOM      6  C   UNL     1     104.484 123.994  80.982  0.00  0.00    +0.000 A 
ATOM      7  C   UNL     1     104.074 124.994  80.095  0.00  0.00    +0.000 A 
ATOM      8  C   UNL     1     103.203 126.003  80.514  0.00  0.00    +0.000 A 
ATOM      9  C   UNL     1     102.727 126.041  81.832  0.00  0.00    +0.000 A 
ATOM     10  C   UNL     1     103.155 125.041  82.722  0.00  0.00    +0.000 A 
ATOM     11  C   UNL     1     104.027 124.032  82.301  0.00  0.00    +0.000 A 
ENDBRANCH   3   9
ENDBRANCH   1   3
BRANCH   1  12
ATOM     12  C   UNL     1      99.375 127.448  82.921  0.00  0.00    +0.000 C 
ATOM     13  O   UNL     1      98.575 127.207  82.018  0.00  0.00    +0.000 OA
BRANCH  12  14
ATOM     14  C   UNL     1      99.065 128.595  83.839  0.00  0.00    +0.000 A 
ATOM     15  C   UNL     1      99.583 129.857  83.508  0.00  0.00    +0.000 A 
ATOM     16  C   UNL     1      99.324 130.967  84.315  0.00  0.00    +0.000 A 
ATOM     17  C   UNL     1      98.547 130.826  85.461  0.00  0.00    +0.000 A 
ATOM     18  C   UNL     1      98.032 129.577  85.804  0.00  0.00    +0.000 A 
ATOM     19  C   UNL     1      98.290 128.462  84.999  0.00  0.00    +0.000 A 
ENDBRANCH  12  14
ENDBRANCH   1  12
TORSDOF 4
ENDMDL
