MODEL 1
REMARK VINA RESULT:      -3.5      0.000      0.000
REMARK  Name = *****
REMARK  1 active torsions:
REMARK  status: ('A' for Active; 'I' for Inactive)
REMARK    1  A    between atoms: C_8  and  C_9
REMARK                            x       y       z     vdW  Elec       q    Type
REMARK                         _______ _______ _______ _____ _____    ______ ____
ROOT
ATOM      1  C   UNL     1     105.859 122.306  82.582  0.00  0.00    +0.000 C 
ATOM      2  C   UNL     1     106.383 123.153  81.440  0.00  0.00    +0.000 C 
ATOM      3  S   UNL     1     105.024 123.857  80.481  0.00  0.00    +0.000 S 
ATOM      4  C   UNL     1     104.031 124.599  81.701  0.00  0.00    +0.000 C 
ATOM      5  C   UNL     1     104.076 124.386  83.030  0.00  0.00    +0.000 C 
ATOM      6  S   UNL     1     105.165 123.338  83.892  0.00  0.00    +0.000 S 
ATOM      7  S   UNL     1     102.944 125.275  84.022  0.00  0.00    +0.000 S 
ATOM      8  C   UNL     1     102.184 126.121  82.690  0.00  0.00    +0.000 C 
ATOM      9  S   UNL     1     102.826 125.721  81.112  0.00  0.00    +0.000 S 
ENDROOT
BRANCH   8  10
ATOM     10  C   UNL     1     101.175 127.019  82.869  0.00  0.00    +0.000 C 
ATOM     11  C   UNL     1     101.387 128.331  83.510  0.00  0.00    +0.000 C 
ATOM     12  C   UNL     1     100.353 129.171  83.661  0.00  0.00    +0.000 C 
ATOM     13  O   UNL     1      99.065 128.896  83.249  0.00  0.00    +0.000 OA
ATOM     14  C   UNL     1      98.841 127.676  82.644  0.00  0.00    +0.000 C 
ATOM     15  C   UNL     1      99.790 126.752  82.437  0.00  0.00    +0.000 C 
ENDBRANCH   8  10
TORSDOF 1
ENDMDL
