REMARK  Name = *****
REMARK  4 active torsions:
REMARK  status: ('A' for Active; 'I' for Inactive)
REMARK    1  A    between atoms: C_1  and  C_2
REMARK    2  A    between atoms: C_7  and  O_8
REMARK    3  A    between atoms: O_8  and  C_9
REMARK    4  A    between atoms: C_9  and  C_11
REMARK                            x       y       z     vdW  Elec       q    Type
REMARK                         _______ _______ _______ _____ _____    ______ ____
ROOT
ATOM      1  C   UNL     1       1.025  -3.277  -0.193  0.00  0.00    +0.000 C 
ATOM      2  O   UNL     1       0.150  -3.488  -1.016  0.00  0.00    +0.000 OA
ENDROOT
BRANCH   1   3
ATOM      3  C   UNL     1       2.006  -4.278   0.220  0.00  0.00    +0.000 A 
ATOM      4  C   UNL     1       3.370  -4.012   0.151  0.00  0.00    +0.000 A 
ATOM      5  C   UNL     1       4.301  -4.979   0.527  0.00  0.00    +0.000 A 
ATOM      6  C   UNL     1       3.864  -6.227   0.973  0.00  0.00    +0.000 A 
ATOM      7  C   UNL     1       2.496  -6.500   1.039  0.00  0.00    +0.000 A 
ATOM      8  C   UNL     1       1.574  -5.525   0.659  0.00  0.00    +0.000 A 
ATOM      9  F   UNL     1       0.268  -5.807   0.754  0.00  0.00    +0.000 F 
ATOM     10  F   UNL     1       3.818  -2.830  -0.295  0.00  0.00    +0.000 F 
ENDBRANCH   1   3
BRANCH   1  11
ATOM     11  O   UNL     1       1.262  -2.134   0.546  0.00  0.00    +0.000 OA
BRANCH  11  18
ATOM     12  C   UNL     1       2.379   0.189  -0.665  0.00  0.00    +0.000 C 
ATOM     13  C   UNL     1       0.929   0.099  -0.293  0.00  0.00    +0.000 A 
ATOM     14  C   UNL     1       0.067   1.180  -0.519  0.00  0.00    +0.000 A 
ATOM     15  C   UNL     1      -1.284   1.096  -0.171  0.00  0.00    +0.000 A 
ATOM     16  C   UNL     1      -1.791  -0.067   0.409  0.00  0.00    +0.000 A 
ATOM     17  C   UNL     1      -0.949  -1.152   0.640  0.00  0.00    +0.000 A 
ATOM     18  C   UNL     1       0.395  -1.068   0.269  0.00  0.00    +0.000 A 
ENDBRANCH  11  18
ENDBRANCH   1  11
TORSDOF 3
