MODEL 1
REMARK VINA RESULT:      -5.1      0.000      0.000
REMARK  Name = *****
REMARK  2 active torsions:
REMARK  status: ('A' for Active; 'I' for Inactive)
REMARK    1  A    between atoms: C_3  and  C_9
REMARK    2  A    between atoms: N_10  and  C_11
REMARK                            x       y       z     vdW  Elec       q    Type
REMARK                         _______ _______ _______ _____ _____    ______ ____
ROOT
ATOM      1  C   UNL     1     102.841 126.123  82.155  0.00  0.00    +0.000 C 
ATOM      2  N   UNL     1     101.550 126.037  82.094  0.00  0.00    +0.000 NA
ENDROOT
BRANCH   1   5
ATOM      3  C   UNL     1     104.792 122.911  81.744  0.00  0.00    +0.000 A 
ATOM      4  C   UNL     1     103.966 123.892  82.300  0.00  0.00    +0.000 A 
ATOM      5  C   UNL     1     103.709 125.073  81.594  0.00  0.00    +0.000 A 
ATOM      6  C   UNL     1     104.277 125.271  80.338  0.00  0.00    +0.000 A 
ATOM      7  C   UNL     1     105.097 124.291  79.791  0.00  0.00    +0.000 A 
ATOM      8  C   UNL     1     105.360 123.112  80.484  0.00  0.00    +0.000 A 
ATOM      9  F   UNL     1     105.649 124.476  78.584  0.00  0.00    +0.000 F 
ATOM     10  F   UNL     1     104.042 126.398  79.651  0.00  0.00    +0.000 F 
ENDBRANCH   1   5
BRANCH   2  11
ATOM     11  C   UNL     1     100.810 127.101  82.642  0.00  0.00    +0.000 A 
ATOM     12  C   UNL     1      99.407 127.168  82.591  0.00  0.00    +0.000 A 
ATOM     13  C   UNL     1      98.709 128.221  83.173  0.00  0.00    +0.000 A 
ATOM     14  C   UNL     1      99.420 129.218  83.825  0.00  0.00    +0.000 A 
ATOM     15  C   UNL     1     100.809 129.174  83.905  0.00  0.00    +0.000 A 
ATOM     16  C   UNL     1     101.501 128.112  83.317  0.00  0.00    +0.000 A 
ATOM     17  F   UNL     1      98.761 130.236  84.390  0.00  0.00    +0.000 F 
ATOM     18  F   UNL     1      98.709 126.206  81.966  0.00  0.00    +0.000 F 
ENDBRANCH   2  11
TORSDOF 2
ENDMDL
