MODEL 1
REMARK VINA RESULT:      -4.6      0.000      0.000
REMARK  Name = *****
REMARK  0 active torsions:
REMARK  status: ('A' for Active; 'I' for Inactive)
REMARK                            x       y       z     vdW  Elec       q    Type
REMARK                         _______ _______ _______ _____ _____    ______ ____
ROOT
ATOM      1  C   UNL     1      86.125  71.823  89.112  0.00  0.00    +0.000 C 
ATOM      2  C   UNL     1      86.940  70.838  89.940  0.00  0.00    +0.000 C 
ATOM      3  C   UNL     1      88.256  70.480  89.252  0.00  0.00    +0.000 C 
ATOM      4  C   UNL     1      88.076  69.935  87.810  0.00  0.00    +0.000 C 
ATOM      5  C   UNL     1      87.217  70.950  87.006  0.00  0.00    +0.000 C 
ATOM      6  C   UNL     1      85.901  71.321  87.691  0.00  0.00    +0.000 C 
ATOM      7  C   UNL     1      89.480  69.807  87.162  0.00  0.00    +0.000 C 
ATOM      8  C   UNL     1      89.465  69.097  85.809  0.00  0.00    +0.000 C 
ATOM      9  C   UNL     1      88.805  67.706  85.863  0.00  0.00    +0.000 C 
ATOM     10  C   UNL     1      87.412  67.814  86.503  0.00  0.00    +0.000 C 
ATOM     11  C   UNL     1      87.416  68.531  87.855  0.00  0.00    +0.000 C 
ATOM     12  C   UNL     1      89.677  66.679  86.629  0.00  0.00    +0.000 C 
ATOM     13  O   UNL     1      90.970  66.507  86.037  0.00  0.00    +0.000 OA
ATOM     14  O   UNL     1      90.779  66.360  84.594  0.00  0.00    +0.000 OA
ATOM     15  O   UNL     1      89.389  66.110  84.256  0.00  0.00    +0.000 OA
ATOM     16  O   UNL     1      88.592  67.303  84.491  0.00  0.00    +0.000 OA
ENDROOT
TORSDOF 0
ENDMDL
