MODEL 1
REMARK VINA RESULT:      -5.1      0.000      0.000
REMARK  Name = *****
REMARK  8 active torsions:
REMARK  status: ('A' for Active; 'I' for Inactive)
REMARK    1  A    between atoms: C_1  and  C_2
REMARK    2  A    between atoms: C_3  and  C_9
REMARK    3  A    between atoms: C_4  and  C_8
REMARK    4  A    between atoms: C_9  and  C_10
REMARK    5  A    between atoms: C_10  and  C_11
REMARK    6  A    between atoms: C_11  and  C_13
REMARK    7  A    between atoms: C_15  and  C_20
REMARK    8  A    between atoms: C_16  and  C_19
REMARK                            x       y       z     vdW  Elec       q    Type
REMARK                         _______ _______ _______ _____ _____    ______ ____
ROOT
ATOM      1  C   UNL     1      89.590  68.442  86.672  0.00  0.00    +0.000 C 
ENDROOT
BRANCH   1   2
ATOM      2  C   UNL     1      89.331  69.937  86.624  0.00  0.00    +0.000 C 
ATOM      3  O   UNL     1      89.928  70.680  85.846  0.00  0.00    +0.000 OA
BRANCH   2   4
ATOM      4  C   UNL     1      88.315  70.518  87.556  0.00  0.00    +0.000 A 
ATOM      5  C   UNL     1      87.124  71.022  87.017  0.00  0.00    +0.000 A 
ATOM      6  C   UNL     1      86.130  71.580  87.839  0.00  0.00    +0.000 A 
ATOM      7  C   UNL     1      86.342  71.644  89.229  0.00  0.00    +0.000 A 
ATOM      8  C   UNL     1      87.534  71.133  89.764  0.00  0.00    +0.000 A 
ATOM      9  C   UNL     1      88.514  70.575  88.938  0.00  0.00    +0.000 A 
ATOM     10  C   UNL     1      85.312  72.232  90.154  0.00  0.00    +0.000 C 
ATOM     11  C   UNL     1      84.870  72.112  87.209  0.00  0.00    +0.000 C 
ENDBRANCH   2   4
ENDBRANCH   1   2
BRANCH   1  12
ATOM     12  C   UNL     1      88.353  67.639  86.263  0.00  0.00    +0.000 C 
BRANCH  12  15
ATOM     13  C   UNL     1      86.335  67.697  88.470  0.00  0.00    +0.000 C 
ATOM     14  C   UNL     1      87.203  66.489  88.227  0.00  0.00    +0.000 A 
ATOM     15  C   UNL     1      88.143  66.436  87.168  0.00  0.00    +0.000 A 
ATOM     16  C   UNL     1      88.908  65.256  86.980  0.00  0.00    +0.000 A 
ATOM     17  C   UNL     1      88.714  64.162  87.838  0.00  0.00    +0.000 A 
ATOM     18  C   UNL     1      87.788  64.221  88.873  0.00  0.00    +0.000 A 
ATOM     19  C   UNL     1      87.036  65.375  89.064  0.00  0.00    +0.000 A 
ATOM     20  C   UNL     1      89.904  65.114  85.860  0.00  0.00    +0.000 C 
ENDBRANCH  12  15
ENDBRANCH   1  12
TORSDOF 4
ENDMDL
