REMARK  Name = *****
REMARK  2 active torsions:
REMARK  status: ('A' for Active; 'I' for Inactive)
REMARK    1  A    between atoms: C_2  and  C_11
REMARK    2  A    between atoms: C_3  and  C_4
REMARK                            x       y       z     vdW  Elec       q    Type
REMARK                         _______ _______ _______ _____ _____    ______ ____
ROOT
ATOM      1  C   UNL     1       0.042   0.626   0.098  0.00  0.00    +0.000 C 
ATOM      2  C   UNL     1       0.802  -0.664   0.273  0.00  0.00    +0.000 C 
ATOM      3  C   UNL     1      -0.655  -0.683  -0.173  0.00  0.00    +0.000 C 
ENDROOT
BRANCH   3   4
ATOM      4  C   UNL     1      -1.717  -1.199   0.770  0.00  0.00    +0.000 A 
ATOM      5  C   UNL     1      -2.787  -0.388   1.187  0.00  0.00    +0.000 A 
ATOM      6  C   UNL     1      -3.778  -0.872   2.049  0.00  0.00    +0.000 A 
ATOM      7  C   UNL     1      -3.725  -2.186   2.508  0.00  0.00    +0.000 A 
ATOM      8  C   UNL     1      -2.685  -3.015   2.101  0.00  0.00    +0.000 A 
ATOM      9  C   UNL     1      -1.703  -2.521   1.242  0.00  0.00    +0.000 A 
ATOM     10  F   UNL     1      -0.720  -3.350   0.859  0.00  0.00    +0.000 F 
ENDBRANCH   3   4
BRANCH   2  11
ATOM     11  C   UNL     1       1.886  -1.052  -0.704  0.00  0.00    +0.000 A 
ATOM     12  C   UNL     1       2.946  -0.182  -1.009  0.00  0.00    +0.000 A 
ATOM     13  C   UNL     1       3.957  -0.548  -1.901  0.00  0.00    +0.000 A 
ATOM     14  C   UNL     1       3.931  -1.802  -2.505  0.00  0.00    +0.000 A 
ATOM     15  C   UNL     1       2.899  -2.688  -2.212  0.00  0.00    +0.000 A 
ATOM     16  C   UNL     1       1.891  -2.315  -1.318  0.00  0.00    +0.000 A 
ENDBRANCH   2  11
TORSDOF 2
