MODEL 1
REMARK VINA RESULT:      -4.5      0.000      0.000
REMARK  Name = *****
REMARK  4 active torsions:
REMARK  status: ('A' for Active; 'I' for Inactive)
REMARK    1  A    between atoms: C_4  and  O_7
REMARK    2  A    between atoms: O_7  and  C_8
REMARK    3  A    between atoms: C_8  and  C_10
REMARK    4  A    between atoms: C_11  and  C_17
REMARK                            x       y       z     vdW  Elec       q    Type
REMARK                         _______ _______ _______ _____ _____    ______ ____
ROOT
ATOM      1  C   UNL     1      86.972  70.923  86.382  0.00  0.00    +0.000 A 
ATOM      2  C   UNL     1      86.847  70.849  87.780  0.00  0.00    +0.000 A 
ATOM      3  C   UNL     1      85.759  71.502  88.390  0.00  0.00    +0.000 A 
ATOM      4  C   UNL     1      84.820  72.200  87.626  0.00  0.00    +0.000 A 
ATOM      5  C   UNL     1      84.959  72.263  86.241  0.00  0.00    +0.000 A 
ATOM      6  C   UNL     1      86.034  71.630  85.628  0.00  0.00    +0.000 A 
ATOM      7  F   UNL     1      86.160  71.729  84.296  0.00  0.00    +0.000 F 
ENDROOT
BRANCH   2   8
ATOM      8  C   UNL     1      87.846  70.093  88.620  0.00  0.00    +0.000 C 
ATOM      9  F   UNL     1      88.059  68.821  88.186  0.00  0.00    +0.000 F 
ATOM     10  F   UNL     1      89.057  70.703  88.685  0.00  0.00    +0.000 F 
ATOM     11  F   UNL     1      87.436  69.961  89.916  0.00  0.00    +0.000 F 
ENDBRANCH   2   8
BRANCH   1  12
ATOM     12  C   UNL     1      88.112  70.304  85.691  0.00  0.00    +0.000 C 
ATOM     13  O   UNL     1      88.028  69.234  85.115  0.00  0.00    +0.000 OA
BRANCH  12  14
ATOM     14  O   UNL     1      89.175  71.180  85.760  0.00  0.00    +0.000 OA
BRANCH  14  18
ATOM     15  C   UNL     1      90.860  72.564  82.198  0.00  0.00    +0.000 A 
ATOM     16  C   UNL     1      89.798  73.271  82.767  0.00  0.00    +0.000 A 
ATOM     17  C   UNL     1      89.212  72.822  83.949  0.00  0.00    +0.000 A 
ATOM     18  C   UNL     1      89.683  71.651  84.542  0.00  0.00    +0.000 A 
ATOM     19  C   UNL     1      90.755  70.949  83.993  0.00  0.00    +0.000 A 
ATOM     20  C   UNL     1      91.341  71.405  82.812  0.00  0.00    +0.000 A 
ENDBRANCH  14  18
ENDBRANCH  12  14
ENDBRANCH   1  12
TORSDOF 4
ENDMDL
