REMARK  Name = *****
REMARK  4 active torsions:
REMARK  status: ('A' for Active; 'I' for Inactive)
REMARK    1  A    between atoms: C_4  and  C_7
REMARK    2  A    between atoms: C_7  and  C_8
REMARK    3  A    between atoms: C_7  and  C_17
REMARK    4  A    between atoms: C_8  and  C_9
REMARK                            x       y       z     vdW  Elec       q    Type
REMARK                         _______ _______ _______ _____ _____    ______ ____
ROOT
ATOM      1  C   UNL     1      -2.943   0.451  -0.068  0.00  0.00    +0.000 C 
ENDROOT
BRANCH   1   5
ATOM      2  C   UNL     1       1.174  -0.819   0.397  0.00  0.00    +0.000 A 
ATOM      3  C   UNL     1       0.621   0.111   1.273  0.00  0.00    +0.000 A 
ATOM      4  C   UNL     1      -0.707   0.513   1.122  0.00  0.00    +0.000 A 
ATOM      5  C   UNL     1      -1.502  -0.014   0.090  0.00  0.00    +0.000 A 
ATOM      6  C   UNL     1      -0.931  -0.954  -0.784  0.00  0.00    +0.000 A 
ATOM      7  C   UNL     1       0.398  -1.351  -0.631  0.00  0.00    +0.000 A 
ENDBRANCH   1   5
BRANCH   1   8
ATOM      8  C   UNL     1      -3.895  -0.680   0.004  0.00  0.00    +0.000 C 
ATOM      9  N   UNL     1      -4.666  -1.547   0.050  0.00  0.00    +0.000 NA
ENDBRANCH   1   8
BRANCH   1  10
ATOM     10  C   UNL     1      -3.186   1.245  -1.373  0.00  0.00    +0.000 C 
BRANCH  10  11
ATOM     11  C   UNL     1      -2.391   2.534  -1.468  0.00  0.00    +0.000 A 
ATOM     12  C   UNL     1      -1.309   2.711  -2.350  0.00  0.00    +0.000 A 
ATOM     13  C   UNL     1      -0.598   3.914  -2.376  0.00  0.00    +0.000 A 
ATOM     14  C   UNL     1      -0.962   4.953  -1.526  0.00  0.00    +0.000 A 
ATOM     15  C   UNL     1      -2.035   4.805  -0.652  0.00  0.00    +0.000 A 
ATOM     16  C   UNL     1      -2.746   3.604  -0.624  0.00  0.00    +0.000 A 
ATOM     17 CL   UNL     1      -0.086   6.433  -1.558  0.00  0.00    +0.000 Cl
ATOM     18 CL   UNL     1      -0.803   1.479  -3.451  0.00  0.00    +0.000 Cl
ENDBRANCH  10  11
ENDBRANCH   1  10
TORSDOF 4
