MODEL 1
REMARK VINA RESULT:      -4.6      0.000      0.000
REMARK  Name = *****
REMARK  3 active torsions:
REMARK  status: ('A' for Active; 'I' for Inactive)
REMARK    1  A    between atoms: C_5  and  C_7
REMARK    2  A    between atoms: C_7  and  O_9
REMARK    3  A    between atoms: O_9  and  C_10
REMARK                            x       y       z     vdW  Elec       q    Type
REMARK                         _______ _______ _______ _____ _____    ______ ____
ROOT
ATOM      1  C   UNL     1     101.683 126.449  84.422  0.00  0.00    +0.000 C 
ATOM      2  O   UNL     1     101.234 125.425  84.916  0.00  0.00    +0.000 OA
ENDROOT
BRANCH   1   7
ATOM      3  C   UNL     1     100.302 129.951  84.466  0.00  0.00    +0.000 A 
ATOM      4  C   UNL     1      99.284 129.875  83.517  0.00  0.00    +0.000 A 
ATOM      5  C   UNL     1      99.046 128.676  82.846  0.00  0.00    +0.000 A 
ATOM      6  C   UNL     1      99.821 127.553  83.130  0.00  0.00    +0.000 A 
ATOM      7  C   UNL     1     100.833 127.612  84.089  0.00  0.00    +0.000 A 
ATOM      8  C   UNL     1     101.079 128.824  84.751  0.00  0.00    +0.000 A 
ATOM      9  F   UNL     1      99.580 126.431  82.436  0.00  0.00    +0.000 F 
ENDBRANCH   1   7
BRANCH   1  10
ATOM     10  O   UNL     1     102.985 126.682  84.023  0.00  0.00    +0.000 OA
BRANCH  10  11
ATOM     11  C   UNL     1     103.220 126.335  82.691  0.00  0.00    +0.000 A 
ATOM     12  C   UNL     1     103.175 127.313  81.699  0.00  0.00    +0.000 A 
ATOM     13  C   UNL     1     103.457 126.944  80.388  0.00  0.00    +0.000 A 
ATOM     14  C   UNL     1     103.792 125.635  80.063  0.00  0.00    +0.000 A 
ATOM     15  C   UNL     1     103.849 124.684  81.076  0.00  0.00    +0.000 A 
ATOM     16  C   UNL     1     103.573 125.021  82.396  0.00  0.00    +0.000 A 
ATOM     17  F   UNL     1     104.183 123.422  80.775  0.00  0.00    +0.000 F 
ATOM     18  F   UNL     1     103.412 127.870  79.421  0.00  0.00    +0.000 F 
ENDBRANCH  10  11
ENDBRANCH   1  10
TORSDOF 3
ENDMDL
