REMARK  Name = *****
REMARK  3 active torsions:
REMARK  status: ('A' for Active; 'I' for Inactive)
REMARK    1  A    between atoms: P_4  and  O_7
REMARK    2  A    between atoms: O_7  and  C_8
REMARK    3  A    between atoms: C_8  and  C_9
REMARK                            x       y       z     vdW  Elec       q    Type
REMARK                         _______ _______ _______ _____ _____    ______ ____
ROOT
ATOM      1  O   UNL     1      -0.710  -1.684   1.700  0.00  0.00    +0.000 OA
ENDROOT
BRANCH   1   5
ATOM      2  C   UNL     1      -4.153  -0.839   0.618  0.00  0.00    +0.000 C 
ATOM      3  C   UNL     1      -3.107   0.222   0.947  0.00  0.00    +0.000 C 
ATOM      4  S   UNL     1      -1.681   0.196  -0.173  0.00  0.00    +0.000 S 
ATOM      5  P   UNL     1      -0.731  -1.658   0.083  0.00  0.00    +0.000 P 
ATOM      6  S   UNL     1      -2.421  -2.868  -0.220  0.00  0.00    +0.000 S 
ATOM      7  C   UNL     1      -3.710  -2.271   0.907  0.00  0.00    +0.000 C 
ENDBRANCH   1   5
BRANCH   1   8
ATOM      8  C   UNL     1       0.256  -2.537   2.305  0.00  0.00    +0.000 C 
BRANCH   8   9
ATOM      9  C   UNL     1       0.058  -2.487   3.800  0.00  0.00    +0.000 A 
ATOM     10  C   UNL     1      -0.343  -3.627   4.510  0.00  0.00    +0.000 A 
ATOM     11  C   UNL     1      -0.523  -3.572   5.894  0.00  0.00    +0.000 A 
ATOM     12  C   UNL     1      -0.307  -2.377   6.579  0.00  0.00    +0.000 A 
ATOM     13  C   UNL     1       0.087  -1.236   5.883  0.00  0.00    +0.000 A 
ATOM     14  C   UNL     1       0.268  -1.290   4.500  0.00  0.00    +0.000 A 
ENDBRANCH   8   9
ENDBRANCH   1   8
TORSDOF 3
