MODEL 1
REMARK VINA RESULT:      -4.7      0.000      0.000
REMARK  Name = *****
REMARK  4 active torsions:
REMARK  status: ('A' for Active; 'I' for Inactive)
REMARK    1  A    between atoms: C_1  and  C_2
REMARK    2  A    between atoms: C_5  and  S_8
REMARK    3  A    between atoms: S_8  and  C_9
REMARK    4  A    between atoms: C_9  and  C_11
REMARK                            x       y       z     vdW  Elec       q    Type
REMARK                         _______ _______ _______ _____ _____    ______ ____
ROOT
ATOM      1  C   UNL     1      88.971  70.043  86.477  0.00  0.00    +0.000 C 
ATOM      2  O   UNL     1      89.693  70.741  87.179  0.00  0.00    +0.000 OA
ENDROOT
BRANCH   1   3
ATOM      3  C   UNL     1      88.932  68.562  86.689  0.00  0.00    +0.000 A 
ATOM      4  C   UNL     1      90.014  67.808  86.197  0.00  0.00    +0.000 A 
ATOM      5  C   UNL     1      90.050  66.420  86.352  0.00  0.00    +0.000 A 
ATOM      6  C   UNL     1      89.004  65.779  87.002  0.00  0.00    +0.000 A 
ATOM      7  C   UNL     1      87.925  66.500  87.499  0.00  0.00    +0.000 A 
ATOM      8  C   UNL     1      87.886  67.889  87.344  0.00  0.00    +0.000 A 
ATOM      9  F   UNL     1      89.036  64.449  87.153  0.00  0.00    +0.000 F 
ENDBRANCH   1   3
BRANCH   1  10
ATOM     10  S   UNL     1      87.954  70.731  85.212  0.00  0.00    +0.000 S 
BRANCH  10  15
ATOM     11  C   UNL     1      83.181  72.941  88.292  0.00  0.00    +0.000 C 
ATOM     12  C   UNL     1      84.342  72.363  87.537  0.00  0.00    +0.000 A 
ATOM     13  C   UNL     1      85.419  71.790  88.223  0.00  0.00    +0.000 A 
ATOM     14  C   UNL     1      86.514  71.279  87.522  0.00  0.00    +0.000 A 
ATOM     15  C   UNL     1      86.549  71.334  86.126  0.00  0.00    +0.000 A 
ATOM     16  C   UNL     1      85.487  71.929  85.440  0.00  0.00    +0.000 A 
ATOM     17  C   UNL     1      84.391  72.442  86.141  0.00  0.00    +0.000 A 
ENDBRANCH  10  15
ENDBRANCH   1  10
TORSDOF 3
ENDMDL
