MODEL 1
REMARK VINA RESULT:      -5.3      0.000      0.000
REMARK  Name = *****
REMARK  2 active torsions:
REMARK  status: ('A' for Active; 'I' for Inactive)
REMARK    1  A    between atoms: C_5  and  C_7
REMARK    2  A    between atoms: C_10  and  C_12
REMARK                            x       y       z     vdW  Elec       q    Type
REMARK                         _______ _______ _______ _____ _____    ______ ____
ROOT
ATOM      1  C   UNL     1     103.400 125.035  82.265  0.00  0.00    +0.000 A 
ATOM      2  N   UNL     1     103.218 124.585  83.491  0.00  0.00    +0.000 NA
ATOM      3  N   UNL     1     102.230 125.369  84.056  0.00  0.00    +0.000 NA
ATOM      4  C   UNL     1     101.870 126.240  83.133  0.00  0.00    +0.000 A 
ATOM      5  O   UNL     1     102.575 126.085  81.971  0.00  0.00    +0.000 OA
ENDROOT
BRANCH   1  10
ATOM      6  C   UNL     1     105.688 125.104  79.279  0.00  0.00    +0.000 A 
ATOM      7  C   UNL     1     106.093 123.773  79.194  0.00  0.00    +0.000 A 
ATOM      8  C   UNL     1     105.624 122.848  80.122  0.00  0.00    +0.000 A 
ATOM      9  C   UNL     1     104.749 123.255  81.130  0.00  0.00    +0.000 A 
ATOM     10  C   UNL     1     104.323 124.584  81.234  0.00  0.00    +0.000 A 
ATOM     11  C   UNL     1     104.810 125.505  80.291  0.00  0.00    +0.000 A 
ATOM     12  F   UNL     1     104.327 122.321  81.996  0.00  0.00    +0.000 F 
ENDBRANCH   1  10
BRANCH   4  13
ATOM     13  C   UNL     1     100.870 127.295  83.188  0.00  0.00    +0.000 A 
ATOM     14  C   UNL     1     101.160 128.488  83.873  0.00  0.00    +0.000 A 
ATOM     15  C   UNL     1     100.217 129.518  83.954  0.00  0.00    +0.000 A 
ATOM     16  C   UNL     1      98.970 129.373  83.351  0.00  0.00    +0.000 A 
ATOM     17  C   UNL     1      98.668 128.199  82.665  0.00  0.00    +0.000 A 
ATOM     18  C   UNL     1      99.612 127.176  82.587  0.00  0.00    +0.000 A 
ATOM     19  F   UNL     1      99.265 126.066  81.918  0.00  0.00    +0.000 F 
ENDBRANCH   4  13
TORSDOF 2
ENDMDL
