MODEL 1
REMARK VINA RESULT:      -4.1      0.000      0.000
REMARK  Name = *****
REMARK  5 active torsions:
REMARK  status: ('A' for Active; 'I' for Inactive)
REMARK    1  A    between atoms: C_1  and  N_2
REMARK    2  A    between atoms: C_4  and  C_11
REMARK    3  A    between atoms: C_5  and  C_7
REMARK    4  A    between atoms: C_11  and  S_12
REMARK    5  A    between atoms: S_12  and  C_13
REMARK                            x       y       z     vdW  Elec       q    Type
REMARK                         _______ _______ _______ _____ _____    ______ ____
ROOT
ATOM      1  C   UNL     1      87.060  64.806  89.564  0.00  0.00    +0.000 C 
ATOM      2  N   UNL     1      87.661  65.539  88.475  0.00  0.00    +0.000 N 
ATOM      3  C   UNL     1      87.341  66.779  88.018  0.00  0.00    +0.000 A 
ATOM      4  C   UNL     1      88.170  67.069  86.962  0.00  0.00    +0.000 A 
ATOM      5  C   UNL     1      89.000  65.901  86.849  0.00  0.00    +0.000 A 
ATOM      6  N   UNL     1      88.678  64.982  87.788  0.00  0.00    +0.000 NA
ATOM      7 CL   UNL     1      86.095  67.683  88.745  0.00  0.00    +0.000 Cl
ENDROOT
BRANCH   5   8
ATOM      8  C   UNL     1      90.095  65.660  85.835  0.00  0.00    +0.000 C 
ATOM      9  F   UNL     1      91.131  66.529  85.997  0.00  0.00    +0.000 F 
ATOM     10  F   UNL     1      90.634  64.414  85.917  0.00  0.00    +0.000 F 
ATOM     11  F   UNL     1      89.654  65.816  84.559  0.00  0.00    +0.000 F 
ENDBRANCH   5   8
BRANCH   4  12
ATOM     12  C   UNL     1      88.207  68.306  86.134  0.00  0.00    +0.000 C 
BRANCH  12  13
ATOM     13  S   UNL     1      89.336  69.530  86.872  0.00  0.00    +0.000 S 
BRANCH  13  14
ATOM     14  C   UNL     1      88.209  70.398  87.948  0.00  0.00    +0.000 A 
ATOM     15  C   UNL     1      88.507  70.647  89.292  0.00  0.00    +0.000 A 
ATOM     16  C   UNL     1      87.598  71.335  90.100  0.00  0.00    +0.000 A 
ATOM     17  C   UNL     1      86.394  71.791  89.566  0.00  0.00    +0.000 A 
ATOM     18  C   UNL     1      86.099  71.563  88.224  0.00  0.00    +0.000 A 
ATOM     19  C   UNL     1      87.006  70.873  87.416  0.00  0.00    +0.000 A 
ENDBRANCH  13  14
ENDBRANCH  12  13
ENDBRANCH   4  12
TORSDOF 4
ENDMDL
