MODEL 1
REMARK VINA RESULT:      -4.0      0.000      0.000
REMARK  Name = *****
REMARK  5 active torsions:
REMARK  status: ('A' for Active; 'I' for Inactive)
REMARK    1  A    between atoms: C_1  and  C_2
REMARK    2  A    between atoms: C_2  and  C_3
REMARK    3  A    between atoms: C_7  and  O_8
REMARK    4  A    between atoms: O_8  and  C_9
REMARK    5  A    between atoms: C_9  and  C_10
REMARK                            x       y       z     vdW  Elec       q    Type
REMARK                         _______ _______ _______ _____ _____    ______ ____
ROOT
ATOM      1  O   UNL     1     102.773 126.114  82.579  0.00  0.00    +0.000 OA
ENDROOT
BRANCH   1   6
ATOM      2  C   UNL     1     103.992 126.122  80.459  0.00  0.00    +0.000 A 
ATOM      3  C   UNL     1     104.774 125.235  79.740  0.00  0.00    +0.000 A 
ATOM      4  S   UNL     1     104.891 123.762  80.600  0.00  0.00    +0.000 S 
ATOM      5  N   UNL     1     103.957 124.239  81.883  0.00  0.00    +0.000 NA
ATOM      6  C   UNL     1     103.559 125.489  81.669  0.00  0.00    +0.000 A 
BRANCH   2   8
ATOM      7  C   UNL     1     104.480 128.559  80.779  0.00  0.00    +0.000 C 
ATOM      8  C   UNL     1     103.651 127.518  80.043  0.00  0.00    +0.000 C 
ENDBRANCH   2   8
ENDBRANCH   1   6
BRANCH   1   9
ATOM      9  C   UNL     1     101.372 125.948  82.373  0.00  0.00    +0.000 C 
BRANCH   9  10
ATOM     10  C   UNL     1     100.686 127.216  82.822  0.00  0.00    +0.000 A 
ATOM     11  C   UNL     1     101.424 128.240  83.434  0.00  0.00    +0.000 A 
ATOM     12  C   UNL     1     100.797 129.419  83.840  0.00  0.00    +0.000 A 
ATOM     13  C   UNL     1      99.430 129.589  83.634  0.00  0.00    +0.000 A 
ATOM     14  C   UNL     1      98.689 128.583  83.019  0.00  0.00    +0.000 A 
ATOM     15  C   UNL     1      99.313 127.403  82.610  0.00  0.00    +0.000 A 
ENDBRANCH   9  10
ENDBRANCH   1   9
TORSDOF 4
ENDMDL
