MODEL 1
REMARK VINA RESULT:      -4.8      0.000      0.000
REMARK  Name = *****
REMARK  4 active torsions:
REMARK  status: ('A' for Active; 'I' for Inactive)
REMARK    1  A    between atoms: C_4  and  O_7
REMARK    2  A    between atoms: O_7  and  C_8
REMARK    3  A    between atoms: C_8  and  C_9
REMARK    4  A    between atoms: C_12  and  C_15
REMARK                            x       y       z     vdW  Elec       q    Type
REMARK                         _______ _______ _______ _____ _____    ______ ____
ROOT
ATOM      1  C   UNL     1     103.665 125.899  81.654  0.00  0.00    +0.000 A 
ATOM      2  C   UNL     1     104.033 125.402  80.396  0.00  0.00    +0.000 A 
ATOM      3  C   UNL     1     104.494 124.090  80.259  0.00  0.00    +0.000 A 
ATOM      4  C   UNL     1     104.586 123.246  81.375  0.00  0.00    +0.000 A 
ATOM      5  C   UNL     1     104.199 123.740  82.630  0.00  0.00    +0.000 A 
ATOM      6  C   UNL     1     103.739 125.052  82.767  0.00  0.00    +0.000 A 
ENDROOT
BRANCH   4   7
ATOM      7  C   UNL     1     105.085 121.829  81.245  0.00  0.00    +0.000 C 
ATOM      8  F   UNL     1     105.406 121.250  82.436  0.00  0.00    +0.000 F 
ATOM      9  F   UNL     1     104.166 121.005  80.668  0.00  0.00    +0.000 F 
ATOM     10  F   UNL     1     106.205 121.737  80.473  0.00  0.00    +0.000 F 
ENDBRANCH   4   7
BRANCH   1  11
ATOM     11  C   UNL     1     103.160 127.314  81.800  0.00  0.00    +0.000 C 
BRANCH  11  12
ATOM     12  O   UNL     1     102.511 127.427  83.063  0.00  0.00    +0.000 OA
BRANCH  12  16
ATOM     13  C   UNL     1      98.390 128.005  82.893  0.00  0.00    +0.000 A 
ATOM     14  C   UNL     1      99.173 129.006  83.463  0.00  0.00    +0.000 A 
ATOM     15  C   UNL     1     100.561 128.856  83.543  0.00  0.00    +0.000 A 
ATOM     16  C   UNL     1     101.172 127.701  83.050  0.00  0.00    +0.000 A 
ATOM     17  C   UNL     1     100.378 126.702  82.480  0.00  0.00    +0.000 A 
ATOM     18  C   UNL     1      98.993 126.850  82.401  0.00  0.00    +0.000 A 
ENDBRANCH  12  16
ENDBRANCH  11  12
ENDBRANCH   1  11
TORSDOF 4
ENDMDL
