MODEL 1
REMARK VINA RESULT:      -4.4      0.000      0.000
REMARK  Name = *****
REMARK  3 active torsions:
REMARK  status: ('A' for Active; 'I' for Inactive)
REMARK    1  A    between atoms: C_1  and  C_2
REMARK    2  A    between atoms: C_5  and  C_8
REMARK    3  A    between atoms: N_9  and  C_10
REMARK                            x       y       z     vdW  Elec       q    Type
REMARK                         _______ _______ _______ _____ _____    ______ ____
ROOT
ATOM      1  C   UNL     1     102.897 125.713  82.752  0.00  0.00    +0.000 C 
ATOM      2  N   UNL     1     101.726 125.957  82.252  0.00  0.00    +0.000 NA
ENDROOT
BRANCH   1   7
ATOM      3  C   UNL     1     106.086 121.170  81.150  0.00  0.00    +0.000 C 
ATOM      4  C   UNL     1     105.232 122.335  81.557  0.00  0.00    +0.000 A 
ATOM      5  C   UNL     1     104.818 123.275  80.604  0.00  0.00    +0.000 A 
ATOM      6  C   UNL     1     104.053 124.380  80.983  0.00  0.00    +0.000 A 
ATOM      7  C   UNL     1     103.705 124.554  82.325  0.00  0.00    +0.000 A 
ATOM      8  C   UNL     1     104.125 123.633  83.287  0.00  0.00    +0.000 A 
ATOM      9  C   UNL     1     104.891 122.530  82.902  0.00  0.00    +0.000 A 
ENDBRANCH   1   7
BRANCH   2  10
ATOM     10  C   UNL     1     101.071 127.090  82.749  0.00  0.00    +0.000 A 
ATOM     11  C   UNL     1      99.683 127.215  82.636  0.00  0.00    +0.000 A 
ATOM     12  C   UNL     1      99.030 128.339  83.147  0.00  0.00    +0.000 A 
ATOM     13  C   UNL     1      99.769 129.335  83.785  0.00  0.00    +0.000 A 
ATOM     14  C   UNL     1     101.151 129.214  83.918  0.00  0.00    +0.000 A 
ATOM     15  C   UNL     1     101.799 128.088  83.403  0.00  0.00    +0.000 A 
ATOM     16 CL   UNL     1      98.967 130.720  84.416  0.00  0.00    +0.000 Cl
ENDBRANCH   2  10
TORSDOF 2
ENDMDL
