MODEL 1
REMARK VINA RESULT:      -4.3      0.000      0.000
REMARK  Name = *****
REMARK  3 active torsions:
REMARK  status: ('A' for Active; 'I' for Inactive)
REMARK    1  A    between atoms: C_1  and  C_2
REMARK    2  A    between atoms: C_5  and  C_8
REMARK    3  A    between atoms: N_9  and  C_10
REMARK                            x       y       z     vdW  Elec       q    Type
REMARK                         _______ _______ _______ _____ _____    ______ ____
ROOT
ATOM      1  C   UNL     1      87.849  64.079  86.626  0.00  0.00    +0.000 C 
ATOM      2  N   UNL     1      87.664  63.236  87.595  0.00  0.00    +0.000 NA
ATOM      3 CL   UNL     1      87.543  63.371  85.058  0.00  0.00    +0.000 Cl
ENDROOT
BRANCH   1   8
ATOM      4  C   UNL     1      89.603  69.605  86.897  0.00  0.00    +0.000 C 
ATOM      5  C   UNL     1      89.135  68.182  86.814  0.00  0.00    +0.000 A 
ATOM      6  C   UNL     1      87.846  67.832  87.234  0.00  0.00    +0.000 A 
ATOM      7  C   UNL     1      87.417  66.502  87.185  0.00  0.00    +0.000 A 
ATOM      8  C   UNL     1      88.272  65.507  86.700  0.00  0.00    +0.000 A 
ATOM      9  C   UNL     1      89.573  65.850  86.310  0.00  0.00    +0.000 A 
ATOM     10  C   UNL     1      90.002  67.177  86.373  0.00  0.00    +0.000 A 
ENDBRANCH   1   8
BRANCH   2  11
ATOM     11  C   UNL     1      87.807  63.546  88.950  0.00  0.00    +0.000 A 
ATOM     12  C   UNL     1      89.048  63.615  89.592  0.00  0.00    +0.000 A 
ATOM     13  C   UNL     1      89.128  63.959  90.945  0.00  0.00    +0.000 A 
ATOM     14  C   UNL     1      87.970  64.272  91.657  0.00  0.00    +0.000 A 
ATOM     15  C   UNL     1      86.735  64.247  91.016  0.00  0.00    +0.000 A 
ATOM     16  C   UNL     1      86.658  63.888  89.669  0.00  0.00    +0.000 A 
ENDBRANCH   2  11
TORSDOF 2
ENDMDL
