REMARK  Name = *****
REMARK  5 active torsions:
REMARK  status: ('A' for Active; 'I' for Inactive)
REMARK    1  A    between atoms: C_1  and  C_2
REMARK    2  A    between atoms: C_4  and  C_18
REMARK    3  A    between atoms: C_5  and  C_9
REMARK    4  A    between atoms: C_6  and  C_8
REMARK    5  A    between atoms: N_10  and  C_11
REMARK                            x       y       z     vdW  Elec       q    Type
REMARK                         _______ _______ _______ _____ _____    ______ ____
ROOT
ATOM      1  C   UNL     1       2.126   1.948  -0.017  0.00  0.00    +0.000 C 
ATOM      2  C   UNL     1       1.050   0.904  -0.001  0.00  0.00    +0.000 A 
ATOM      3  C   UNL     1       1.375  -0.453   0.070  0.00  0.00    +0.000 A 
ATOM      4  C   UNL     1       0.378  -1.445   0.116  0.00  0.00    +0.000 A 
ATOM      5  C   UNL     1      -0.981  -1.057   0.083  0.00  0.00    +0.000 A 
ATOM      6  C   UNL     1      -1.320   0.315   0.023  0.00  0.00    +0.000 A 
ATOM      7  C   UNL     1      -0.296   1.278  -0.009  0.00  0.00    +0.000 A 
ATOM      8  C   UNL     1      -2.749   0.788  -0.040  0.00  0.00    +0.000 C 
ATOM      9  C   UNL     1       0.815  -2.883   0.194  0.00  0.00    +0.000 C 
ENDROOT
BRANCH   5  10
ATOM     10  C   UNL     1      -2.086  -2.054   0.144  0.00  0.00    +0.000 C 
ATOM     11  N   UNL     1      -1.960  -3.282  -0.249  0.00  0.00    +0.000 NA
BRANCH  11  12
ATOM     12  C   UNL     1      -3.108  -4.103  -0.133  0.00  0.00    +0.000 A 
ATOM     13  C   UNL     1      -2.937  -5.261   0.645  0.00  0.00    +0.000 A 
ATOM     14  C   UNL     1      -3.975  -6.173   0.846  0.00  0.00    +0.000 A 
ATOM     15  C   UNL     1      -5.213  -5.944   0.257  0.00  0.00    +0.000 A 
ATOM     16  C   UNL     1      -5.408  -4.810  -0.534  0.00  0.00    +0.000 A 
ATOM     17  C   UNL     1      -4.370  -3.888  -0.742  0.00  0.00    +0.000 A 
ATOM     18  S   UNL     1      -4.752  -2.538  -1.766  0.00  0.00    +0.000 S 
ENDBRANCH  11  12
ENDBRANCH   5  10
TORSDOF 2
