MODEL 1
REMARK VINA RESULT:      -4.7      0.000      0.000
REMARK  Name = *****
REMARK  6 active torsions:
REMARK  status: ('A' for Active; 'I' for Inactive)
REMARK    1  A    between atoms: C_1  and  C_2
REMARK    2  A    between atoms: C_7  and  C_8
REMARK    3  A    between atoms: C_9  and  C_10
REMARK    4  A    between atoms: C_15  and  N_16
REMARK    5  A    between atoms: N_16  and  C_17
REMARK    6  A    between atoms: N_16  and  C_18
REMARK                            x       y       z     vdW  Elec       q    Type
REMARK                         _______ _______ _______ _____ _____    ______ ____
ROOT
ATOM      1  C   UNL     1     102.191 126.139  82.126  0.00  0.00    +0.000 C 
ATOM      2  C   UNL     1     103.079 125.425  81.745  0.00  0.00    +0.000 C 
ENDROOT
BRANCH   1   9
ATOM      3  C   UNL     1     102.815 128.643  83.529  0.00  0.00    +0.000 C 
ATOM      4  C   UNL     1     101.405 128.209  83.232  0.00  0.00    +0.000 A 
ATOM      5  C   UNL     1     100.331 129.014  83.641  0.00  0.00    +0.000 A 
ATOM      6  C   UNL     1      99.013 128.631  83.380  0.00  0.00    +0.000 A 
ATOM      7  C   UNL     1      98.753 127.439  82.710  0.00  0.00    +0.000 A 
ATOM      8  C   UNL     1      99.810 126.627  82.300  0.00  0.00    +0.000 A 
ATOM      9  C   UNL     1     101.134 127.006  82.557  0.00  0.00    +0.000 A 
ENDBRANCH   1   9
BRANCH   2  10
ATOM     10  C   UNL     1     104.144 124.585  81.277  0.00  0.00    +0.000 A 
ATOM     11  C   UNL     1     104.601 124.782  79.966  0.00  0.00    +0.000 A 
ATOM     12  C   UNL     1     105.649 124.015  79.461  0.00  0.00    +0.000 A 
ATOM     13  C   UNL     1     106.245 123.049  80.264  0.00  0.00    +0.000 A 
ATOM     14  C   UNL     1     105.794 122.849  81.573  0.00  0.00    +0.000 A 
ATOM     15  C   UNL     1     104.738 123.607  82.112  0.00  0.00    +0.000 A 
BRANCH  15  16
ATOM     16  N   UNL     1     104.267 123.398  83.430  0.00  0.00    +0.000 N 
ATOM     17  C   UNL     1     104.807 124.279  84.463  0.00  0.00    +0.000 C 
ATOM     18  C   UNL     1     104.274 121.975  83.784  0.00  0.00    +0.000 C 
ENDBRANCH  15  16
ENDBRANCH   2  10
TORSDOF 3
ENDMDL
