MODEL 1
REMARK VINA RESULT:      -4.6      0.000      0.000
REMARK  Name = *****
REMARK  6 active torsions:
REMARK  status: ('A' for Active; 'I' for Inactive)
REMARK    1  A    between atoms: C_1  and  C_2
REMARK    2  A    between atoms: C_3  and  C_19
REMARK    3  A    between atoms: C_5  and  C_8
REMARK    4  A    between atoms: C_5  and  S_10
REMARK    5  A    between atoms: S_10  and  C_11
REMARK    6  A    between atoms: C_11  and  C_13
REMARK                            x       y       z     vdW  Elec       q    Type
REMARK                         _______ _______ _______ _____ _____    ______ ____
ROOT
ATOM      1  C   UNL     1      85.763  71.331  87.984  0.00  0.00    +0.000 C 
ATOM      2  C   UNL     1      86.994  71.088  87.150  0.00  0.00    +0.000 C 
ATOM      3  C   UNL     1      88.189  70.682  87.635  0.00  0.00    +0.000 C 
ATOM      4  C   UNL     1      89.368  70.384  86.719  0.00  0.00    +0.000 C 
ATOM      5  C   UNL     1      89.025  70.220  85.218  0.00  0.00    +0.000 C 
ATOM      6  C   UNL     1      88.043  71.336  84.831  0.00  0.00    +0.000 C 
ATOM      7  C   UNL     1      86.768  71.327  85.671  0.00  0.00    +0.000 C 
ATOM      8  C   UNL     1      88.510  70.491  89.095  0.00  0.00    +0.000 C 
ENDROOT
BRANCH   5   9
ATOM      9  C   UNL     1      90.324  70.356  84.429  0.00  0.00    +0.000 C 
ATOM     10  O   UNL     1      90.649  69.620  83.498  0.00  0.00    +0.000 OA
ENDBRANCH   5   9
BRANCH   5  11
ATOM     11  S   UNL     1      88.340  68.521  84.948  0.00  0.00    +0.000 S 
BRANCH  11  12
ATOM     12  C   UNL     1      89.157  67.579  86.186  0.00  0.00    +0.000 C 
ATOM     13  O   UNL     1      90.379  67.508  86.227  0.00  0.00    +0.000 OA
BRANCH  12  14
ATOM     14  C   UNL     1      88.321  66.831  87.176  0.00  0.00    +0.000 A 
ATOM     15  C   UNL     1      87.154  67.349  87.758  0.00  0.00    +0.000 A 
ATOM     16  C   UNL     1      86.425  66.587  88.675  0.00  0.00    +0.000 A 
ATOM     17  C   UNL     1      86.852  65.306  89.022  0.00  0.00    +0.000 A 
ATOM     18  C   UNL     1      88.012  64.784  88.455  0.00  0.00    +0.000 A 
ATOM     19  C   UNL     1      88.744  65.542  87.539  0.00  0.00    +0.000 A 
ENDBRANCH  12  14
ENDBRANCH  11  12
ENDBRANCH   5  11
TORSDOF 4
ENDMDL
