MODEL 1
REMARK VINA RESULT:      -4.6      0.000      0.000
REMARK  Name = *****
REMARK  2 active torsions:
REMARK  status: ('A' for Active; 'I' for Inactive)
REMARK    1  A    between atoms: C_7  and  C_8
REMARK    2  A    between atoms: C_9  and  C_10
REMARK                            x       y       z     vdW  Elec       q    Type
REMARK                         _______ _______ _______ _____ _____    ______ ____
ROOT
ATOM      1  C   UNL     1     102.757 126.021  80.952  0.00  0.00    +0.000 C 
ATOM      2  C   UNL     1     102.124 125.940  82.134  0.00  0.00    +0.000 C 
ENDROOT
BRANCH   1   9
ATOM      3  C   UNL     1     106.277 123.528  80.127  0.00  0.00    +0.000 C 
ATOM      4  C   UNL     1     105.848 124.551  79.066  0.00  0.00    +0.000 C 
ATOM      5  C   UNL     1     105.130 125.635  79.895  0.00  0.00    +0.000 C 
ATOM      6  C   UNL     1     105.983 125.651  81.167  0.00  0.00    +0.000 C 
ATOM      7  C   UNL     1     105.777 124.161  81.435  0.00  0.00    +0.000 C 
ATOM      8  C   UNL     1     104.242 124.060  81.487  0.00  0.00    +0.000 C 
ATOM      9  C   UNL     1     103.779 125.057  80.396  0.00  0.00    +0.000 C 
ENDBRANCH   1   9
BRANCH   2  10
ATOM     10  C   UNL     1     101.144 126.929  82.608  0.00  0.00    +0.000 A 
ATOM     11  C   UNL     1     101.526 128.106  83.263  0.00  0.00    +0.000 A 
ATOM     12  C   UNL     1     100.568 129.039  83.667  0.00  0.00    +0.000 A 
ATOM     13  C   UNL     1      99.218 128.809  83.411  0.00  0.00    +0.000 A 
ATOM     14  C   UNL     1      98.825 127.649  82.745  0.00  0.00    +0.000 A 
ATOM     15  C   UNL     1      99.785 126.716  82.341  0.00  0.00    +0.000 A 
ENDBRANCH   2  10
TORSDOF 2
ENDMDL
