MODEL 1
REMARK VINA RESULT:      -4.1      0.000      0.000
REMARK  Name = *****
REMARK  4 active torsions:
REMARK  status: ('A' for Active; 'I' for Inactive)
REMARK    1  A    between atoms: C_1  and  N_2
REMARK    2  A    between atoms: N_2  and  C_3
REMARK    3  A    between atoms: N_2  and  C_9
REMARK    4  A    between atoms: C_3  and  C_4
REMARK                            x       y       z     vdW  Elec       q    Type
REMARK                         _______ _______ _______ _____ _____    ______ ____
ROOT
ATOM      1  C   UNL     1     103.603 126.799  83.771  0.00  0.00    +0.000 C 
ATOM      2  N   UNL     1     102.807 127.215  82.620  0.00  0.00    +0.000 N 
ENDROOT
BRANCH   2   3
ATOM      3  C   UNL     1     101.455 127.513  82.797  0.00  0.00    +0.000 A 
ATOM      4  C   UNL     1     101.017 128.684  83.440  0.00  0.00    +0.000 A 
ATOM      5  C   UNL     1      99.657 128.963  83.607  0.00  0.00    +0.000 A 
ATOM      6  C   UNL     1      98.688 128.078  83.152  0.00  0.00    +0.000 A 
ATOM      7  C   UNL     1      99.088 126.902  82.531  0.00  0.00    +0.000 A 
ATOM      8  C   UNL     1     100.451 126.627  82.362  0.00  0.00    +0.000 A 
ATOM      9 CL   UNL     1      99.176 130.424  84.384  0.00  0.00    +0.000 Cl
ENDBRANCH   2   3
BRANCH   2  10
ATOM     10  C   UNL     1     103.547 127.819  81.489  0.00  0.00    +0.000 C 
BRANCH  10  11
ATOM     11  C   UNL     1     103.968 126.861  80.346  0.00  0.00    +0.000 C 
ATOM     12  C   UNL     1     103.364 125.475  80.410  0.00  0.00    +0.000 C 
ATOM     13  C   UNL     1     104.336 124.550  80.352  0.00  0.00    +0.000 C 
ATOM     14  C   UNL     1     105.615 125.206  80.256  0.00  0.00    +0.000 C 
ATOM     15  C   UNL     1     105.439 126.535  80.245  0.00  0.00    +0.000 C 
ENDBRANCH  10  11
ENDBRANCH   2  10
TORSDOF 3
ENDMDL
