MODEL 1
REMARK VINA RESULT:      -4.5      0.000      0.000
REMARK  Name = *****
REMARK  4 active torsions:
REMARK  status: ('A' for Active; 'I' for Inactive)
REMARK    1  A    between atoms: C_4  and  C_7
REMARK    2  A    between atoms: C_7  and  C_8
REMARK    3  A    between atoms: C_8  and  C_11
REMARK    4  A    between atoms: C_11  and  C_12
REMARK                            x       y       z     vdW  Elec       q    Type
REMARK                         _______ _______ _______ _____ _____    ______ ____
ROOT
ATOM      1  C   UNL     1      89.138  69.110  86.187  0.00  0.00    +0.000 C 
ATOM      2  C   UNL     1      89.894  67.880  86.355  0.00  0.00    +0.000 C 
ATOM      3  C   UNL     1      88.621  67.870  86.731  0.00  0.00    +0.000 C 
ENDROOT
BRANCH   1   4
ATOM      4  C   UNL     1      89.469  70.270  87.123  0.00  0.00    +0.000 C 
BRANCH   4   8
ATOM      5  C   UNL     1      86.151  71.589  89.552  0.00  0.00    +0.000 A 
ATOM      6  C   UNL     1      86.018  71.519  88.167  0.00  0.00    +0.000 A 
ATOM      7  C   UNL     1      87.090  71.090  87.383  0.00  0.00    +0.000 A 
ATOM      8  C   UNL     1      88.307  70.726  87.978  0.00  0.00    +0.000 A 
ATOM      9  C   UNL     1      88.431  70.807  89.372  0.00  0.00    +0.000 A 
ATOM     10  C   UNL     1      87.357  71.234  90.155  0.00  0.00    +0.000 A 
ENDBRANCH   4   8
ENDBRANCH   1   4
BRANCH   1  11
ATOM     11  C   UNL     1      88.677  69.495  84.788  0.00  0.00    +0.000 C 
BRANCH  11  12
ATOM     12  C   UNL     1      89.334  70.761  84.279  0.00  0.00    +0.000 A 
ATOM     13  C   UNL     1      90.680  70.773  83.886  0.00  0.00    +0.000 A 
ATOM     14  C   UNL     1      91.276  71.947  83.421  0.00  0.00    +0.000 A 
ATOM     15  C   UNL     1      90.532  73.121  83.334  0.00  0.00    +0.000 A 
ATOM     16  C   UNL     1      89.190  73.122  83.710  0.00  0.00    +0.000 A 
ATOM     17  C   UNL     1      88.594  71.949  84.177  0.00  0.00    +0.000 A 
ENDBRANCH  11  12
ENDBRANCH   1  11
TORSDOF 4
ENDMDL
