REMARK  Name = *****
REMARK  4 active torsions:
REMARK  status: ('A' for Active; 'I' for Inactive)
REMARK    1  A    between atoms: C_4  and  O_7
REMARK    2  A    between atoms: O_7  and  C_8
REMARK    3  A    between atoms: C_8  and  C_10
REMARK    4  A    between atoms: C_12  and  C_16
REMARK                            x       y       z     vdW  Elec       q    Type
REMARK                         _______ _______ _______ _____ _____    ______ ____
ROOT
ATOM      1  C   UNL     1      -5.060  -0.411  -0.431  0.00  0.00    +0.000 A 
ATOM      2  C   UNL     1      -5.459   0.413  -1.496  0.00  0.00    +0.000 A 
ATOM      3  C   UNL     1      -6.821   0.685  -1.721  0.00  0.00    +0.000 A 
ATOM      4  C   UNL     1      -7.780   0.106  -0.876  0.00  0.00    +0.000 A 
ATOM      5  C   UNL     1      -7.389  -0.713   0.183  0.00  0.00    +0.000 A 
ATOM      6  C   UNL     1      -6.036  -0.969   0.406  0.00  0.00    +0.000 A 
ENDROOT
BRANCH   3   7
ATOM      7  C   UNL     1      -7.244   1.555  -2.881  0.00  0.00    +0.000 C 
ATOM      8  F   UNL     1      -6.345   2.539  -3.159  0.00  0.00    +0.000 F 
ATOM      9  F   UNL     1      -7.390   0.844  -4.032  0.00  0.00    +0.000 F 
ATOM     10  F   UNL     1      -8.433   2.185  -2.673  0.00  0.00    +0.000 F 
ENDBRANCH   3   7
BRANCH   1  11
ATOM     11  C   UNL     1      -3.631  -0.725  -0.144  0.00  0.00    +0.000 C 
ATOM     12  O   UNL     1      -3.279  -1.422   0.795  0.00  0.00    +0.000 OA
BRANCH  11  13
ATOM     13  O   UNL     1      -2.823  -0.111  -1.083  0.00  0.00    +0.000 OA
BRANCH  13  17
ATOM     14  C   UNL     1       1.312  -0.640  -0.843  0.00  0.00    +0.000 A 
ATOM     15  C   UNL     1       0.488  -1.762  -0.953  0.00  0.00    +0.000 A 
ATOM     16  C   UNL     1      -0.897  -1.607  -1.021  0.00  0.00    +0.000 A 
ATOM     17  C   UNL     1      -1.444  -0.326  -0.959  0.00  0.00    +0.000 A 
ATOM     18  C   UNL     1      -0.628   0.801  -0.870  0.00  0.00    +0.000 A 
ATOM     19  C   UNL     1       0.756   0.640  -0.805  0.00  0.00    +0.000 A 
ENDBRANCH  13  17
ENDBRANCH  11  13
ENDBRANCH   1  11
TORSDOF 4
