MODEL 1
REMARK VINA RESULT:      -4.2      0.000      0.000
REMARK  Name = *****
REMARK  4 active torsions:
REMARK  status: ('A' for Active; 'I' for Inactive)
REMARK    1  A    between atoms: C_1  and  C_2
REMARK    2  A    between atoms: C_5  and  C_8
REMARK    3  A    between atoms: C_9  and  C_10
REMARK    4  A    between atoms: C_10  and  C_15
REMARK                            x       y       z     vdW  Elec       q    Type
REMARK                         _______ _______ _______ _____ _____    ______ ____
ROOT
ATOM      1  C   UNL     1     102.068 126.584  82.119  0.00  0.00    +0.000 C 
ATOM      2  C   UNL     1     101.165 126.363  83.092  0.00  0.00    +0.000 C 
ENDROOT
BRANCH   1   7
ATOM      3  C   UNL     1     106.012 122.662  80.513  0.00  0.00    +0.000 C 
ATOM      4  C   UNL     1     104.964 123.660  80.909  0.00  0.00    +0.000 A 
ATOM      5  C   UNL     1     104.508 124.613  79.992  0.00  0.00    +0.000 A 
ATOM      6  C   UNL     1     103.555 125.564  80.372  0.00  0.00    +0.000 A 
ATOM      7  C   UNL     1     103.043 125.579  81.674  0.00  0.00    +0.000 A 
ATOM      8  C   UNL     1     103.524 124.644  82.599  0.00  0.00    +0.000 A 
ATOM      9  C   UNL     1     104.477 123.693  82.220  0.00  0.00    +0.000 A 
ENDBRANCH   1   7
BRANCH   2  10
ATOM     10  C   UNL     1     100.130 127.332  83.611  0.00  0.00    +0.000 C 
ATOM     11  S   UNL     1      98.631 127.154  82.566  0.00  0.00    +0.000 S 
ATOM     12  C   UNL     1      97.436 127.157  83.923  0.00  0.00    +0.000 C 
ATOM     13  C   UNL     1      98.018 126.297  85.025  0.00  0.00    +0.000 C 
ATOM     14  S   UNL     1      99.717 126.843  85.336  0.00  0.00    +0.000 S 
ATOM     15  C   UNL     1     100.533 128.811  83.624  0.00  0.00    +0.000 C 
ENDBRANCH   2  10
TORSDOF 2
ENDMDL
