MODEL 1
REMARK VINA RESULT:      -3.7      0.000      0.000
REMARK  Name = *****
REMARK  3 active torsions:
REMARK  status: ('A' for Active; 'I' for Inactive)
REMARK    1  A    between atoms: C_4  and  S_6
REMARK    2  A    between atoms: S_6  and  C_7
REMARK    3  A    between atoms: C_7  and  C_8
REMARK                            x       y       z     vdW  Elec       q    Type
REMARK                         _______ _______ _______ _____ _____    ______ ____
ROOT
ATOM      1  C   UNL     1     102.787 127.831  83.729  0.00  0.00    +0.000 C 
ENDROOT
BRANCH   1   2
ATOM      2  C   UNL     1     101.319 127.907  83.387  0.00  0.00    +0.000 A 
ATOM      3  C   UNL     1     100.729 126.823  82.710  0.00  0.00    +0.000 A 
ATOM      4  C   UNL     1      99.375 126.836  82.368  0.00  0.00    +0.000 A 
ATOM      5  C   UNL     1      98.584 127.929  82.705  0.00  0.00    +0.000 A 
ATOM      6  C   UNL     1      99.146 129.008  83.386  0.00  0.00    +0.000 A 
ATOM      7  C   UNL     1     100.503 128.999  83.730  0.00  0.00    +0.000 A 
ATOM      8 BR   UNL     1     101.166 130.515  84.664  0.00  0.00    +0.000 Br
ENDBRANCH   1   2
BRANCH   1   9
ATOM      9  S   UNL     1     103.467 126.171  83.407  0.00  0.00    +0.000 S 
BRANCH   9  13
ATOM     10  C   UNL     1     103.818 125.697  80.134  0.00  0.00    +0.000 C 
ATOM     11  C   UNL     1     103.473 127.185  80.167  0.00  0.00    +0.000 C 
ATOM     12  C   UNL     1     104.279 127.791  81.318  0.00  0.00    +0.000 C 
ATOM     13  C   UNL     1     104.745 126.612  82.172  0.00  0.00    +0.000 C 
ATOM     14  C   UNL     1     104.962 125.519  81.127  0.00  0.00    +0.000 C 
ENDBRANCH   9  13
ENDBRANCH   1   9
TORSDOF 3
ENDMDL
