MODEL 1
REMARK VINA RESULT:      -4.5      0.000      0.000
REMARK  Name = *****
REMARK  3 active torsions:
REMARK  status: ('A' for Active; 'I' for Inactive)
REMARK    1  A    between atoms: C_1  and  C_2
REMARK    2  A    between atoms: C_7  and  C_8
REMARK    3  A    between atoms: C_9  and  C_10
REMARK                            x       y       z     vdW  Elec       q    Type
REMARK                         _______ _______ _______ _____ _____    ______ ____
ROOT
ATOM      1  C   UNL     1      88.433  63.809  90.477  0.00  0.00    +0.000 C 
ATOM      2  C   UNL     1      88.335  63.686  88.952  0.00  0.00    +0.000 C 
ATOM      3  C   UNL     1      87.987  65.034  88.295  0.00  0.00    +0.000 C 
ATOM      4  C   UNL     1      86.529  65.447  88.517  0.00  0.00    +0.000 C 
ATOM      5  C   UNL     1      85.553  64.347  88.100  0.00  0.00    +0.000 C 
ATOM      6  C   UNL     1      85.900  63.037  88.770  0.00  0.00    +0.000 C 
ATOM      7  C   UNL     1      84.993  62.372  89.508  0.00  0.00    +0.000 C 
ATOM      8  C   UNL     1      87.329  62.598  88.537  0.00  0.00    +0.000 C 
ENDROOT
BRANCH   7   9
ATOM      9  C   UNL     1      85.264  61.148  90.177  0.00  0.00    +0.000 C 
ATOM     10  C   UNL     1      85.492  60.116  90.748  0.00  0.00    +0.000 C 
BRANCH  10  11
ATOM     11  C   UNL     1      85.773  58.891  91.431  0.00  0.00    +0.000 A 
ATOM     12  C   UNL     1      86.304  57.805  90.731  0.00  0.00    +0.000 A 
ATOM     13  C   UNL     1      86.575  56.608  91.399  0.00  0.00    +0.000 A 
ATOM     14  C   UNL     1      86.314  56.497  92.765  0.00  0.00    +0.000 A 
ATOM     15  C   UNL     1      85.782  57.581  93.464  0.00  0.00    +0.000 A 
ATOM     16  C   UNL     1      85.512  58.778  92.798  0.00  0.00    +0.000 A 
ENDBRANCH  10  11
ENDBRANCH   7   9
TORSDOF 2
ENDMDL
