MODEL 1
REMARK VINA RESULT:      -4.8      0.000      0.000
REMARK  Name = *****
REMARK  6 active torsions:
REMARK  status: ('A' for Active; 'I' for Inactive)
REMARK    1  A    between atoms: C_1  and  C_2
REMARK    2  A    between atoms: C_4  and  C_17
REMARK    3  A    between atoms: C_6  and  O_8
REMARK    4  A    between atoms: O_8  and  C_9
REMARK    5  A    between atoms: C_9  and  C_10
REMARK    6  A    between atoms: C_9  and  C_11
REMARK                            x       y       z     vdW  Elec       q    Type
REMARK                         _______ _______ _______ _____ _____    ______ ____
ROOT
ATOM      1  O   UNL     1      88.315  69.686  86.988  0.00  0.00    +0.000 OA
ENDROOT
BRANCH   1   7
ATOM      2  C   UNL     1      91.178  65.899  85.485  0.00  0.00    +0.000 C 
ATOM      3  C   UNL     1      89.999  66.457  86.228  0.00  0.00    +0.000 A 
ATOM      4  C   UNL     1      89.094  65.600  86.869  0.00  0.00    +0.000 A 
ATOM      5  C   UNL     1      87.968  66.111  87.521  0.00  0.00    +0.000 A 
ATOM      6  C   UNL     1      87.765  67.497  87.538  0.00  0.00    +0.000 A 
ATOM      7  C   UNL     1      88.656  68.366  86.904  0.00  0.00    +0.000 A 
ATOM      8  C   UNL     1      89.763  67.840  86.237  0.00  0.00    +0.000 A 
ATOM      9  C   UNL     1      87.016  65.202  88.239  0.00  0.00    +0.000 C 
ENDBRANCH   1   7
BRANCH   1  10
ATOM     10  C   UNL     1      87.573  70.143  88.126  0.00  0.00    +0.000 C 
ATOM     11  C   UNL     1      88.485  70.957  89.045  0.00  0.00    +0.000 C 
BRANCH  10  12
ATOM     12  C   UNL     1      86.429  71.016  87.629  0.00  0.00    +0.000 A 
ATOM     13  C   UNL     1      86.299  71.297  86.260  0.00  0.00    +0.000 A 
ATOM     14  C   UNL     1      85.243  72.081  85.790  0.00  0.00    +0.000 A 
ATOM     15  C   UNL     1      84.302  72.590  86.683  0.00  0.00    +0.000 A 
ATOM     16  C   UNL     1      84.414  72.317  88.044  0.00  0.00    +0.000 A 
ATOM     17  C   UNL     1      85.470  71.534  88.514  0.00  0.00    +0.000 A 
ENDBRANCH  10  12
ENDBRANCH   1  10
TORSDOF 3
ENDMDL
