MODEL 1
REMARK VINA RESULT:      -4.4      0.000      0.000
REMARK  Name = *****
REMARK  4 active torsions:
REMARK  status: ('A' for Active; 'I' for Inactive)
REMARK    1  A    between atoms: C_4  and  C_7
REMARK    2  A    between atoms: C_7  and  S_8
REMARK    3  A    between atoms: S_8  and  C_10
REMARK    4  A    between atoms: C_10  and  C_11
REMARK                            x       y       z     vdW  Elec       q    Type
REMARK                         _______ _______ _______ _____ _____    ______ ____
ROOT
ATOM      1  S   UNL     1      89.345  68.619  84.826  0.00  0.00    +0.000 S 
ATOM      2  O   UNL     1      90.236  68.464  83.626  0.00  0.00    +0.000 OA
ENDROOT
BRANCH   1   3
ATOM      3  C   UNL     1      89.623  70.282  85.521  0.00  0.00    +0.000 C 
BRANCH   3   7
ATOM      4  C   UNL     1      86.819  71.197  88.667  0.00  0.00    +0.000 A 
ATOM      5  C   UNL     1      88.135  70.864  88.983  0.00  0.00    +0.000 A 
ATOM      6  C   UNL     1      89.045  70.566  87.966  0.00  0.00    +0.000 A 
ATOM      7  C   UNL     1      88.647  70.604  86.622  0.00  0.00    +0.000 A 
ATOM      8  C   UNL     1      87.318  70.936  86.318  0.00  0.00    +0.000 A 
ATOM      9  C   UNL     1      86.410  71.231  87.336  0.00  0.00    +0.000 A 
ENDBRANCH   3   7
ENDBRANCH   1   3
BRANCH   1  10
ATOM     10  C   UNL     1      90.127  67.727  86.214  0.00  0.00    +0.000 C 
BRANCH  10  11
ATOM     11  C   UNL     1      89.456  66.408  86.479  0.00  0.00    +0.000 A 
ATOM     12  C   UNL     1      88.306  66.376  87.277  0.00  0.00    +0.000 A 
ATOM     13  C   UNL     1      87.655  65.183  87.580  0.00  0.00    +0.000 A 
ATOM     14  C   UNL     1      88.151  63.980  87.087  0.00  0.00    +0.000 A 
ATOM     15  C   UNL     1      89.293  63.984  86.288  0.00  0.00    +0.000 A 
ATOM     16  C   UNL     1      89.943  65.188  85.987  0.00  0.00    +0.000 A 
ATOM     17 CL   UNL     1      91.347  65.109  84.983  0.00  0.00    +0.000 Cl
ATOM     18  F   UNL     1      87.792  67.519  87.752  0.00  0.00    +0.000 F 
ENDBRANCH  10  11
ENDBRANCH   1  10
TORSDOF 4
ENDMDL
