MODEL 1
REMARK VINA RESULT:      -4.6      0.000      0.000
REMARK  Name = *****
REMARK  4 active torsions:
REMARK  status: ('A' for Active; 'I' for Inactive)
REMARK    1  A    between atoms: C_1  and  C_2
REMARK    2  A    between atoms: C_5  and  O_8
REMARK    3  A    between atoms: O_8  and  C_9
REMARK    4  A    between atoms: C_9  and  C_10
REMARK                            x       y       z     vdW  Elec       q    Type
REMARK                         _______ _______ _______ _____ _____    ______ ____
ROOT
ATOM      1  O   UNL     1      88.100  70.639  85.891  0.00  0.00    +0.000 OA
ENDROOT
BRANCH   1   6
ATOM      2  C   UNL     1      83.209  72.944  87.621  0.00  0.00    +0.000 C 
ATOM      3  C   UNL     1      84.499  72.359  87.130  0.00  0.00    +0.000 A 
ATOM      4  C   UNL     1      84.779  72.299  85.760  0.00  0.00    +0.000 A 
ATOM      5  C   UNL     1      85.972  71.732  85.298  0.00  0.00    +0.000 A 
ATOM      6  C   UNL     1      86.894  71.204  86.200  0.00  0.00    +0.000 A 
ATOM      7  C   UNL     1      86.610  71.252  87.567  0.00  0.00    +0.000 A 
ATOM      8  C   UNL     1      85.421  71.818  88.030  0.00  0.00    +0.000 A 
ENDBRANCH   1   6
BRANCH   1   9
ATOM      9  C   UNL     1      88.869  70.045  86.939  0.00  0.00    +0.000 C 
BRANCH   9  10
ATOM     10  C   UNL     1      88.937  68.534  86.862  0.00  0.00    +0.000 A 
ATOM     11  C   UNL     1      90.015  67.881  86.245  0.00  0.00    +0.000 A 
ATOM     12  C   UNL     1      90.066  66.488  86.206  0.00  0.00    +0.000 A 
ATOM     13  C   UNL     1      89.056  65.727  86.790  0.00  0.00    +0.000 A 
ATOM     14  C   UNL     1      87.989  66.365  87.422  0.00  0.00    +0.000 A 
ATOM     15  C   UNL     1      87.932  67.760  87.462  0.00  0.00    +0.000 A 
ATOM     16 CL   UNL     1      91.387  65.701  85.433  0.00  0.00    +0.000 Cl
ENDBRANCH   9  10
ENDBRANCH   1   9
TORSDOF 3
ENDMDL
