MODEL 1
REMARK VINA RESULT:      -5.1      0.000      0.000
REMARK  Name = *****
REMARK  1 active torsions:
REMARK  status: ('A' for Active; 'I' for Inactive)
REMARK    1  A    between atoms: C_9  and  C_11
REMARK                            x       y       z     vdW  Elec       q    Type
REMARK                         _______ _______ _______ _____ _____    ______ ____
ROOT
ATOM      1  C   UNL     1     106.323 123.539  79.957  0.00  0.00    +0.000 C 
ATOM      2  C   UNL     1     105.209 122.611  80.422  0.00  0.00    +0.000 C 
ATOM      3  C   UNL     1     104.388 123.272  81.527  0.00  0.00    +0.000 C 
ATOM      4  C   UNL     1     103.997 124.695  81.210  0.00  0.00    +0.000 A 
ATOM      5  C   UNL     1     104.662 125.435  80.219  0.00  0.00    +0.000 A 
ATOM      6  C   UNL     1     105.739 124.818  79.361  0.00  0.00    +0.000 C 
ATOM      7  C   UNL     1     104.274 126.760  79.979  0.00  0.00    +0.000 A 
ATOM      8  C   UNL     1     103.259 127.353  80.734  0.00  0.00    +0.000 A 
ATOM      9  C   UNL     1     102.596 126.641  81.743  0.00  0.00    +0.000 A 
ATOM     10  C   UNL     1     102.984 125.309  81.968  0.00  0.00    +0.000 A 
ENDROOT
BRANCH   9  11
ATOM     11  C   UNL     1     101.529 127.269  82.543  0.00  0.00    +0.000 A 
ATOM     12  C   UNL     1     100.217 126.768  82.525  0.00  0.00    +0.000 A 
ATOM     13  C   UNL     1      99.205 127.363  83.284  0.00  0.00    +0.000 A 
ATOM     14  C   UNL     1      99.489 128.473  84.074  0.00  0.00    +0.000 A 
ATOM     15  C   UNL     1     100.782 128.987  84.108  0.00  0.00    +0.000 A 
ATOM     16  C   UNL     1     101.792 128.390  83.349  0.00  0.00    +0.000 A 
ENDBRANCH   9  11
TORSDOF 1
ENDMDL
