MODEL 1
REMARK VINA RESULT:      -4.5      0.000      0.000
REMARK  Name = *****
REMARK  7 active torsions:
REMARK  status: ('A' for Active; 'I' for Inactive)
REMARK    1  A    between atoms: C_1  and  C_2
REMARK    2  A    between atoms: C_4  and  C_19
REMARK    3  A    between atoms: C_5  and  C_9
REMARK    4  A    between atoms: C_6  and  C_8
REMARK    5  A    between atoms: C_9  and  O_17
REMARK    6  A    between atoms: C_10  and  C_11
REMARK    7  A    between atoms: O_17  and  C_18
REMARK                            x       y       z     vdW  Elec       q    Type
REMARK                         _______ _______ _______ _____ _____    ______ ____
ROOT
ATOM      1  C   UNL     1      87.468  70.950  85.147  0.00  0.00    +0.000 C 
ATOM      2  C   UNL     1      88.457  71.788  84.782  0.00  0.00    +0.000 C 
ENDROOT
BRANCH   1   7
ATOM      3  C   UNL     1      83.816  72.653  89.331  0.00  0.00    +0.000 C 
ATOM      4  C   UNL     1      84.745  72.184  88.251  0.00  0.00    +0.000 A 
ATOM      5  C   UNL     1      84.456  72.438  86.908  0.00  0.00    +0.000 A 
ATOM      6  C   UNL     1      85.338  72.043  85.888  0.00  0.00    +0.000 A 
ATOM      7  C   UNL     1      86.535  71.367  86.221  0.00  0.00    +0.000 A 
ATOM      8  C   UNL     1      86.840  71.121  87.581  0.00  0.00    +0.000 A 
ATOM      9  C   UNL     1      85.945  71.546  88.578  0.00  0.00    +0.000 A 
ATOM     10  C   UNL     1      88.124  70.457  88.009  0.00  0.00    +0.000 C 
ATOM     11  C   UNL     1      84.973  72.349  84.457  0.00  0.00    +0.000 C 
ENDBRANCH   1   7
BRANCH   2  12
ATOM     12  C   UNL     1      89.431  71.565  83.703  0.00  0.00    +0.000 A 
ATOM     13  C   UNL     1      89.089  71.935  82.396  0.00  0.00    +0.000 A 
ATOM     14  C   UNL     1      90.003  71.780  81.350  0.00  0.00    +0.000 A 
ATOM     15  C   UNL     1      91.272  71.263  81.604  0.00  0.00    +0.000 A 
ATOM     16  C   UNL     1      91.628  70.907  82.903  0.00  0.00    +0.000 A 
ATOM     17  C   UNL     1      90.715  71.062  83.948  0.00  0.00    +0.000 A 
ENDBRANCH   2  12
BRANCH   1  18
ATOM     18  O   UNL     1      87.215  69.778  84.458  0.00  0.00    +0.000 OA
ATOM     19  C   UNL     1      87.778  68.595  85.015  0.00  0.00    +0.000 C 
ENDBRANCH   1  18
TORSDOF 3
ENDMDL
