MODEL 1
REMARK VINA RESULT:      -4.2      0.000      0.000
REMARK  Name = *****
REMARK  5 active torsions:
REMARK  status: ('A' for Active; 'I' for Inactive)
REMARK    1  A    between atoms: C_1  and  C_2
REMARK    2  A    between atoms: C_2  and  C_3
REMARK    3  A    between atoms: C_2  and  O_10
REMARK    4  A    between atoms: C_3  and  C_4
REMARK    5  A    between atoms: O_10  and  C_11
REMARK                            x       y       z     vdW  Elec       q    Type
REMARK                         _______ _______ _______ _____ _____    ______ ____
ROOT
ATOM      1  C   UNL     1      85.615  63.308  86.277  0.00  0.00    +0.000 C 
ATOM      2  C   UNL     1      86.926  63.506  87.038  0.00  0.00    +0.000 C 
ENDROOT
BRANCH   2   3
ATOM      3  C   UNL     1      86.986  62.521  88.224  0.00  0.00    +0.000 C 
BRANCH   3   4
ATOM      4  C   UNL     1      87.442  63.183  89.505  0.00  0.00    +0.000 A 
ATOM      5  C   UNL     1      88.804  63.419  89.739  0.00  0.00    +0.000 A 
ATOM      6  C   UNL     1      89.224  64.019  90.928  0.00  0.00    +0.000 A 
ATOM      7  C   UNL     1      88.289  64.385  91.894  0.00  0.00    +0.000 A 
ATOM      8  C   UNL     1      86.933  64.151  91.674  0.00  0.00    +0.000 A 
ATOM      9  C   UNL     1      86.511  63.552  90.486  0.00  0.00    +0.000 A 
ENDBRANCH   3   4
ENDBRANCH   2   3
BRANCH   2  10
ATOM     10  O   UNL     1      88.016  63.198  86.159  0.00  0.00    +0.000 OA
BRANCH  10  11
ATOM     11  C   UNL     1      89.012  64.114  85.975  0.00  0.00    +0.000 A 
ATOM     12  C   UNL     1      90.221  63.907  85.311  0.00  0.00    +0.000 A 
ATOM     13  C   UNL     1      91.155  64.944  85.209  0.00  0.00    +0.000 A 
ATOM     14  C   UNL     1      90.886  66.190  85.771  0.00  0.00    +0.000 A 
ATOM     15  C   UNL     1      89.684  66.403  86.440  0.00  0.00    +0.000 A 
ATOM     16  C   UNL     1      88.753  65.367  86.540  0.00  0.00    +0.000 A 
ENDBRANCH  10  11
ENDBRANCH   2  10
TORSDOF 4
ENDMDL
