MODEL 1
REMARK VINA RESULT:      -5.1      0.000      0.000
REMARK  Name = *****
REMARK  4 active torsions:
REMARK  status: ('A' for Active; 'I' for Inactive)
REMARK    1  A    between atoms: C_1  and  C_2
REMARK    2  A    between atoms: C_5  and  C_8
REMARK    3  A    between atoms: C_8  and  C_10
REMARK    4  A    between atoms: C_10  and  C_11
REMARK                            x       y       z     vdW  Elec       q    Type
REMARK                         _______ _______ _______ _____ _____    ______ ____
ROOT
ATOM      1  C   UNL     1      88.016  70.723  85.877  0.00  0.00    +0.000 C 
ATOM      2  O   UNL     1      88.266  70.761  84.671  0.00  0.00    +0.000 OA
ENDROOT
BRANCH   1   7
ATOM      3  C   UNL     1      83.103  72.983  88.010  0.00  0.00    +0.000 C 
ATOM      4  C   UNL     1      84.352  72.374  87.444  0.00  0.00    +0.000 A 
ATOM      5  C   UNL     1      85.343  71.874  88.292  0.00  0.00    +0.000 A 
ATOM      6  C   UNL     1      86.522  71.340  87.764  0.00  0.00    +0.000 A 
ATOM      7  C   UNL     1      86.733  71.306  86.379  0.00  0.00    +0.000 A 
ATOM      8  C   UNL     1      85.748  71.821  85.530  0.00  0.00    +0.000 A 
ATOM      9  C   UNL     1      84.568  72.356  86.061  0.00  0.00    +0.000 A 
ENDBRANCH   1   7
BRANCH   1  10
ATOM     10  C   UNL     1      88.993  70.082  86.846  0.00  0.00    +0.000 C 
BRANCH  10  11
ATOM     11  C   UNL     1      88.992  68.571  86.813  0.00  0.00    +0.000 A 
ATOM     12  C   UNL     1      90.038  67.861  86.202  0.00  0.00    +0.000 A 
ATOM     13  C   UNL     1      90.044  66.461  86.192  0.00  0.00    +0.000 A 
ATOM     14  C   UNL     1      89.006  65.756  86.810  0.00  0.00    +0.000 A 
ATOM     15  C   UNL     1      87.973  66.455  87.438  0.00  0.00    +0.000 A 
ATOM     16  C   UNL     1      87.968  67.853  87.445  0.00  0.00    +0.000 A 
ATOM     17 CL   UNL     1      88.943  64.030  86.839  0.00  0.00    +0.000 Cl
ATOM     18 CL   UNL     1      91.362  65.667  85.405  0.00  0.00    +0.000 Cl
ENDBRANCH  10  11
ENDBRANCH   1  10
TORSDOF 3
ENDMDL
