MODEL 1
REMARK VINA RESULT:      -4.5      0.000      0.000
REMARK  Name = *****
REMARK  4 active torsions:
REMARK  status: ('A' for Active; 'I' for Inactive)
REMARK    1  A    between atoms: C_4  and  C_7
REMARK    2  A    between atoms: C_7  and  O_9
REMARK    3  A    between atoms: O_9  and  C_10
REMARK    4  A    between atoms: C_13  and  C_16
REMARK                            x       y       z     vdW  Elec       q    Type
REMARK                         _______ _______ _______ _____ _____    ______ ____
ROOT
ATOM      1  O   UNL     1      88.172  69.038  86.233  0.00  0.00    +0.000 OA
ENDROOT
BRANCH   1   2
ATOM      2  C   UNL     1      88.190  67.790  86.864  0.00  0.00    +0.000 A 
ATOM      3  C   UNL     1      87.197  67.434  87.775  0.00  0.00    +0.000 A 
ATOM      4  C   UNL     1      87.212  66.160  88.340  0.00  0.00    +0.000 A 
ATOM      5  C   UNL     1      88.212  65.236  87.991  0.00  0.00    +0.000 A 
ATOM      6  C   UNL     1      89.183  65.606  87.046  0.00  0.00    +0.000 A 
ATOM      7  C   UNL     1      89.171  66.881  86.479  0.00  0.00    +0.000 A 
BRANCH   5   8
ATOM      8  C   UNL     1      88.221  63.860  88.595  0.00  0.00    +0.000 C 
ATOM      9 CL   UNL     1      89.014  63.884  90.185  0.00  0.00    +0.000 Cl
ENDBRANCH   5   8
ENDBRANCH   1   2
BRANCH   1  10
ATOM     10  C   UNL     1      88.272  70.123  87.084  0.00  0.00    +0.000 C 
ATOM     11  O   UNL     1      89.226  70.429  87.784  0.00  0.00    +0.000 OA
BRANCH  10  15
ATOM     12  C   UNL     1      84.631  72.395  87.076  0.00  0.00    +0.000 A 
ATOM     13  C   UNL     1      85.246  72.093  85.861  0.00  0.00    +0.000 A 
ATOM     14  C   UNL     1      86.431  71.355  85.840  0.00  0.00    +0.000 A 
ATOM     15  C   UNL     1      87.009  70.913  87.040  0.00  0.00    +0.000 A 
ATOM     16  C   UNL     1      86.382  71.222  88.256  0.00  0.00    +0.000 A 
ATOM     17  C   UNL     1      85.198  71.960  88.272  0.00  0.00    +0.000 A 
ENDBRANCH  10  15
ENDBRANCH   1  10
TORSDOF 4
ENDMDL
