MODEL 1
REMARK VINA RESULT:      -4.0      0.000      0.000
REMARK  Name = *****
REMARK  5 active torsions:
REMARK  status: ('A' for Active; 'I' for Inactive)
REMARK    1  A    between atoms: C_1  and  C_2
REMARK    2  A    between atoms: C_5  and  C_8
REMARK    3  A    between atoms: C_8  and  O_9
REMARK    4  A    between atoms: O_9  and  S_10
REMARK    5  A    between atoms: S_10  and  C_11
REMARK                            x       y       z     vdW  Elec       q    Type
REMARK                         _______ _______ _______ _____ _____    ______ ____
ROOT
ATOM      1  C   UNL     1      89.725  69.903  86.224  0.00  0.00    +0.000 C 
ENDROOT
BRANCH   1   6
ATOM      2  C   UNL     1      85.088  71.984  89.071  0.00  0.00    +0.000 C 
ATOM      3  C   UNL     1      86.291  71.474  88.336  0.00  0.00    +0.000 A 
ATOM      4  C   UNL     1      87.428  71.057  89.037  0.00  0.00    +0.000 A 
ATOM      5  C   UNL     1      88.537  70.553  88.353  0.00  0.00    +0.000 A 
ATOM      6  C   UNL     1      88.522  70.441  86.956  0.00  0.00    +0.000 A 
ATOM      7  C   UNL     1      87.382  70.855  86.257  0.00  0.00    +0.000 A 
ATOM      8  C   UNL     1      86.273  71.357  86.941  0.00  0.00    +0.000 A 
ENDBRANCH   1   6
BRANCH   1   9
ATOM      9  O   UNL     1      90.036  68.616  86.752  0.00  0.00    +0.000 OA
BRANCH   9  10
ATOM     10  S   UNL     1      89.468  67.345  85.836  0.00  0.00    +0.000 S 
BRANCH  10  11
ATOM     11  C   UNL     1      88.538  66.484  87.097  0.00  0.00    +0.000 A 
ATOM     12  C   UNL     1      87.404  67.095  87.643  0.00  0.00    +0.000 A 
ATOM     13  C   UNL     1      86.658  66.445  88.629  0.00  0.00    +0.000 A 
ATOM     14  C   UNL     1      87.038  65.180  89.071  0.00  0.00    +0.000 A 
ATOM     15  C   UNL     1      88.162  64.561  88.528  0.00  0.00    +0.000 A 
ATOM     16  C   UNL     1      88.908  65.210  87.542  0.00  0.00    +0.000 A 
ENDBRANCH  10  11
ENDBRANCH   9  10
ENDBRANCH   1   9
TORSDOF 4
ENDMDL
