REMARK  Name = *****
REMARK  4 active torsions:
REMARK  status: ('A' for Active; 'I' for Inactive)
REMARK    1  A    between atoms: C_4  and  C_7
REMARK    2  A    between atoms: C_7  and  O_8
REMARK    3  A    between atoms: O_8  and  C_9
REMARK    4  A    between atoms: C_9  and  C_11
REMARK                            x       y       z     vdW  Elec       q    Type
REMARK                         _______ _______ _______ _____ _____    ______ ____
ROOT
ATOM      1  C   UNL     1       3.597  -2.904  -0.865  0.00  0.00    +0.000 C 
ATOM      2  O   UNL     1       3.582  -2.756  -2.076  0.00  0.00    +0.000 OA
ENDROOT
BRANCH   1   3
ATOM      3  C   UNL     1       4.042  -4.157  -0.221  0.00  0.00    +0.000 A 
ATOM      4  C   UNL     1       3.563  -4.569   1.023  0.00  0.00    +0.000 A 
ATOM      5  C   UNL     1       4.015  -5.765   1.581  0.00  0.00    +0.000 A 
ATOM      6  C   UNL     1       4.939  -6.559   0.899  0.00  0.00    +0.000 A 
ATOM      7  C   UNL     1       5.408  -6.160  -0.353  0.00  0.00    +0.000 A 
ATOM      8  C   UNL     1       4.958  -4.964  -0.915  0.00  0.00    +0.000 A 
ATOM      9 CL   UNL     1       3.436  -6.288   3.117  0.00  0.00    +0.000 Cl
ATOM     10  F   UNL     1       2.645  -3.842   1.681  0.00  0.00    +0.000 F 
ENDBRANCH   1   3
BRANCH   1  11
ATOM     11  O   UNL     1       3.299  -1.973   0.068  0.00  0.00    +0.000 OA
BRANCH  11  12
ATOM     12  C   UNL     1       2.846  -0.694  -0.405  0.00  0.00    +0.000 C 
BRANCH  12  16
ATOM     13  C   UNL     1      -1.405   0.313  -0.163  0.00  0.00    +0.000 C 
ATOM     14  C   UNL     1      -0.985  -1.109   0.193  0.00  0.00    +0.000 C 
ATOM     15  C   UNL     1       0.417  -1.430  -0.319  0.00  0.00    +0.000 C 
ATOM     16  C   UNL     1       1.453  -0.403   0.170  0.00  0.00    +0.000 C 
ATOM     17  C   UNL     1       1.017   1.024  -0.187  0.00  0.00    +0.000 C 
ATOM     18  C   UNL     1      -0.386   1.336   0.329  0.00  0.00    +0.000 C 
ENDBRANCH  12  16
ENDBRANCH  11  12
ENDBRANCH   1  11
TORSDOF 4
