REMARK  Name = *****
REMARK  3 active torsions:
REMARK  status: ('A' for Active; 'I' for Inactive)
REMARK    1  A    between atoms: C_4  and  C_7
REMARK    2  A    between atoms: C_8  and  C_9
REMARK    3  A    between atoms: C_14  and  C_15
REMARK                            x       y       z     vdW  Elec       q    Type
REMARK                         _______ _______ _______ _____ _____    ______ ____
ROOT
ATOM      1  C   UNL     1      -2.796   0.424  -0.231  0.00  0.00    +0.000 C 
ATOM      2  C   UNL     1      -3.719  -0.545  -0.336  0.00  0.00    +0.000 C 
ENDROOT
BRANCH   1   6
ATOM      3  C   UNL     1       1.420  -0.180   0.171  0.00  0.00    +0.000 A 
ATOM      4  C   UNL     1       0.672  -1.065  -0.602  0.00  0.00    +0.000 A 
ATOM      5  C   UNL     1      -0.707  -0.886  -0.736  0.00  0.00    +0.000 A 
ATOM      6  C   UNL     1      -1.354   0.176  -0.090  0.00  0.00    +0.000 A 
ATOM      7  C   UNL     1      -0.588   1.069   0.671  0.00  0.00    +0.000 A 
ATOM      8  C   UNL     1       0.792   0.889   0.805  0.00  0.00    +0.000 A 
ENDBRANCH   1   6
BRANCH   2   9
ATOM      9  C   UNL     1      -5.145  -0.227  -0.459  0.00  0.00    +0.000 A 
ATOM     10  C   UNL     1      -5.909  -0.210   0.719  0.00  0.00    +0.000 A 
ATOM     11  C   UNL     1      -7.272   0.096   0.681  0.00  0.00    +0.000 A 
ATOM     12  C   UNL     1      -7.887   0.390  -0.534  0.00  0.00    +0.000 A 
ATOM     13  C   UNL     1      -7.142   0.377  -1.712  0.00  0.00    +0.000 A 
ATOM     14  C   UNL     1      -5.773   0.070  -1.680  0.00  0.00    +0.000 A 
BRANCH  14  15
ATOM     15  C   UNL     1      -5.026   0.062  -2.959  0.00  0.00    +0.000 C 
ATOM     16  O   UNL     1      -5.566   0.320  -4.029  0.00  0.00    +0.000 OA
ENDBRANCH  14  15
ENDBRANCH   2   9
TORSDOF 3
