MODEL 1
REMARK VINA RESULT:      -4.8      0.000      0.000
REMARK  Name = *****
REMARK  3 active torsions:
REMARK  status: ('A' for Active; 'I' for Inactive)
REMARK    1  A    between atoms: C_6  and  C_16
REMARK    2  A    between atoms: C_7  and  C_8
REMARK    3  A    between atoms: C_9  and  C_10
REMARK                            x       y       z     vdW  Elec       q    Type
REMARK                         _______ _______ _______ _____ _____    ______ ____
ROOT
ATOM      1  C   UNL     1      99.432 126.907  84.510  0.00  0.00    +0.000 C 
ATOM      2  C   UNL     1      99.639 126.510  83.040  0.00  0.00    +0.000 C 
ATOM      3  C   UNL     1      98.763 127.585  82.416  0.00  0.00    +0.000 C 
ATOM      4  C   UNL     1      98.911 128.698  83.163  0.00  0.00    +0.000 C 
ATOM      5  C   UNL     1      99.885 128.360  84.281  0.00  0.00    +0.000 C 
ATOM      6  C   UNL     1     101.240 128.059  83.668  0.00  0.00    +0.000 C 
ATOM      7  C   UNL     1     101.094 126.942  82.923  0.00  0.00    +0.000 C 
ENDROOT
BRANCH   6   8
ATOM      8  C   UNL     1     102.384 128.949  83.928  0.00  0.00    +0.000 C 
ATOM      9  F   UNL     1     101.975 130.205  84.247  0.00  0.00    +0.000 F 
ATOM     10  F   UNL     1     103.118 128.505  84.980  0.00  0.00    +0.000 F 
ATOM     11  F   UNL     1     103.234 129.070  82.880  0.00  0.00    +0.000 F 
ENDBRANCH   6   8
BRANCH   7  12
ATOM     12  C   UNL     1     102.093 126.279  82.180  0.00  0.00    +0.000 C 
ATOM     13  C   UNL     1     102.951 125.708  81.563  0.00  0.00    +0.000 C 
BRANCH  13  14
ATOM     14  C   UNL     1     103.987 125.029  80.850  0.00  0.00    +0.000 A 
ATOM     15  C   UNL     1     104.725 125.701  79.873  0.00  0.00    +0.000 A 
ATOM     16  C   UNL     1     105.732 125.032  79.174  0.00  0.00    +0.000 A 
ATOM     17  C   UNL     1     106.001 123.692  79.451  0.00  0.00    +0.000 A 
ATOM     18  C   UNL     1     105.265 123.019  80.427  0.00  0.00    +0.000 A 
ATOM     19  C   UNL     1     104.259 123.687  81.127  0.00  0.00    +0.000 A 
ENDBRANCH  13  14
ENDBRANCH   7  12
TORSDOF 3
ENDMDL
