MODEL 1
REMARK VINA RESULT:      -4.6      0.000      0.000
REMARK  Name = *****
REMARK  3 active torsions:
REMARK  status: ('A' for Active; 'I' for Inactive)
REMARK    1  A    between atoms: C_1  and  C_2
REMARK    2  A    between atoms: C_7  and  N_8
REMARK    3  A    between atoms: C_9  and  C_10
REMARK                            x       y       z     vdW  Elec       q    Type
REMARK                         _______ _______ _______ _____ _____    ______ ____
ROOT
ATOM      1  N   UNL     1     101.590 127.430  83.285  0.00  0.00    +0.000 NA
ATOM      2  C   UNL     1     102.504 127.458  82.367  0.00  0.00    +0.000 C 
ENDROOT
BRANCH   1   9
ATOM      3  C   UNL     1      98.790 128.006  82.771  0.00  0.00    +0.000 C 
ATOM      4  C   UNL     1      99.710 128.994  83.430  0.00  0.00    +0.000 A 
ATOM      5  C   UNL     1      99.226 130.254  83.815  0.00  0.00    +0.000 A 
ATOM      6  C   UNL     1     100.066 131.180  84.436  0.00  0.00    +0.000 A 
ATOM      7  C   UNL     1     101.397 130.855  84.683  0.00  0.00    +0.000 A 
ATOM      8  C   UNL     1     101.889 129.608  84.297  0.00  0.00    +0.000 A 
ATOM      9  C   UNL     1     101.062 128.679  83.657  0.00  0.00    +0.000 A 
ENDBRANCH   1   9
BRANCH   2  10
ATOM     10  C   UNL     1     103.148 126.226  81.874  0.00  0.00    +0.000 A 
ATOM     11  C   UNL     1     103.558 126.118  80.541  0.00  0.00    +0.000 A 
ATOM     12  C   UNL     1     104.167 124.942  80.095  0.00  0.00    +0.000 A 
ATOM     13  C   UNL     1     104.362 123.884  80.982  0.00  0.00    +0.000 A 
ATOM     14  C   UNL     1     103.953 123.989  82.313  0.00  0.00    +0.000 A 
ATOM     15  C   UNL     1     103.344 125.164  82.762  0.00  0.00    +0.000 A 
ATOM     16 CL   UNL     1     105.111 122.436  80.433  0.00  0.00    +0.000 Cl
ENDBRANCH   2  10
TORSDOF 2
ENDMDL
