REMARK  Name = *****
REMARK  5 active torsions:
REMARK  status: ('A' for Active; 'I' for Inactive)
REMARK    1  A    between atoms: C_4  and  C_7
REMARK    2  A    between atoms: C_7  and  C_8
REMARK    3  A    between atoms: C_8  and  C_9
REMARK    4  A    between atoms: C_9  and  O_11
REMARK    5  A    between atoms: O_11  and  C_12
REMARK                            x       y       z     vdW  Elec       q    Type
REMARK                         _______ _______ _______ _____ _____    ______ ____
ROOT
ATOM      1  C   UNL     1       3.332  -2.058   0.049  0.00  0.00    +0.000 C 
ENDROOT
BRANCH   1   2
ATOM      2  C   UNL     1       4.745  -2.267  -0.446  0.00  0.00    +0.000 C 
ATOM      3  O   UNL     1       5.370  -1.496  -1.158  0.00  0.00    +0.000 OA
BRANCH   2   4
ATOM      4  O   UNL     1       5.212  -3.460   0.023  0.00  0.00    +0.000 OA
BRANCH   4   5
ATOM      5  C   UNL     1       6.537  -3.800  -0.384  0.00  0.00    +0.000 C 
ATOM      6  C   UNL     1       6.583  -4.352  -1.805  0.00  0.00    +0.000 C 
ATOM      7  C   UNL     1       7.849  -5.200  -1.848  0.00  0.00    +0.000 C 
ATOM      8  C   UNL     1       8.183  -5.543  -0.395  0.00  0.00    +0.000 C 
ATOM      9  C   UNL     1       7.037  -4.983   0.435  0.00  0.00    +0.000 C 
ENDBRANCH   4   5
ENDBRANCH   2   4
ENDBRANCH   1   2
BRANCH   1  10
ATOM     10  C   UNL     1       2.758  -0.718  -0.416  0.00  0.00    +0.000 C 
BRANCH  10  14
ATOM     11  C   UNL     1      -1.480   0.372  -0.124  0.00  0.00    +0.000 C 
ATOM     12  C   UNL     1      -1.083  -1.045   0.275  0.00  0.00    +0.000 C 
ATOM     13  C   UNL     1       0.303  -1.416  -0.250  0.00  0.00    +0.000 C 
ATOM     14  C   UNL     1       1.374  -0.400   0.181  0.00  0.00    +0.000 C 
ATOM     15  C   UNL     1       0.954   1.026  -0.219  0.00  0.00    +0.000 C 
ATOM     16  C   UNL     1      -0.430   1.387   0.313  0.00  0.00    +0.000 C 
ENDBRANCH  10  14
ENDBRANCH   1  10
TORSDOF 5
