MODEL 1
REMARK VINA RESULT:      -4.0      0.000      0.000
REMARK  Name = *****
REMARK  5 active torsions:
REMARK  status: ('A' for Active; 'I' for Inactive)
REMARK    1  A    between atoms: C_1  and  C_2
REMARK    2  A    between atoms: C_2  and  C_14
REMARK    3  A    between atoms: C_5  and  C_6
REMARK    4  A    between atoms: C_6  and  S_7
REMARK    5  A    between atoms: S_7  and  C_8
REMARK                            x       y       z     vdW  Elec       q    Type
REMARK                         _______ _______ _______ _____ _____    ______ ____
ROOT
ATOM      1  C   UNL     1     103.123 125.247  82.585  0.00  0.00    +0.000 C 
ENDROOT
BRANCH   1   6
ATOM      2  C   UNL     1     106.090 124.523  81.890  0.00  0.00    +0.000 C 
ATOM      3  C   UNL     1     104.972 124.239  80.884  0.00  0.00    +0.000 C 
ATOM      4  C   UNL     1     105.036 125.161  79.629  0.00  0.00    +0.000 C 
ATOM      5  C   UNL     1     104.031 126.098  80.321  0.00  0.00    +0.000 C 
ATOM      6  C   UNL     1     103.559 124.888  81.170  0.00  0.00    +0.000 C 
ATOM      7  C   UNL     1     104.912 122.753  80.535  0.00  0.00    +0.000 C 
ENDBRANCH   1   6
BRANCH   1   8
ATOM      8  S   UNL     1     103.277 127.042  82.837  0.00  0.00    +0.000 S 
BRANCH   8   9
ATOM      9  C   UNL     1     101.552 127.482  82.907  0.00  0.00    +0.000 A 
ATOM     10  C   UNL     1     100.599 126.606  82.380  0.00  0.00    +0.000 A 
ATOM     11  C   UNL     1      99.240 126.926  82.432  0.00  0.00    +0.000 A 
ATOM     12  C   UNL     1      98.827 128.121  83.019  0.00  0.00    +0.000 A 
ATOM     13  C   UNL     1      99.771 128.993  83.560  0.00  0.00    +0.000 A 
ATOM     14  C   UNL     1     101.129 128.673  83.507  0.00  0.00    +0.000 A 
ENDBRANCH   8   9
ENDBRANCH   1   8
TORSDOF 3
ENDMDL
