MODEL 1
REMARK VINA RESULT:      -3.9      0.000      0.000
REMARK  Name = *****
REMARK  4 active torsions:
REMARK  status: ('A' for Active; 'I' for Inactive)
REMARK    1  A    between atoms: C_4  and  C_7
REMARK    2  A    between atoms: C_7  and  O_8
REMARK    3  A    between atoms: O_8  and  C_9
REMARK    4  A    between atoms: C_10  and  C_11
REMARK                            x       y       z     vdW  Elec       q    Type
REMARK                         _______ _______ _______ _____ _____    ______ ____
ROOT
ATOM      1  O   UNL     1      87.751  63.051  86.469  0.00  0.00    +0.000 OA
ENDROOT
BRANCH   1   2
ATOM      2  C   UNL     1      88.348  64.277  86.382  0.00  0.00    +0.000 C 
ATOM      3  C   UNL     1      88.488  65.126  87.411  0.00  0.00    +0.000 C 
BRANCH   3   4
ATOM      4  C   UNL     1      88.055  64.907  88.799  0.00  0.00    +0.000 A 
ATOM      5  C   UNL     1      86.852  65.486  89.229  0.00  0.00    +0.000 A 
ATOM      6  C   UNL     1      86.381  65.276  90.528  0.00  0.00    +0.000 A 
ATOM      7  C   UNL     1      87.102  64.473  91.408  0.00  0.00    +0.000 A 
ATOM      8  C   UNL     1      88.289  63.877  90.990  0.00  0.00    +0.000 A 
ATOM      9  C   UNL     1      88.758  64.088  89.691  0.00  0.00    +0.000 A 
ENDBRANCH   3   4
ENDBRANCH   1   2
BRANCH   1  10
ATOM     10  C   UNL     1      86.331  63.117  86.310  0.00  0.00    +0.000 C 
BRANCH  10  14
ATOM     11  C   UNL     1      84.427  61.804  89.956  0.00  0.00    +0.000 A 
ATOM     12  C   UNL     1      85.726  61.395  89.662  0.00  0.00    +0.000 A 
ATOM     13  C   UNL     1      86.339  61.812  88.479  0.00  0.00    +0.000 A 
ATOM     14  C   UNL     1      85.657  62.637  87.574  0.00  0.00    +0.000 A 
ATOM     15  C   UNL     1      84.353  63.049  87.885  0.00  0.00    +0.000 A 
ATOM     16  C   UNL     1      83.741  62.632  89.069  0.00  0.00    +0.000 A 
ENDBRANCH  10  14
ENDBRANCH   1  10
TORSDOF 4
ENDMDL
