REMARK  Name = *****
REMARK  3 active torsions:
REMARK  status: ('A' for Active; 'I' for Inactive)
REMARK    1  A    between atoms: C_1  and  C_2
REMARK    2  A    between atoms: C_5  and  C_8
REMARK    3  A    between atoms: C_9  and  C_10
REMARK                            x       y       z     vdW  Elec       q    Type
REMARK                         _______ _______ _______ _____ _____    ______ ____
ROOT
ATOM      1  C   UNL     1       6.697   0.065  -0.787  0.00  0.00    +0.000 C 
ATOM      2  C   UNL     1       7.875   0.091  -1.021  0.00  0.00    +0.000 C 
ENDROOT
BRANCH   1   7
ATOM      3  C   UNL     1       1.067  -0.054   0.307  0.00  0.00    +0.000 C 
ATOM      4  C   UNL     1       2.544  -0.020   0.050  0.00  0.00    +0.000 A 
ATOM      5  C   UNL     1       3.202   1.199  -0.157  0.00  0.00    +0.000 A 
ATOM      6  C   UNL     1       4.572   1.228  -0.429  0.00  0.00    +0.000 A 
ATOM      7  C   UNL     1       5.295   0.036  -0.507  0.00  0.00    +0.000 A 
ATOM      8  C   UNL     1       4.644  -1.184  -0.318  0.00  0.00    +0.000 A 
ATOM      9  C   UNL     1       3.273  -1.212  -0.045  0.00  0.00    +0.000 A 
ENDBRANCH   1   7
BRANCH   2  10
ATOM     10  C   UNL     1       9.277   0.122  -1.301  0.00  0.00    +0.000 A 
ATOM     11  C   UNL     1       9.931   1.346  -1.457  0.00  0.00    +0.000 A 
ATOM     12  C   UNL     1      11.299   1.366  -1.729  0.00  0.00    +0.000 A 
ATOM     13  C   UNL     1      12.018   0.177  -1.848  0.00  0.00    +0.000 A 
ATOM     14  C   UNL     1      11.363  -1.045  -1.692  0.00  0.00    +0.000 A 
ATOM     15  C   UNL     1       9.993  -1.073  -1.419  0.00  0.00    +0.000 A 
ATOM     16 BR   UNL     1      12.188   3.022  -1.941  0.00  0.00    +0.000 Br
ENDBRANCH   2  10
TORSDOF 2
