MODEL 1
REMARK VINA RESULT:      -5.0      0.000      0.000
REMARK  Name = *****
REMARK  1 active torsions:
REMARK  status: ('A' for Active; 'I' for Inactive)
REMARK    1  A    between atoms: C_1  and  N_2
REMARK                            x       y       z     vdW  Elec       q    Type
REMARK                         _______ _______ _______ _____ _____    ______ ____
ROOT
ATOM      1  C   UNL     1      94.338 117.426  79.865  0.00  0.00    +0.000 C 
ATOM      2  N   UNL     1      95.409 116.888  80.699  0.00  0.00    +0.000 N 
ATOM      3  C   UNL     1      96.349 117.877  81.169  0.00  0.00    +0.000 A 
ATOM      4  C   UNL     1      95.992 118.675  82.258  0.00  0.00    +0.000 A 
ATOM      5  C   UNL     1      96.864 119.667  82.711  0.00  0.00    +0.000 A 
ATOM      6  C   UNL     1      98.090 119.880  82.071  0.00  0.00    +0.000 A 
ATOM      7  C   UNL     1      98.450 119.112  80.962  0.00  0.00    +0.000 A 
ATOM      8  C   UNL     1      97.584 118.120  80.504  0.00  0.00    +0.000 A 
ATOM      9  C   UNL     1      97.873 117.383  79.311  0.00  0.00    +0.000 C 
ATOM     10  C   UNL     1      97.594 116.525  78.521  0.00  0.00    +0.000 C 
ATOM     11  C   UNL     1      96.723 115.455  78.153  0.00  0.00    +0.000 A 
ATOM     12  C   UNL     1      96.721 114.891  76.882  0.00  0.00    +0.000 A 
ATOM     13  C   UNL     1      95.826 113.855  76.598  0.00  0.00    +0.000 A 
ATOM     14  C   UNL     1      94.948 113.378  77.581  0.00  0.00    +0.000 A 
ATOM     15  C   UNL     1      94.945 113.939  78.860  0.00  0.00    +0.000 A 
ATOM     16  C   UNL     1      95.815 114.992  79.135  0.00  0.00    +0.000 A 
ATOM     17  C   UNL     1      95.884 115.576  80.506  0.00  0.00    +0.000 C 
ATOM     18  O   UNL     1      96.453 114.921  81.377  0.00  0.00    +0.000 OA
ENDROOT
TORSDOF 0
ENDMDL
