MODEL 1
REMARK VINA RESULT:      -4.9      0.000      0.000
REMARK  Name = *****
REMARK  2 active torsions:
REMARK  status: ('A' for Active; 'I' for Inactive)
REMARK    1  A    between atoms: C_3  and  S_11
REMARK    2  A    between atoms: S_11  and  C_12
REMARK                            x       y       z     vdW  Elec       q    Type
REMARK                         _______ _______ _______ _____ _____    ______ ____
ROOT
ATOM      1  C   UNL     1      89.717  69.374  86.373  0.00  0.00    +0.000 C 
ATOM      2  C   UNL     1      89.282  70.244  87.560  0.00  0.00    +0.000 C 
ATOM      3  C   UNL     1      87.925  69.859  88.104  0.00  0.00    +0.000 C 
ATOM      4  C   UNL     1      87.453  68.606  87.976  0.00  0.00    +0.000 C 
ATOM      5  C   UNL     1      88.264  67.561  87.339  0.00  0.00    +0.000 A 
ATOM      6  C   UNL     1      87.915  66.213  87.471  0.00  0.00    +0.000 A 
ATOM      7  C   UNL     1      88.683  65.224  86.853  0.00  0.00    +0.000 A 
ATOM      8  C   UNL     1      89.796  65.578  86.092  0.00  0.00    +0.000 A 
ATOM      9  C   UNL     1      90.146  66.921  85.945  0.00  0.00    +0.000 A 
ATOM     10  C   UNL     1      89.389  67.917  86.574  0.00  0.00    +0.000 A 
ENDROOT
BRANCH   3  11
ATOM     11  S   UNL     1      86.934  71.071  88.872  0.00  0.00    +0.000 S 
BRANCH  11  12
ATOM     12  C   UNL     1      85.956  71.597  87.476  0.00  0.00    +0.000 A 
ATOM     13  C   UNL     1      86.431  71.457  86.167  0.00  0.00    +0.000 A 
ATOM     14  C   UNL     1      85.655  71.881  85.086  0.00  0.00    +0.000 A 
ATOM     15  C   UNL     1      84.405  72.456  85.308  0.00  0.00    +0.000 A 
ATOM     16  C   UNL     1      83.930  72.609  86.610  0.00  0.00    +0.000 A 
ATOM     17  C   UNL     1      84.705  72.184  87.691  0.00  0.00    +0.000 A 
ENDBRANCH  11  12
ENDBRANCH   3  11
TORSDOF 2
ENDMDL
