MODEL 1
REMARK VINA RESULT:      -4.3      0.000      0.000
REMARK  Name = *****
REMARK  2 active torsions:
REMARK  status: ('A' for Active; 'I' for Inactive)
REMARK    1  A    between atoms: C_6  and  C_7
REMARK    2  A    between atoms: N_8  and  C_10
REMARK                            x       y       z     vdW  Elec       q    Type
REMARK                         _______ _______ _______ _____ _____    ______ ____
ROOT
ATOM      1  C   UNL     1      87.424  63.083  87.359  0.00  0.00    +0.000 C 
ATOM      2  N   UNL     1      87.632  64.000  86.229  0.00  0.00    +0.000 N 
ATOM      3  O   UNL     1      86.344  63.665  86.622  0.00  0.00    +0.000 OA
ENDROOT
BRANCH   1   9
ATOM      4  C   UNL     1      88.902  63.531  89.375  0.00  0.00    +0.000 A 
ATOM      5  C   UNL     1      89.088  63.898  90.711  0.00  0.00    +0.000 A 
ATOM      6  C   UNL     1      87.987  64.222  91.497  0.00  0.00    +0.000 A 
ATOM      7  C   UNL     1      86.705  64.178  90.957  0.00  0.00    +0.000 A 
ATOM      8  C   UNL     1      86.527  63.813  89.620  0.00  0.00    +0.000 A 
ATOM      9  C   UNL     1      87.621  63.489  88.795  0.00  0.00    +0.000 A 
ATOM     10 CL   UNL     1      88.210  64.674  93.141  0.00  0.00    +0.000 Cl
ENDBRANCH   1   9
BRANCH   2  11
ATOM     11  C   UNL     1      88.039  65.344  86.426  0.00  0.00    +0.000 A 
ATOM     12  C   UNL     1      89.403  65.640  86.275  0.00  0.00    +0.000 A 
ATOM     13  C   UNL     1      89.880  66.943  86.448  0.00  0.00    +0.000 A 
ATOM     14  C   UNL     1      88.991  67.966  86.764  0.00  0.00    +0.000 A 
ATOM     15  C   UNL     1      87.631  67.699  86.900  0.00  0.00    +0.000 A 
ATOM     16  C   UNL     1      87.158  66.395  86.725  0.00  0.00    +0.000 A 
ATOM     17 CL   UNL     1      89.574  69.570  86.980  0.00  0.00    +0.000 Cl
ENDBRANCH   2  11
TORSDOF 2
ENDMDL
