REMARK  Name = *****
REMARK  4 active torsions:
REMARK  status: ('A' for Active; 'I' for Inactive)
REMARK    1  A    between atoms: C_1  and  O_2
REMARK    2  A    between atoms: O_2  and  C_3
REMARK    3  A    between atoms: C_7  and  C_9
REMARK    4  A    between atoms: C_10  and  C_11
REMARK                            x       y       z     vdW  Elec       q    Type
REMARK                         _______ _______ _______ _____ _____    ______ ____
ROOT
ATOM      1  C   UNL     1       6.377   2.758   0.881  0.00  0.00    +0.000 C 
ATOM      2  C   UNL     1       7.309   3.296   1.686  0.00  0.00    +0.000 C 
ATOM      3  F   UNL     1       7.045   3.431   3.008  0.00  0.00    +0.000 F 
ENDROOT
BRANCH   1   8
ATOM      4  C   UNL     1       3.174   0.769   1.021  0.00  0.00    +0.000 A 
ATOM      5  C   UNL     1       2.444   1.470   1.980  0.00  0.00    +0.000 A 
ATOM      6  C   UNL     1       2.997   2.597   2.591  0.00  0.00    +0.000 A 
ATOM      7  C   UNL     1       4.282   3.025   2.250  0.00  0.00    +0.000 A 
ATOM      8  C   UNL     1       5.036   2.324   1.304  0.00  0.00    +0.000 A 
ATOM      9  C   UNL     1       4.462   1.204   0.686  0.00  0.00    +0.000 A 
BRANCH   4  11
ATOM     10  C   UNL     1       1.457  -0.835   0.659  0.00  0.00    +0.000 C 
ATOM     11  O   UNL     1       2.752  -0.341   0.341  0.00  0.00    +0.000 OA
ENDBRANCH   4  11
ENDBRANCH   1   8
BRANCH   2  12
ATOM     12  C   UNL     1       8.657   3.706   1.252  0.00  0.00    +0.000 A 
ATOM     13  C   UNL     1       8.947   4.113  -0.059  0.00  0.00    +0.000 A 
ATOM     14  C   UNL     1      10.240   4.509  -0.416  0.00  0.00    +0.000 A 
ATOM     15  C   UNL     1      11.258   4.511   0.534  0.00  0.00    +0.000 A 
ATOM     16  C   UNL     1      10.984   4.123   1.843  0.00  0.00    +0.000 A 
ATOM     17  C   UNL     1       9.692   3.728   2.199  0.00  0.00    +0.000 A 
ENDBRANCH   2  12
TORSDOF 3
