MODEL 1
REMARK VINA RESULT:      -4.9      0.000      0.000
REMARK  Name = *****
REMARK  3 active torsions:
REMARK  status: ('A' for Active; 'I' for Inactive)
REMARK    1  A    between atoms: C_1  and  C_9
REMARK    2  A    between atoms: C_2  and  C_3
REMARK    3  A    between atoms: C_9  and  C_11
REMARK                            x       y       z     vdW  Elec       q    Type
REMARK                         _______ _______ _______ _____ _____    ______ ____
ROOT
ATOM      1  C   UNL     1     100.529 126.432  82.379  0.00  0.00    +0.000 C 
ATOM      2  C   UNL     1     101.736 127.005  82.246  0.00  0.00    +0.000 C 
ENDROOT
BRANCH   2   3
ATOM      3  C   UNL     1     103.008 126.235  81.997  0.00  0.00    +0.000 C 
ATOM      4  C   UNL     1     103.054 125.735  80.544  0.00  0.00    +0.000 C 
ATOM      5  C   UNL     1     104.302 124.896  80.279  0.00  0.00    +0.000 C 
ATOM      6  C   UNL     1     104.423 123.739  81.265  0.00  0.00    +0.000 C 
ATOM      7  C   UNL     1     104.373 124.224  82.711  0.00  0.00    +0.000 C 
ATOM      8  C   UNL     1     103.125 125.062  82.981  0.00  0.00    +0.000 C 
ENDBRANCH   2   3
BRANCH   1   9
ATOM      9  C   UNL     1      99.327 127.273  82.646  0.00  0.00    +0.000 C 
ATOM     10  O   UNL     1      98.268 127.098  82.050  0.00  0.00    +0.000 OA
BRANCH   9  11
ATOM     11  C   UNL     1      99.454 128.380  83.632  0.00  0.00    +0.000 A 
ATOM     12  C   UNL     1      99.683 128.151  84.995  0.00  0.00    +0.000 A 
ATOM     13  C   UNL     1      99.788 129.230  85.877  0.00  0.00    +0.000 A 
ATOM     14  C   UNL     1      99.655 130.536  85.406  0.00  0.00    +0.000 A 
ATOM     15  C   UNL     1      99.408 130.768  84.054  0.00  0.00    +0.000 A 
ATOM     16  C   UNL     1      99.302 129.693  83.170  0.00  0.00    +0.000 A 
ENDBRANCH   9  11
ENDBRANCH   1   9
TORSDOF 3
ENDMDL
