MODEL 1
REMARK VINA RESULT:      -4.8      0.000      0.000
REMARK  Name = *****
REMARK  5 active torsions:
REMARK  status: ('A' for Active; 'I' for Inactive)
REMARK    1  A    between atoms: C_1  and  C_2
REMARK    2  A    between atoms: C_7  and  S_8
REMARK    3  A    between atoms: S_8  and  C_9
REMARK    4  A    between atoms: C_9  and  C_10
REMARK    5  A    between atoms: C_9  and  C_11
REMARK                            x       y       z     vdW  Elec       q    Type
REMARK                         _______ _______ _______ _____ _____    ______ ____
ROOT
ATOM      1  S   UNL     1     102.819 127.591  82.891  0.00  0.00    +0.000 S 
ENDROOT
BRANCH   1   8
ATOM      2  C   UNL     1     101.154 129.886  84.322  0.00  0.00    +0.000 C 
ATOM      3  C   UNL     1     100.391 128.758  83.681  0.00  0.00    +0.000 A 
ATOM      4  C   UNL     1      98.986 128.779  83.735  0.00  0.00    +0.000 A 
ATOM      5  C   UNL     1      98.230 127.774  83.131  0.00  0.00    +0.000 A 
ATOM      6  C   UNL     1      98.867 126.740  82.455  0.00  0.00    +0.000 A 
ATOM      7  C   UNL     1     100.260 126.705  82.394  0.00  0.00    +0.000 A 
ATOM      8  C   UNL     1     101.034 127.689  83.024  0.00  0.00    +0.000 A 
ENDBRANCH   1   8
BRANCH   1   9
ATOM      9  C   UNL     1     103.047 126.670  81.303  0.00  0.00    +0.000 C 
ATOM     10  C   UNL     1     103.701 127.551  80.235  0.00  0.00    +0.000 C 
BRANCH   9  11
ATOM     11  C   UNL     1     103.662 125.294  81.503  0.00  0.00    +0.000 A 
ATOM     12  C   UNL     1     103.708 124.651  82.750  0.00  0.00    +0.000 A 
ATOM     13  C   UNL     1     104.281 123.385  82.883  0.00  0.00    +0.000 A 
ATOM     14  C   UNL     1     104.820 122.738  81.773  0.00  0.00    +0.000 A 
ATOM     15  C   UNL     1     104.783 123.357  80.528  0.00  0.00    +0.000 A 
ATOM     16  C   UNL     1     104.211 124.623  80.394  0.00  0.00    +0.000 A 
ENDBRANCH   9  11
ENDBRANCH   1   9
TORSDOF 3
ENDMDL
