MODEL 1
REMARK VINA RESULT:      -4.4      0.000      0.000
REMARK  Name = *****
REMARK  3 active torsions:
REMARK  status: ('A' for Active; 'I' for Inactive)
REMARK    1  A    between atoms: C_6  and  C_7
REMARK    2  A    between atoms: C_7  and  S_8
REMARK    3  A    between atoms: S_8  and  C_9
REMARK                            x       y       z     vdW  Elec       q    Type
REMARK                         _______ _______ _______ _____ _____    ______ ____
ROOT
ATOM      1  C   UNL     1     102.839 127.631  82.921  0.00  0.00    +0.000 C 
ENDROOT
BRANCH   1   7
ATOM      2  C   UNL     1     100.650 128.758  83.504  0.00  0.00    +0.000 A 
ATOM      3  C   UNL     1      99.255 128.794  83.514  0.00  0.00    +0.000 A 
ATOM      4  C   UNL     1      98.539 127.738  82.961  0.00  0.00    +0.000 A 
ATOM      5  C   UNL     1      99.191 126.650  82.396  0.00  0.00    +0.000 A 
ATOM      6  C   UNL     1     100.587 126.613  82.382  0.00  0.00    +0.000 A 
ATOM      7  C   UNL     1     101.330 127.664  82.944  0.00  0.00    +0.000 A 
ATOM      8  F   UNL     1      97.200 127.773  82.971  0.00  0.00    +0.000 F 
ENDBRANCH   1   7
BRANCH   1   9
ATOM      9  S   UNL     1     103.471 127.370  81.230  0.00  0.00    +0.000 S 
BRANCH   9  10
ATOM     10  C   UNL     1     103.970 125.661  81.327  0.00  0.00    +0.000 A 
ATOM     11  C   UNL     1     103.920 125.017  82.569  0.00  0.00    +0.000 A 
ATOM     12  C   UNL     1     104.290 123.674  82.688  0.00  0.00    +0.000 A 
ATOM     13  C   UNL     1     104.702 122.969  81.559  0.00  0.00    +0.000 A 
ATOM     14  C   UNL     1     104.741 123.593  80.315  0.00  0.00    +0.000 A 
ATOM     15  C   UNL     1     104.371 124.937  80.198  0.00  0.00    +0.000 A 
ATOM     16 CL   UNL     1     105.157 121.317  81.702  0.00  0.00    +0.000 Cl
ENDBRANCH   9  10
ENDBRANCH   1   9
TORSDOF 3
ENDMDL
