MODEL 1
REMARK VINA RESULT:      -4.8      0.000      0.000
REMARK  Name = *****
REMARK  4 active torsions:
REMARK  status: ('A' for Active; 'I' for Inactive)
REMARK    1  A    between atoms: C_2  and  C_3
REMARK    2  A    between atoms: C_2  and  O_9
REMARK    3  A    between atoms: O_9  and  C_10
REMARK    4  A    between atoms: C_10  and  C_12
REMARK                            x       y       z     vdW  Elec       q    Type
REMARK                         _______ _______ _______ _____ _____    ______ ____
ROOT
ATOM      1  O   UNL     1     102.270 125.675  81.432  0.00  0.00    +0.000 OA
ENDROOT
BRANCH   1   3
ATOM      2  C   UNL     1     103.622 127.323  80.407  0.00  0.00    +0.000 C 
ATOM      3  C   UNL     1     103.397 126.026  80.655  0.00  0.00    +0.000 C 
BRANCH   3   4
ATOM      4  C   UNL     1     104.213 124.873  80.095  0.00  0.00    +0.000 C 
ATOM      5  C   UNL     1     104.392 123.723  81.102  0.00  0.00    +0.000 C 
ATOM      6  C   UNL     1     105.210 122.579  80.503  0.00  0.00    +0.000 C 
ATOM      7  C   UNL     1     106.558 123.065  79.982  0.00  0.00    +0.000 C 
ATOM      8  C   UNL     1     106.397 124.212  78.989  0.00  0.00    +0.000 C 
ATOM      9  C   UNL     1     105.578 125.360  79.577  0.00  0.00    +0.000 C 
ENDBRANCH   3   4
ENDBRANCH   1   3
BRANCH   1  10
ATOM     10  C   UNL     1     102.252 126.184  82.701  0.00  0.00    +0.000 C 
ATOM     11  O   UNL     1     103.043 125.952  83.603  0.00  0.00    +0.000 OA
BRANCH  10  12
ATOM     12  C   UNL     1     101.077 127.084  82.866  0.00  0.00    +0.000 A 
ATOM     13  C   UNL     1      99.793 126.741  82.419  0.00  0.00    +0.000 A 
ATOM     14  C   UNL     1      98.729 127.630  82.596  0.00  0.00    +0.000 A 
ATOM     15  C   UNL     1      98.939 128.859  83.218  0.00  0.00    +0.000 A 
ATOM     16  C   UNL     1     100.213 129.208  83.662  0.00  0.00    +0.000 A 
ATOM     17  C   UNL     1     101.280 128.325  83.485  0.00  0.00    +0.000 A 
ENDBRANCH  10  12
ENDBRANCH   1  10
TORSDOF 4
ENDMDL
