MODEL 1
REMARK VINA RESULT:      -4.8      0.000      0.000
REMARK  Name = *****
REMARK  2 active torsions:
REMARK  status: ('A' for Active; 'I' for Inactive)
REMARK    1  A    between atoms: C_4  and  C_7
REMARK    2  A    between atoms: C_7  and  C_8
REMARK                            x       y       z     vdW  Elec       q    Type
REMARK                         _______ _______ _______ _____ _____    ______ ____
ROOT
ATOM      1  C   UNL     1      89.191  68.554  86.935  0.00  0.00    +0.000 A 
ATOM      2  N   UNL     1      88.219  67.658  86.924  0.00  0.00    +0.000 NA
ATOM      3  C   UNL     1      88.811  66.542  86.389  0.00  0.00    +0.000 A 
ATOM      4  C   UNL     1      90.139  66.809  86.098  0.00  0.00    +0.000 A 
ATOM      5  O   UNL     1      90.394  68.101  86.452  0.00  0.00    +0.000 OA
ATOM      6  C   UNL     1      91.026  65.895  85.545  0.00  0.00    +0.000 A 
ATOM      7  C   UNL     1      90.500  64.624  85.282  0.00  0.00    +0.000 A 
ATOM      8  C   UNL     1      89.161  64.320  85.566  0.00  0.00    +0.000 A 
ATOM      9  C   UNL     1      88.294  65.269  86.122  0.00  0.00    +0.000 A 
ATOM     10 CL   UNL     1      88.566  62.740  85.225  0.00  0.00    +0.000 Cl
ENDROOT
BRANCH   1  11
ATOM     11  C   UNL     1      89.150  69.962  87.421  0.00  0.00    +0.000 C 
BRANCH  11  15
ATOM     12  C   UNL     1      85.333  71.954  87.018  0.00  0.00    +0.000 A 
ATOM     13  C   UNL     1      85.812  71.624  88.284  0.00  0.00    +0.000 A 
ATOM     14  C   UNL     1      87.039  70.973  88.421  0.00  0.00    +0.000 A 
ATOM     15  C   UNL     1      87.796  70.628  87.290  0.00  0.00    +0.000 A 
ATOM     16  C   UNL     1      87.307  70.977  86.021  0.00  0.00    +0.000 A 
ATOM     17  C   UNL     1      86.081  71.633  85.887  0.00  0.00    +0.000 A 
ENDBRANCH  11  15
ENDBRANCH   1  11
TORSDOF 2
ENDMDL
