MODEL 1
REMARK VINA RESULT:      -4.7      0.000      0.000
REMARK  Name = *****
REMARK  3 active torsions:
REMARK  status: ('A' for Active; 'I' for Inactive)
REMARK    1  A    between atoms: C_1  and  C_2
REMARK    2  A    between atoms: C_8  and  C_18
REMARK    3  A    between atoms: C_10  and  C_12
REMARK                            x       y       z     vdW  Elec       q    Type
REMARK                         _______ _______ _______ _____ _____    ______ ____
ROOT
ATOM      1  C   UNL     1     105.012 129.243  81.522  0.00  0.00    +0.000 C 
ATOM      2  C   UNL     1     104.167 127.985  81.355  0.00  0.00    +0.000 C 
ATOM      3  C   UNL     1     104.947 126.694  81.615  0.00  0.00    +0.000 C 
ATOM      4  C   UNL     1     106.073 126.540  80.565  0.00  0.00    +0.000 C 
ATOM      5  C   UNL     1     106.527 125.103  80.370  0.00  0.00    +0.000 C 
ATOM      6  C   UNL     1     105.380 124.190  79.943  0.00  0.00    +0.000 C 
ATOM      7  C   UNL     1     103.997 124.712  80.336  0.00  0.00    +0.000 C 
ATOM      8  C   UNL     1     103.985 125.479  81.671  0.00  0.00    +0.000 C 
ATOM      9  N   UNL     1     102.586 125.839  81.938  0.00  0.00    +0.000 NA
ATOM     10  C   UNL     1     102.253 127.030  82.275  0.00  0.00    +0.000 C 
ATOM     11  O   UNL     1     103.083 128.091  82.280  0.00  0.00    +0.000 OA
ATOM     12  C   UNL     1     104.372 124.535  82.830  0.00  0.00    +0.000 C 
ENDROOT
BRANCH  10  13
ATOM     13  C   UNL     1     100.883 127.403  82.708  0.00  0.00    +0.000 A 
ATOM     14  C   UNL     1     100.712 128.546  83.500  0.00  0.00    +0.000 A 
ATOM     15  C   UNL     1      99.437 128.927  83.925  0.00  0.00    +0.000 A 
ATOM     16  C   UNL     1      98.326 128.168  83.561  0.00  0.00    +0.000 A 
ATOM     17  C   UNL     1      98.486 127.029  82.773  0.00  0.00    +0.000 A 
ATOM     18  C   UNL     1      99.760 126.646  82.345  0.00  0.00    +0.000 A 
ENDBRANCH  10  13
TORSDOF 1
ENDMDL
