MODEL 1
REMARK VINA RESULT:      -5.2      0.000      0.000
REMARK  Name = *****
REMARK  5 active torsions:
REMARK  status: ('A' for Active; 'I' for Inactive)
REMARK    1  A    between atoms: C_1  and  C_2
REMARK    2  A    between atoms: C_5  and  N_8
REMARK    3  A    between atoms: N_8  and  C_9
REMARK    4  A    between atoms: C_10  and  C_12
REMARK    5  A    between atoms: C_16  and  C_18
REMARK                            x       y       z     vdW  Elec       q    Type
REMARK                         _______ _______ _______ _____ _____    ______ ____
ROOT
ATOM      1  N   UNL     1     102.895 125.962  82.146  0.00  0.00    +0.000 N 
ATOM      2  C   UNL     1     103.135 127.128  81.290  0.00  0.00    +0.000 C 
ATOM      3  C   UNL     1     102.002 126.060  83.231  0.00  0.00    +0.000 C 
ATOM      4  O   UNL     1     102.057 125.417  84.277  0.00  0.00    +0.000 OA
ENDROOT
BRANCH   1   9
ATOM      5  C   UNL     1     106.075 121.201  81.227  0.00  0.00    +0.000 C 
ATOM      6  C   UNL     1     105.277 122.447  81.469  0.00  0.00    +0.000 A 
ATOM      7  C   UNL     1     104.837 122.773  82.750  0.00  0.00    +0.000 A 
ATOM      8  C   UNL     1     104.065 123.923  82.971  0.00  0.00    +0.000 A 
ATOM      9  C   UNL     1     103.710 124.786  81.925  0.00  0.00    +0.000 A 
ATOM     10  C   UNL     1     104.133 124.420  80.635  0.00  0.00    +0.000 A 
ATOM     11  C   UNL     1     104.905 123.272  80.409  0.00  0.00    +0.000 A 
ENDBRANCH   1   9
BRANCH   3  12
ATOM     12  C   UNL     1     100.874 127.020  83.122  0.00  0.00    +0.000 A 
ATOM     13  C   UNL     1      99.678 126.644  82.502  0.00  0.00    +0.000 A 
ATOM     14  C   UNL     1      98.620 127.550  82.437  0.00  0.00    +0.000 A 
ATOM     15  C   UNL     1      98.754 128.822  82.998  0.00  0.00    +0.000 A 
ATOM     16  C   UNL     1      99.945 129.204  83.631  0.00  0.00    +0.000 A 
ATOM     17  C   UNL     1     100.999 128.285  83.708  0.00  0.00    +0.000 A 
ATOM     18  C   UNL     1     100.064 130.550  84.282  0.00  0.00    +0.000 C 
ENDBRANCH   3  12
TORSDOF 2
ENDMDL
