MODEL 1
REMARK VINA RESULT:      -4.2      0.000      0.000
REMARK  Name = *****
REMARK  5 active torsions:
REMARK  status: ('A' for Active; 'I' for Inactive)
REMARK    1  A    between atoms: C_1  and  C_2
REMARK    2  A    between atoms: C_2  and  C_4
REMARK    3  A    between atoms: C_4  and  C_17
REMARK    4  A    between atoms: C_6  and  C_9
REMARK    5  A    between atoms: C_10  and  C_11
REMARK                            x       y       z     vdW  Elec       q    Type
REMARK                         _______ _______ _______ _____ _____    ______ ____
ROOT
ATOM      1  C   UNL     1      87.346  70.532  87.207  0.00  0.00    +0.000 C 
ATOM      2  C   UNL     1      88.883  70.565  87.265  0.00  0.00    +0.000 C 
ATOM      3  C   UNL     1      89.457  70.280  85.874  0.00  0.00    +0.000 C 
ATOM      4  S   UNL     1      88.291  71.057  84.723  0.00  0.00    +0.000 S 
ATOM      5  C   UNL     1      86.973  71.331  85.947  0.00  0.00    +0.000 C 
ATOM      6  C   UNL     1      86.748  71.226  88.442  0.00  0.00    +0.000 C 
ENDROOT
BRANCH   1   8
ATOM      7  C   UNL     1      86.966  68.203  88.360  0.00  0.00    +0.000 C 
ATOM      8  C   UNL     1      86.762  69.106  87.165  0.00  0.00    +0.000 C 
ATOM      9  O   UNL     1      86.095  68.705  86.210  0.00  0.00    +0.000 OA
ENDBRANCH   1   8
BRANCH   3  10
ATOM     10  C   UNL     1      89.586  68.819  85.545  0.00  0.00    +0.000 C 
ATOM     11  C   UNL     1      90.044  67.905  86.416  0.00  0.00    +0.000 C 
BRANCH  11  12
ATOM     12  C   UNL     1      90.177  66.472  86.117  0.00  0.00    +0.000 A 
ATOM     13  C   UNL     1      91.272  65.949  85.419  0.00  0.00    +0.000 A 
ATOM     14  C   UNL     1      91.374  64.576  85.179  0.00  0.00    +0.000 A 
ATOM     15  C   UNL     1      90.389  63.710  85.646  0.00  0.00    +0.000 A 
ATOM     16  C   UNL     1      89.303  64.215  86.357  0.00  0.00    +0.000 A 
ATOM     17  C   UNL     1      89.200  65.588  86.596  0.00  0.00    +0.000 A 
ENDBRANCH  11  12
ENDBRANCH   3  10
TORSDOF 3
ENDMDL
