MODEL 1
REMARK VINA RESULT:      -4.3      0.000      0.000
REMARK  Name = *****
REMARK  5 active torsions:
REMARK  status: ('A' for Active; 'I' for Inactive)
REMARK    1  A    between atoms: C_4  and  C_7
REMARK    2  A    between atoms: C_7  and  C_8
REMARK    3  A    between atoms: C_7  and  S_11
REMARK    4  A    between atoms: C_8  and  C_9
REMARK    5  A    between atoms: S_11  and  C_12
REMARK                            x       y       z     vdW  Elec       q    Type
REMARK                         _______ _______ _______ _____ _____    ______ ____
ROOT
ATOM      1  C   UNL     1      87.810  70.836  85.586  0.00  0.00    +0.000 C 
ENDROOT
BRANCH   1   5
ATOM      2  C   UNL     1      84.185  72.472  87.327  0.00  0.00    +0.000 A 
ATOM      3  C   UNL     1      84.367  72.470  85.946  0.00  0.00    +0.000 A 
ATOM      4  C   UNL     1      85.529  71.930  85.391  0.00  0.00    +0.000 A 
ATOM      5  C   UNL     1      86.530  71.385  86.212  0.00  0.00    +0.000 A 
ATOM      6  C   UNL     1      86.332  71.401  87.605  0.00  0.00    +0.000 A 
ATOM      7  C   UNL     1      85.166  71.936  88.156  0.00  0.00    +0.000 A 
ENDBRANCH   1   5
BRANCH   1   8
ATOM      8  C   UNL     1      88.407  71.827  84.571  0.00  0.00    +0.000 C 
BRANCH   8   9
ATOM      9  C   UNL     1      89.772  71.424  84.199  0.00  0.00    +0.000 C 
ATOM     10  N   UNL     1      90.838  71.085  83.889  0.00  0.00    +0.000 NA
ENDBRANCH   8   9
ENDBRANCH   1   8
BRANCH   1  11
ATOM     11  S   UNL     1      89.021  70.400  86.927  0.00  0.00    +0.000 S 
BRANCH  11  12
ATOM     12  C   UNL     1      89.023  68.617  86.878  0.00  0.00    +0.000 A 
ATOM     13  C   UNL     1      87.931  67.941  87.434  0.00  0.00    +0.000 A 
ATOM     14  C   UNL     1      87.883  66.546  87.430  0.00  0.00    +0.000 A 
ATOM     15  C   UNL     1      88.927  65.816  86.866  0.00  0.00    +0.000 A 
ATOM     16  C   UNL     1      90.008  66.481  86.292  0.00  0.00    +0.000 A 
ATOM     17  C   UNL     1      90.054  67.878  86.290  0.00  0.00    +0.000 A 
ENDBRANCH  11  12
ENDBRANCH   1  11
TORSDOF 5
ENDMDL
