REMARK  Name = *****
REMARK  3 active torsions:
REMARK  status: ('A' for Active; 'I' for Inactive)
REMARK    1  A    between atoms: C_7  and  C_8
REMARK    2  A    between atoms: C_8  and  O_10
REMARK    3  A    between atoms: O_10  and  C_11
REMARK                            x       y       z     vdW  Elec       q    Type
REMARK                         _______ _______ _______ _____ _____    ______ ____
ROOT
ATOM      1  C   UNL     1      -1.038   2.138   2.544  0.00  0.00    +0.000 C 
ATOM      2  O   UNL     1      -2.060   1.544   2.859  0.00  0.00    +0.000 OA
ENDROOT
BRANCH   1   9
ATOM      3  C   UNL     1      -1.951   5.474   1.262  0.00  0.00    +0.000 C 
ATOM      4  C   UNL     1      -0.687   5.132   2.062  0.00  0.00    +0.000 C 
ATOM      5  C   UNL     1       0.009   4.076   1.182  0.00  0.00    +0.000 C 
ATOM      6  C   UNL     1      -0.304   4.606  -0.220  0.00  0.00    +0.000 C 
ATOM      7  C   UNL     1      -1.814   4.591   0.012  0.00  0.00    +0.000 C 
ATOM      8  C   UNL     1      -2.065   3.125   0.413  0.00  0.00    +0.000 C 
ATOM      9  C   UNL     1      -0.781   2.745   1.179  0.00  0.00    +0.000 C 
ENDBRANCH   1   9
BRANCH   1  10
ATOM     10  O   UNL     1       0.062   2.271   3.338  0.00  0.00    +0.000 OA
BRANCH  10  11
ATOM     11  C   UNL     1      -0.051   1.696   4.647  0.00  0.00    +0.000 C 
ATOM     12  C   UNL     1       0.269   0.188   4.609  0.00  0.00    +0.000 C 
ATOM     13  C   UNL     1       1.525   0.079   5.493  0.00  0.00    +0.000 C 
ATOM     14  C   UNL     1       1.130   0.330   6.959  0.00  0.00    +0.000 C 
ATOM     15  C   UNL     1       0.836   1.837   6.985  0.00  0.00    +0.000 C 
ATOM     16  C   UNL     1       1.084   2.261   5.528  0.00  0.00    +0.000 C 
ATOM     17  C   UNL     1       2.267   1.368   5.144  0.00  0.00    +0.000 C 
ENDBRANCH  10  11
ENDBRANCH   1  10
TORSDOF 3
