MODEL 1
REMARK VINA RESULT:      -4.3      0.000      0.000
REMARK  Name = *****
REMARK  4 active torsions:
REMARK  status: ('A' for Active; 'I' for Inactive)
REMARK    1  A    between atoms: C_1  and  O_2
REMARK    2  A    between atoms: O_2  and  C_3
REMARK    3  A    between atoms: C_6  and  C_9
REMARK    4  A    between atoms: C_10  and  C_11
REMARK                            x       y       z     vdW  Elec       q    Type
REMARK                         _______ _______ _______ _____ _____    ______ ____
ROOT
ATOM      1  C   UNL     1      99.858 128.764  83.667  0.00  0.00    +0.000 A 
ATOM      2  C   UNL     1      99.261 127.669  83.045  0.00  0.00    +0.000 A 
ATOM      3  C   UNL     1     100.051 126.696  82.418  0.00  0.00    +0.000 A 
ATOM      4  C   UNL     1     101.447 126.809  82.395  0.00  0.00    +0.000 A 
ATOM      5  C   UNL     1     102.039 127.901  83.036  0.00  0.00    +0.000 A 
ATOM      6  C   UNL     1     101.250 128.872  83.661  0.00  0.00    +0.000 A 
ENDROOT
BRANCH   1   8
ATOM      7  C   UNL     1      99.605 131.104  83.988  0.00  0.00    +0.000 C 
ATOM      8  O   UNL     1      99.207 129.779  84.312  0.00  0.00    +0.000 OA
ENDBRANCH   1   8
BRANCH   4   9
ATOM      9  C   UNL     1     102.309 125.793  81.777  0.00  0.00    +0.000 C 
ATOM     10  C   UNL     1     103.152 126.034  80.760  0.00  0.00    +0.000 C 
BRANCH  10  11
ATOM     11  C   UNL     1     104.034 124.981  80.150  0.00  0.00    +0.000 C 
ATOM     12  C   UNL     1     104.348 123.835  81.110  0.00  0.00    +0.000 C 
ATOM     13  C   UNL     1     105.600 123.182  80.529  0.00  0.00    +0.000 C 
ATOM     14  C   UNL     1     106.250 124.230  79.625  0.00  0.00    +0.000 C 
ATOM     15  C   UNL     1     105.427 125.500  79.799  0.00  0.00    +0.000 C 
ENDBRANCH  10  11
ENDBRANCH   4   9
TORSDOF 3
ENDMDL
