MODEL 1
REMARK VINA RESULT:      -4.5      0.000      0.000
REMARK  Name = *****
REMARK  3 active torsions:
REMARK  status: ('A' for Active; 'I' for Inactive)
REMARK    1  A    between atoms: C_1  and  C_2
REMARK    2  A    between atoms: C_5  and  C_8
REMARK    3  A    between atoms: C_9  and  C_10
REMARK                            x       y       z     vdW  Elec       q    Type
REMARK                         _______ _______ _______ _____ _____    ______ ____
ROOT
ATOM      1  C   UNL     1     102.777 125.450  82.070  0.00  0.00    +0.000 C 
ATOM      2  C   UNL     1     101.907 126.228  82.352  0.00  0.00    +0.000 C 
ENDROOT
BRANCH   1   7
ATOM      3  C   UNL     1     106.959 121.738  80.789  0.00  0.00    +0.000 C 
ATOM      4  C   UNL     1     105.846 122.689  81.115  0.00  0.00    +0.000 A 
ATOM      5  C   UNL     1     105.324 123.537  80.130  0.00  0.00    +0.000 A 
ATOM      6  C   UNL     1     104.309 124.445  80.444  0.00  0.00    +0.000 A 
ATOM      7  C   UNL     1     103.815 124.520  81.747  0.00  0.00    +0.000 A 
ATOM      8  C   UNL     1     104.341 123.689  82.737  0.00  0.00    +0.000 A 
ATOM      9  C   UNL     1     105.356 122.782  82.424  0.00  0.00    +0.000 A 
ENDBRANCH   1   7
BRANCH   2  10
ATOM     10  C   UNL     1     100.873 127.153  82.689  0.00  0.00    +0.000 A 
ATOM     11  C   UNL     1     101.156 128.337  83.354  0.00  0.00    +0.000 A 
ATOM     12  C   UNL     1     100.100 129.193  83.651  0.00  0.00    +0.000 A 
ATOM     13  C   UNL     1      98.809 128.836  83.275  0.00  0.00    +0.000 A 
ATOM     14  C   UNL     1      98.627 127.631  82.614  0.00  0.00    +0.000 A 
ATOM     15  N   UNL     1      99.630 126.779  82.311  0.00  0.00    +0.000 NA
ENDBRANCH   2  10
TORSDOF 2
ENDMDL
