MODEL 1
REMARK VINA RESULT:      -4.6      0.000      0.000
REMARK  Name = *****
REMARK  4 active torsions:
REMARK  status: ('A' for Active; 'I' for Inactive)
REMARK    1  A    between atoms: C_1  and  C_2
REMARK    2  A    between atoms: C_5  and  O_8
REMARK    3  A    between atoms: O_8  and  C_9
REMARK    4  A    between atoms: C_9  and  C_11
REMARK                            x       y       z     vdW  Elec       q    Type
REMARK                         _______ _______ _______ _____ _____    ______ ____
ROOT
ATOM      1  O   UNL     1     101.588 126.650  83.170  0.00  0.00    +0.000 OA
ENDROOT
BRANCH   1   6
ATOM      2  C   UNL     1     105.488 124.907  79.331  0.00  0.00    +0.000 C 
ATOM      3  C   UNL     1     104.473 125.319  80.357  0.00  0.00    +0.000 C 
ATOM      4  C   UNL     1     104.233 124.585  81.458  0.00  0.00    +0.000 C 
ATOM      5  C   UNL     1     103.195 124.939  82.484  0.00  0.00    +0.000 C 
ATOM      6  C   UNL     1     102.228 126.044  82.029  0.00  0.00    +0.000 C 
ATOM      7  C   UNL     1     102.989 127.149  81.297  0.00  0.00    +0.000 C 
ATOM      8  C   UNL     1     103.735 126.605  80.079  0.00  0.00    +0.000 C 
ENDBRANCH   1   6
BRANCH   1   9
ATOM      9  C   UNL     1     100.409 127.272  82.929  0.00  0.00    +0.000 C 
ATOM     10  O   UNL     1      99.449 126.787  82.350  0.00  0.00    +0.000 OA
BRANCH   9  11
ATOM     11  C   UNL     1     100.426 128.656  83.475  0.00  0.00    +0.000 A 
ATOM     12  C   UNL     1     101.586 129.095  84.130  0.00  0.00    +0.000 A 
ATOM     13  C   UNL     1     101.651 130.387  84.657  0.00  0.00    +0.000 A 
ATOM     14  C   UNL     1     100.560 131.245  84.535  0.00  0.00    +0.000 A 
ATOM     15  C   UNL     1      99.403 130.817  83.886  0.00  0.00    +0.000 A 
ATOM     16  C   UNL     1      99.332 129.526  83.357  0.00  0.00    +0.000 A 
ENDBRANCH   9  11
ENDBRANCH   1   9
TORSDOF 3
ENDMDL
