MODEL 1
REMARK VINA RESULT:      -3.7      0.000      0.000
REMARK  Name = *****
REMARK  4 active torsions:
REMARK  status: ('A' for Active; 'I' for Inactive)
REMARK    1  A    between atoms: C_1  and  C_2
REMARK    2  A    between atoms: C_4  and  S_8
REMARK    3  A    between atoms: S_8  and  C_9
REMARK    4  A    between atoms: C_9  and  C_10
REMARK                            x       y       z     vdW  Elec       q    Type
REMARK                         _______ _______ _______ _____ _____    ______ ____
ROOT
ATOM      1  C   UNL     1     104.669 128.937  80.379  0.00  0.00    +0.000 C 
ATOM      2  C   UNL     1     104.048 127.692  80.944  0.00  0.00    +0.000 C 
ATOM      3  C   UNL     1     103.293 127.713  82.059  0.00  0.00    +0.000 C 
ATOM      4  C   UNL     1     102.675 126.493  82.691  0.00  0.00    +0.000 C 
ATOM      5  C   UNL     1     103.251 125.189  82.116  0.00  0.00    +0.000 C 
ATOM      6  C   UNL     1     103.420 125.250  80.600  0.00  0.00    +0.000 C 
ATOM      7  C   UNL     1     104.317 126.417  80.183  0.00  0.00    +0.000 C 
ENDROOT
BRANCH   4   8
ATOM      8  S   UNL     1     100.861 126.622  82.449  0.00  0.00    +0.000 S 
BRANCH   8   9
ATOM      9  C   UNL     1     100.383 127.192  84.111  0.00  0.00    +0.000 C 
BRANCH   9  10
ATOM     10  C   UNL     1     100.257 128.685  84.141  0.00  0.00    +0.000 A 
ATOM     11  C   UNL     1      99.280 129.474  83.565  0.00  0.00    +0.000 A 
ATOM     12  C   UNL     1      99.497 130.863  83.797  0.00  0.00    +0.000 A 
ATOM     13  C   UNL     1     100.634 131.090  84.539  0.00  0.00    +0.000 A 
ATOM     14  S   UNL     1     101.434 129.636  84.949  0.00  0.00    +0.000 S 
ENDBRANCH   9  10
ENDBRANCH   8   9
ENDBRANCH   4   8
TORSDOF 3
ENDMDL
