REMARK  Name = *****
REMARK  4 active torsions:
REMARK  status: ('A' for Active; 'I' for Inactive)
REMARK    1  A    between atoms: C_1  and  C_2
REMARK    2  A    between atoms: C_2  and  C_4
REMARK    3  A    between atoms: C_5  and  C_10
REMARK    4  A    between atoms: C_11  and  C_12
REMARK                            x       y       z     vdW  Elec       q    Type
REMARK                         _______ _______ _______ _____ _____    ______ ____
ROOT
ATOM      1  C   UNL     1       3.067   0.885  -1.038  0.00  0.00    +0.000 C 
ATOM      2  C   UNL     1       3.930   0.163  -1.791  0.00  0.00    +0.000 C 
ATOM      3  C   UNL     1       4.613   0.804  -2.989  0.00  0.00    +0.000 C 
ATOM      4  C   UNL     1       4.467   2.326  -3.074  0.00  0.00    +0.000 C 
ATOM      5  C   UNL     1       3.049   2.758  -2.738  0.00  0.00    +0.000 C 
ATOM      6  C   UNL     1       2.682   2.312  -1.326  0.00  0.00    +0.000 C 
ENDROOT
BRANCH   1   8
ATOM      7  C   UNL     1       2.674   0.897   1.493  0.00  0.00    +0.000 C 
ATOM      8  C   UNL     1       2.366   0.299   0.146  0.00  0.00    +0.000 C 
ATOM      9  O   UNL     1       1.540  -0.600   0.009  0.00  0.00    +0.000 OA
ENDBRANCH   1   8
BRANCH   2  10
ATOM     10  C   UNL     1       4.253  -1.237  -1.504  0.00  0.00    +0.000 C 
ATOM     11  C   UNL     1       5.034  -2.045  -2.241  0.00  0.00    +0.000 C 
BRANCH  11  12
ATOM     12  C   UNL     1       5.306  -3.450  -1.896  0.00  0.00    +0.000 A 
ATOM     13  C   UNL     1       4.312  -4.303  -1.399  0.00  0.00    +0.000 A 
ATOM     14  C   UNL     1       4.600  -5.639  -1.112  0.00  0.00    +0.000 A 
ATOM     15  C   UNL     1       5.882  -6.139  -1.330  0.00  0.00    +0.000 A 
ATOM     16  C   UNL     1       6.875  -5.306  -1.840  0.00  0.00    +0.000 A 
ATOM     17  C   UNL     1       6.587  -3.969  -2.127  0.00  0.00    +0.000 A 
ENDBRANCH  11  12
ENDBRANCH   2  10
TORSDOF 3
