MODEL 1
REMARK VINA RESULT:      -4.3      0.000      0.000
REMARK  Name = *****
REMARK  4 active torsions:
REMARK  status: ('A' for Active; 'I' for Inactive)
REMARK    1  A    between atoms: C_1  and  O_2
REMARK    2  A    between atoms: O_2  and  C_3
REMARK    3  A    between atoms: C_6  and  C_9
REMARK    4  A    between atoms: C_10  and  C_11
REMARK                            x       y       z     vdW  Elec       q    Type
REMARK                         _______ _______ _______ _____ _____    ______ ____
ROOT
ATOM      1  C   UNL     1      87.626  63.864  88.820  0.00  0.00    +0.000 A 
ATOM      2  C   UNL     1      87.188  63.973  90.139  0.00  0.00    +0.000 A 
ATOM      3  C   UNL     1      86.337  63.001  90.681  0.00  0.00    +0.000 A 
ATOM      4  C   UNL     1      85.902  61.915  89.913  0.00  0.00    +0.000 A 
ATOM      5  C   UNL     1      86.359  61.804  88.595  0.00  0.00    +0.000 A 
ATOM      6  C   UNL     1      87.209  62.774  88.054  0.00  0.00    +0.000 A 
ENDROOT
BRANCH   1   8
ATOM      7  C   UNL     1      88.931  64.337  86.892  0.00  0.00    +0.000 C 
ATOM      8  O   UNL     1      88.454  64.736  88.170  0.00  0.00    +0.000 OA
ENDBRANCH   1   8
BRANCH   4   9
ATOM      9  C   UNL     1      85.036  60.859  90.456  0.00  0.00    +0.000 C 
ATOM     10  C   UNL     1      85.473  59.655  90.866  0.00  0.00    +0.000 C 
BRANCH  10  11
ATOM     11  C   UNL     1      84.575  58.581  91.428  0.00  0.00    +0.000 C 
ATOM     12  C   UNL     1      83.159  58.767  90.947  0.00  0.00    +0.000 C 
ATOM     13  C   UNL     1      82.304  57.775  90.662  0.00  0.00    +0.000 C 
ATOM     14  C   UNL     1      82.654  56.386  90.816  0.00  0.00    +0.000 C 
ATOM     15  C   UNL     1      83.908  55.938  90.953  0.00  0.00    +0.000 C 
ATOM     16  S   UNL     1      85.295  56.968  90.949  0.00  0.00    +0.000 S 
ENDBRANCH  10  11
ENDBRANCH   4   9
TORSDOF 3
ENDMDL
