MODEL 1
REMARK VINA RESULT:      -4.7      0.000      0.000
REMARK  Name = *****
REMARK  3 active torsions:
REMARK  status: ('A' for Active; 'I' for Inactive)
REMARK    1  A    between atoms: C_4  and  C_7
REMARK    2  A    between atoms: C_8  and  C_9
REMARK    3  A    between atoms: C_12  and  C_15
REMARK                            x       y       z     vdW  Elec       q    Type
REMARK                         _______ _______ _______ _____ _____    ______ ____
ROOT
ATOM      1  C   UNL     1     102.044 126.106  82.396  0.00  0.00    +0.000 C 
ATOM      2  C   UNL     1     102.900 125.303  82.136  0.00  0.00    +0.000 C 
ENDROOT
BRANCH   1   6
ATOM      3  C   UNL     1      99.021 128.906  83.320  0.00  0.00    +0.000 A 
ATOM      4  C   UNL     1     100.348 129.179  83.652  0.00  0.00    +0.000 A 
ATOM      5  C   UNL     1     101.348 128.254  83.346  0.00  0.00    +0.000 A 
ATOM      6  C   UNL     1     101.021 127.055  82.708  0.00  0.00    +0.000 A 
ATOM      7  C   UNL     1      99.692 126.784  82.376  0.00  0.00    +0.000 A 
ATOM      8  C   UNL     1      98.692 127.710  82.682  0.00  0.00    +0.000 A 
ENDBRANCH   1   6
BRANCH   2   9
ATOM      9  C   UNL     1     103.914 124.344  81.827  0.00  0.00    +0.000 A 
ATOM     10  C   UNL     1     104.389 124.228  80.517  0.00  0.00    +0.000 A 
ATOM     11  C   UNL     1     105.377 123.290  80.212  0.00  0.00    +0.000 A 
ATOM     12  C   UNL     1     105.890 122.468  81.220  0.00  0.00    +0.000 A 
ATOM     13  C   UNL     1     105.420 122.581  82.533  0.00  0.00    +0.000 A 
ATOM     14  C   UNL     1     104.430 123.521  82.833  0.00  0.00    +0.000 A 
BRANCH  12  15
ATOM     15  C   UNL     1     106.935 121.472  80.908  0.00  0.00    +0.000 C 
ATOM     16  O   UNL     1     107.864 121.720  80.151  0.00  0.00    +0.000 OA
ENDBRANCH  12  15
ENDBRANCH   2   9
TORSDOF 3
ENDMDL
