MODEL 1
REMARK VINA RESULT:      -4.8      0.000      0.000
REMARK  Name = *****
REMARK  4 active torsions:
REMARK  status: ('A' for Active; 'I' for Inactive)
REMARK    1  A    between atoms: C_4  and  C_7
REMARK    2  A    between atoms: C_7  and  C_8
REMARK    3  A    between atoms: C_8  and  C_9
REMARK    4  A    between atoms: C_8  and  C_15
REMARK                            x       y       z     vdW  Elec       q    Type
REMARK                         _______ _______ _______ _____ _____    ______ ____
ROOT
ATOM      1  C   UNL     1     100.352 127.520  82.792  0.00  0.00    +0.000 C 
ENDROOT
BRANCH   1   2
ATOM      2  C   UNL     1     100.494 128.868  83.505  0.00  0.00    +0.000 A 
ATOM      3  C   UNL     1     101.678 129.278  84.139  0.00  0.00    +0.000 A 
ATOM      4  C   UNL     1     101.776 130.535  84.742  0.00  0.00    +0.000 A 
ATOM      5  C   UNL     1     100.699 131.415  84.710  0.00  0.00    +0.000 A 
ATOM      6  C   UNL     1      99.523 131.040  84.068  0.00  0.00    +0.000 A 
ATOM      7  C   UNL     1      99.425 129.784  83.466  0.00  0.00    +0.000 A 
ENDBRANCH   1   2
BRANCH   1   8
ATOM      8  C   UNL     1      98.993 126.831  83.005  0.00  0.00    +0.000 C 
ATOM      9  O   UNL     1      98.199 126.598  82.096  0.00  0.00    +0.000 OA
ATOM     10 CL   UNL     1      98.733 126.371  84.674  0.00  0.00    +0.000 Cl
ENDBRANCH   1   8
BRANCH   1  11
ATOM     11  C   UNL     1     101.495 126.489  82.965  0.00  0.00    +0.000 C 
BRANCH  11  15
ATOM     12  C   UNL     1     104.630 125.951  80.022  0.00  0.00    +0.000 A 
ATOM     13  C   UNL     1     104.115 127.226  80.237  0.00  0.00    +0.000 A 
ATOM     14  C   UNL     1     103.105 127.432  81.182  0.00  0.00    +0.000 A 
ATOM     15  C   UNL     1     102.597 126.365  81.933  0.00  0.00    +0.000 A 
ATOM     16  C   UNL     1     103.124 125.081  81.696  0.00  0.00    +0.000 A 
ATOM     17  C   UNL     1     104.132 124.876  80.752  0.00  0.00    +0.000 A 
ENDBRANCH  11  15
ENDBRANCH   1  11
TORSDOF 4
ENDMDL
