MODEL 1
REMARK VINA RESULT:      -4.2      0.000      0.000
REMARK  Name = *****
REMARK  5 active torsions:
REMARK  status: ('A' for Active; 'I' for Inactive)
REMARK    1  A    between atoms: C_4  and  C_7
REMARK    2  A    between atoms: C_7  and  C_8
REMARK    3  A    between atoms: C_8  and  C_9
REMARK    4  A    between atoms: C_9  and  C_10
REMARK    5  A    between atoms: C_9  and  C_12
REMARK                            x       y       z     vdW  Elec       q    Type
REMARK                         _______ _______ _______ _____ _____    ______ ____
ROOT
ATOM      1  C   UNL     1     101.403 126.575  83.583  0.00  0.00    +0.000 C 
ENDROOT
BRANCH   1   2
ATOM      2  C   UNL     1     101.921 126.823  82.158  0.00  0.00    +0.000 C 
BRANCH   2   6
ATOM      3  C   UNL     1     104.817 123.842  81.009  0.00  0.00    +0.000 A 
ATOM      4  C   UNL     1     104.323 123.868  82.312  0.00  0.00    +0.000 A 
ATOM      5  C   UNL     1     103.382 124.828  82.684  0.00  0.00    +0.000 A 
ATOM      6  C   UNL     1     102.923 125.769  81.754  0.00  0.00    +0.000 A 
ATOM      7  C   UNL     1     103.430 125.739  80.447  0.00  0.00    +0.000 A 
ATOM      8  C   UNL     1     104.371 124.777  80.076  0.00  0.00    +0.000 A 
ENDBRANCH   2   6
ENDBRANCH   1   2
BRANCH   1   9
ATOM      9  C   UNL     1     100.045 127.228  83.901  0.00  0.00    +0.000 C 
BRANCH   9  10
ATOM     10  C   UNL     1     100.152 128.730  84.066  0.00  0.00    +0.000 A 
ATOM     11  C   UNL     1      99.388 129.741  83.507  0.00  0.00    +0.000 A 
ATOM     12  C   UNL     1      99.821 131.039  83.905  0.00  0.00    +0.000 A 
ATOM     13  C   UNL     1     100.900 130.985  84.756  0.00  0.00    +0.000 A 
ATOM     14  S   UNL     1     101.386 129.380  85.074  0.00  0.00    +0.000 S 
ENDBRANCH   9  10
BRANCH   9  15
ATOM     15  C   UNL     1      99.023 126.861  82.899  0.00  0.00    +0.000 C 
ATOM     16  N   UNL     1      98.224 126.553  82.114  0.00  0.00    +0.000 NA
ENDBRANCH   9  15
ENDBRANCH   1   9
TORSDOF 5
ENDMDL
