MODEL 1
REMARK VINA RESULT:      -4.5      0.000      0.000
REMARK  Name = *****
REMARK  5 active torsions:
REMARK  status: ('A' for Active; 'I' for Inactive)
REMARK    1  A    between atoms: C_1  and  C_2
REMARK    2  A    between atoms: C_3  and  C_9
REMARK    3  A    between atoms: C_4  and  C_8
REMARK    4  A    between atoms: C_9  and  O_11
REMARK    5  A    between atoms: O_11  and  C_12
REMARK                            x       y       z     vdW  Elec       q    Type
REMARK                         _______ _______ _______ _____ _____    ______ ____
ROOT
ATOM      1  C   UNL     1      88.415  70.587  85.716  0.00  0.00    +0.000 C 
ATOM      2  O   UNL     1      89.498  71.145  85.692  0.00  0.00    +0.000 OA
ENDROOT
BRANCH   1   5
ATOM      3  C   UNL     1      88.296  70.300  88.663  0.00  0.00    +0.000 C 
ATOM      4  C   UNL     1      87.187  70.943  87.874  0.00  0.00    +0.000 A 
ATOM      5  C   UNL     1      87.242  71.085  86.470  0.00  0.00    +0.000 A 
ATOM      6  C   UNL     1      86.178  71.680  85.759  0.00  0.00    +0.000 A 
ATOM      7  C   UNL     1      85.065  72.144  86.473  0.00  0.00    +0.000 A 
ATOM      8  C   UNL     1      85.014  72.032  87.861  0.00  0.00    +0.000 A 
ATOM      9  C   UNL     1      86.068  71.441  88.557  0.00  0.00    +0.000 A 
ATOM     10  C   UNL     1      86.196  71.808  84.260  0.00  0.00    +0.000 C 
ENDBRANCH   1   5
BRANCH   1  11
ATOM     11  O   UNL     1      88.050  69.381  85.144  0.00  0.00    +0.000 OA
BRANCH  11  12
ATOM     12  C   UNL     1      88.484  68.210  85.781  0.00  0.00    +0.000 A 
ATOM     13  C   UNL     1      87.510  67.447  86.424  0.00  0.00    +0.000 A 
ATOM     14  C   UNL     1      87.870  66.241  87.026  0.00  0.00    +0.000 A 
ATOM     15  C   UNL     1      89.193  65.800  86.968  0.00  0.00    +0.000 A 
ATOM     16  C   UNL     1      90.159  66.560  86.304  0.00  0.00    +0.000 A 
ATOM     17  C   UNL     1      89.804  67.766  85.698  0.00  0.00    +0.000 A 
ENDBRANCH  11  12
ENDBRANCH   1  11
TORSDOF 3
ENDMDL
