MODEL 1
REMARK VINA RESULT:      -4.6      0.000      0.000
REMARK  Name = *****
REMARK  5 active torsions:
REMARK  status: ('A' for Active; 'I' for Inactive)
REMARK    1  A    between atoms: C_1  and  N_2
REMARK    2  A    between atoms: N_2  and  C_3
REMARK    3  A    between atoms: N_2  and  C_4
REMARK    4  A    between atoms: C_5  and  C_11
REMARK    5  A    between atoms: C_12  and  C_13
REMARK                            x       y       z     vdW  Elec       q    Type
REMARK                         _______ _______ _______ _____ _____    ______ ____
ROOT
ATOM      1  C   UNL     1     104.847 123.780  81.931  0.00  0.00    +0.000 A 
ATOM      2  C   UNL     1     104.244 124.780  81.127  0.00  0.00    +0.000 A 
ATOM      3  C   UNL     1     104.694 125.022  79.822  0.00  0.00    +0.000 A 
ATOM      4  C   UNL     1     105.747 124.278  79.301  0.00  0.00    +0.000 A 
ATOM      5  C   UNL     1     106.356 123.292  80.068  0.00  0.00    +0.000 A 
ATOM      6  C   UNL     1     105.910 123.046  81.370  0.00  0.00    +0.000 A 
ATOM      7 CL   UNL     1     106.299 124.579  77.699  0.00  0.00    +0.000 Cl
ENDROOT
BRANCH   1   9
ATOM      8  C   UNL     1     104.292 122.153  83.671  0.00  0.00    +0.000 C 
ATOM      9  N   UNL     1     104.402 123.549  83.251  0.00  0.00    +0.000 N 
ATOM     10  C   UNL     1     105.081 124.419  84.216  0.00  0.00    +0.000 C 
ENDBRANCH   1   9
BRANCH   2  11
ATOM     11  C   UNL     1     103.136 125.560  81.603  0.00  0.00    +0.000 C 
ATOM     12  C   UNL     1     102.215 126.216  82.011  0.00  0.00    +0.000 C 
BRANCH  12  13
ATOM     13  C   UNL     1     101.123 126.991  82.511  0.00  0.00    +0.000 A 
ATOM     14  C   UNL     1     101.367 128.155  83.244  0.00  0.00    +0.000 A 
ATOM     15  C   UNL     1     100.299 128.907  83.737  0.00  0.00    +0.000 A 
ATOM     16  C   UNL     1      98.987 128.496  83.497  0.00  0.00    +0.000 A 
ATOM     17  C   UNL     1      98.742 127.335  82.765  0.00  0.00    +0.000 A 
ATOM     18  C   UNL     1      99.809 126.583  82.270  0.00  0.00    +0.000 A 
ENDBRANCH  12  13
ENDBRANCH   2  11
TORSDOF 3
ENDMDL
