MODEL 1
REMARK VINA RESULT:      -4.2      0.000      0.000
REMARK  Name = *****
REMARK  4 active torsions:
REMARK  status: ('A' for Active; 'I' for Inactive)
REMARK    1  A    between atoms: C_1  and  C_2
REMARK    2  A    between atoms: C_5  and  C_8
REMARK    3  A    between atoms: C_9  and  C_10
REMARK    4  A    between atoms: C_13  and  C_15
REMARK                            x       y       z     vdW  Elec       q    Type
REMARK                         _______ _______ _______ _____ _____    ______ ____
ROOT
ATOM      1  C   UNL     1     102.433 126.474  82.063  0.00  0.00    +0.000 C 
ATOM      2  C   UNL     1     103.210 125.742  81.512  0.00  0.00    +0.000 C 
ENDROOT
BRANCH   1   7
ATOM      3  C   UNL     1      98.759 129.977  84.735  0.00  0.00    +0.000 C 
ATOM      4  C   UNL     1      99.716 129.076  84.012  0.00  0.00    +0.000 A 
ATOM      5  C   UNL     1      99.247 127.970  83.293  0.00  0.00    +0.000 A 
ATOM      6  C   UNL     1     100.141 127.113  82.647  0.00  0.00    +0.000 A 
ATOM      7  C   UNL     1     101.515 127.349  82.724  0.00  0.00    +0.000 A 
ATOM      8  C   UNL     1     101.992 128.440  83.452  0.00  0.00    +0.000 A 
ATOM      9  C   UNL     1     101.097 129.297  84.098  0.00  0.00    +0.000 A 
ENDBRANCH   1   7
BRANCH   2  10
ATOM     10  C   UNL     1     104.135 124.877  80.859  0.00  0.00    +0.000 A 
ATOM     11  C   UNL     1     104.424 123.590  81.248  0.00  0.00    +0.000 A 
ATOM     12  S   UNL     1     105.586 122.921  80.178  0.00  0.00    +0.000 S 
ATOM     13  C   UNL     1     105.604 124.400  79.295  0.00  0.00    +0.000 A 
ATOM     14  N   UNL     1     104.803 125.342  79.748  0.00  0.00    +0.000 NA
ATOM     15  C   UNL     1     106.483 124.544  78.104  0.00  0.00    +0.000 C 
ENDBRANCH   2  10
TORSDOF 2
ENDMDL
