REMARK  Name = *****
REMARK  4 active torsions:
REMARK  status: ('A' for Active; 'I' for Inactive)
REMARK    1  A    between atoms: C_7  and  C_8
REMARK    2  A    between atoms: C_8  and  O_10
REMARK    3  A    between atoms: O_10  and  C_11
REMARK    4  A    between atoms: C_11  and  C_12
REMARK                            x       y       z     vdW  Elec       q    Type
REMARK                         _______ _______ _______ _____ _____    ______ ____
ROOT
ATOM      1  C   UNL     1       5.706   1.877  -2.075  0.00  0.00    +0.000 C 
ATOM      2  C   UNL     1       4.561   2.000  -1.057  0.00  0.00    +0.000 C 
ATOM      3  C   UNL     1       5.179   1.175   0.057  0.00  0.00    +0.000 C 
ATOM      4  C   UNL     1       5.855   0.172  -0.523  0.00  0.00    +0.000 C 
ATOM      5  C   UNL     1       5.708   0.345  -2.018  0.00  0.00    +0.000 C 
ATOM      6  C   UNL     1       4.250   0.062  -2.442  0.00  0.00    +0.000 C 
ATOM      7  C   UNL     1       3.436   1.151  -1.711  0.00  0.00    +0.000 C 
ATOM      8  F   UNL     1       2.647   0.624  -0.726  0.00  0.00    +0.000 F 
ATOM      9  F   UNL     1       3.868  -1.194  -2.135  0.00  0.00    +0.000 F 
ATOM     10  F   UNL     1       4.160   0.176  -3.792  0.00  0.00    +0.000 F 
ENDROOT
BRANCH   7  11
ATOM     11  C   UNL     1       2.624   1.948  -2.706  0.00  0.00    +0.000 C 
ATOM     12  O   UNL     1       3.002   2.981  -3.246  0.00  0.00    +0.000 OA
BRANCH  11  13
ATOM     13  O   UNL     1       1.416   1.359  -2.914  0.00  0.00    +0.000 OA
BRANCH  13  14
ATOM     14  C   UNL     1       0.552   1.980  -3.873  0.00  0.00    +0.000 C 
BRANCH  14  15
ATOM     15  C   UNL     1       0.393   1.052  -5.048  0.00  0.00    +0.000 A 
ATOM     16  C   UNL     1      -0.609   0.072  -5.052  0.00  0.00    +0.000 A 
ATOM     17  C   UNL     1      -0.743  -0.799  -6.135  0.00  0.00    +0.000 A 
ATOM     18  C   UNL     1       0.128  -0.704  -7.218  0.00  0.00    +0.000 A 
ATOM     19  C   UNL     1       1.138   0.256  -7.217  0.00  0.00    +0.000 A 
ATOM     20  C   UNL     1       1.274   1.128  -6.135  0.00  0.00    +0.000 A 
ENDBRANCH  14  15
ENDBRANCH  13  14
ENDBRANCH  11  13
ENDBRANCH   7  11
TORSDOF 4
