MODEL 1
REMARK VINA RESULT:      -4.9      0.000      0.000
REMARK  Name = *****
REMARK  5 active torsions:
REMARK  status: ('A' for Active; 'I' for Inactive)
REMARK    1  A    between atoms: C_1  and  C_2
REMARK    2  A    between atoms: C_4  and  C_17
REMARK    3  A    between atoms: C_5  and  N_8
REMARK    4  A    between atoms: N_8  and  C_9
REMARK    5  A    between atoms: C_9  and  C_10
REMARK                            x       y       z     vdW  Elec       q    Type
REMARK                         _______ _______ _______ _____ _____    ______ ____
ROOT
ATOM      1  N   UNL     1      89.199  63.858  87.828  0.00  0.00    +0.000 N 
ATOM      2  H   UNL     1      90.041  63.768  88.328  0.00  0.00    +0.000 HD
ENDROOT
BRANCH   1   7
ATOM      3  C   UNL     1      84.403  61.743  90.176  0.00  0.00    +0.000 C 
ATOM      4  C   UNL     1      85.663  62.276  89.562  0.00  0.00    +0.000 A 
ATOM      5  C   UNL     1      86.650  62.869  90.354  0.00  0.00    +0.000 A 
ATOM      6  C   UNL     1      87.826  63.394  89.783  0.00  0.00    +0.000 A 
ATOM      7  C   UNL     1      88.003  63.380  88.381  0.00  0.00    +0.000 A 
ATOM      8  C   UNL     1      87.015  62.752  87.607  0.00  0.00    +0.000 A 
ATOM      9  C   UNL     1      85.854  62.226  88.183  0.00  0.00    +0.000 A 
ATOM     10  C   UNL     1      88.866  63.981  90.704  0.00  0.00    +0.000 C 
ENDBRANCH   1   7
BRANCH   1  11
ATOM     11  C   UNL     1      89.200  64.486  86.515  0.00  0.00    +0.000 C 
BRANCH  11  12
ATOM     12  C   UNL     1      89.056  65.983  86.682  0.00  0.00    +0.000 A 
ATOM     13  C   UNL     1      90.053  66.846  86.200  0.00  0.00    +0.000 A 
ATOM     14  C   UNL     1      89.934  68.228  86.358  0.00  0.00    +0.000 A 
ATOM     15  C   UNL     1      88.818  68.756  87.003  0.00  0.00    +0.000 A 
ATOM     16  C   UNL     1      87.822  67.913  87.493  0.00  0.00    +0.000 A 
ATOM     17  C   UNL     1      87.942  66.529  87.336  0.00  0.00    +0.000 A 
ATOM     18 CL   UNL     1      88.669  70.458  87.200  0.00  0.00    +0.000 Cl
ENDBRANCH  11  12
ENDBRANCH   1  11
TORSDOF 3
ENDMDL
