MODEL 1
REMARK VINA RESULT:      -4.7      0.000      0.000
REMARK  Name = *****
REMARK  6 active torsions:
REMARK  status: ('A' for Active; 'I' for Inactive)
REMARK    1  A    between atoms: C_1  and  C_2
REMARK    2  A    between atoms: C_4  and  C_10
REMARK    3  A    between atoms: C_5  and  O_8
REMARK    4  A    between atoms: O_8  and  C_9
REMARK    5  A    between atoms: C_10  and  C_11
REMARK    6  A    between atoms: C_11  and  C_12
REMARK                            x       y       z     vdW  Elec       q    Type
REMARK                         _______ _______ _______ _____ _____    ______ ____
ROOT
ATOM      1  C   UNL     1     102.026 130.605  84.837  0.00  0.00    +0.000 C 
ATOM      2  C   UNL     1     101.111 129.633  84.152  0.00  0.00    +0.000 A 
ATOM      3  C   UNL     1     101.623 128.449  83.597  0.00  0.00    +0.000 A 
ATOM      4  C   UNL     1     100.795 127.544  82.912  0.00  0.00    +0.000 A 
ATOM      5  C   UNL     1      99.424 127.841  82.835  0.00  0.00    +0.000 A 
ATOM      6  C   UNL     1      98.910 129.034  83.346  0.00  0.00    +0.000 A 
ATOM      7  C   UNL     1      99.753 129.930  84.002  0.00  0.00    +0.000 A 
ENDROOT
BRANCH   5   8
ATOM      8  O   UNL     1      98.582 126.978  82.179  0.00  0.00    +0.000 OA
ATOM      9  C   UNL     1      97.620 126.434  83.084  0.00  0.00    +0.000 C 
ENDBRANCH   5   8
BRANCH   4  10
ATOM     10  C   UNL     1     101.320 126.246  82.328  0.00  0.00    +0.000 C 
BRANCH  10  11
ATOM     11  C   UNL     1     102.514 125.613  83.055  0.00  0.00    +0.000 C 
BRANCH  11  12
ATOM     12  C   UNL     1     103.451 124.921  82.093  0.00  0.00    +0.000 A 
ATOM     13  C   UNL     1     104.151 123.774  82.486  0.00  0.00    +0.000 A 
ATOM     14  C   UNL     1     105.032 123.146  81.604  0.00  0.00    +0.000 A 
ATOM     15  C   UNL     1     105.223 123.661  80.324  0.00  0.00    +0.000 A 
ATOM     16  C   UNL     1     104.535 124.806  79.924  0.00  0.00    +0.000 A 
ATOM     17  C   UNL     1     103.655 125.435  80.806  0.00  0.00    +0.000 A 
ENDBRANCH  11  12
ENDBRANCH  10  11
ENDBRANCH   4  10
TORSDOF 4
ENDMDL
