REMARK  Name = *****
REMARK  4 active torsions:
REMARK  status: ('A' for Active; 'I' for Inactive)
REMARK    1  A    between atoms: C_5  and  N_8
REMARK    2  A    between atoms: C_5  and  O_10
REMARK    3  A    between atoms: O_10  and  C_11
REMARK    4  A    between atoms: C_11  and  C_13
REMARK                            x       y       z     vdW  Elec       q    Type
REMARK                         _______ _______ _______ _____ _____    ______ ____
ROOT
ATOM      1  C   UNL     1       1.744   0.119   0.001  0.00  0.00    +0.000 C 
ATOM      2  C   UNL     1       0.914   1.325   0.423  0.00  0.00    +0.000 C 
ATOM      3  C   UNL     1      -0.379   1.540  -0.357  0.00  0.00    +0.000 C 
ATOM      4  C   UNL     1      -1.548   0.735   0.218  0.00  0.00    +0.000 C 
ATOM      5  C   UNL     1      -1.577  -0.769  -0.146  0.00  0.00    +0.000 C 
ATOM      6  C   UNL     1      -0.264  -1.478   0.306  0.00  0.00    +0.000 C 
ATOM      7  C   UNL     1       0.992  -1.113  -0.489  0.00  0.00    +0.000 C 
ENDROOT
BRANCH   5   8
ATOM      8  N   UNL     1      -2.680  -1.410   0.692  0.00  0.00    +0.000 NA
ATOM      9  O   UNL     1      -3.176  -2.400   0.142  0.00  0.00    +0.000 OA
ENDBRANCH   5   8
BRANCH   5  10
ATOM     10  O   UNL     1      -1.639  -0.947  -1.589  0.00  0.00    +0.000 OA
BRANCH  10  11
ATOM     11  C   UNL     1      -2.751  -0.558  -2.251  0.00  0.00    +0.000 C 
ATOM     12  O   UNL     1      -3.730  -0.006  -1.777  0.00  0.00    +0.000 OA
BRANCH  11  13
ATOM     13  C   UNL     1      -2.640  -0.916  -3.690  0.00  0.00    +0.000 A 
ATOM     14  C   UNL     1      -1.416  -1.235  -4.292  0.00  0.00    +0.000 A 
ATOM     15  C   UNL     1      -1.366  -1.555  -5.651  0.00  0.00    +0.000 A 
ATOM     16  C   UNL     1      -2.535  -1.559  -6.412  0.00  0.00    +0.000 A 
ATOM     17  C   UNL     1      -3.756  -1.240  -5.819  0.00  0.00    +0.000 A 
ATOM     18  C   UNL     1      -3.809  -0.915  -4.463  0.00  0.00    +0.000 A 
ENDBRANCH  11  13
ENDBRANCH  10  11
ENDBRANCH   5  10
TORSDOF 4
