REMARK  Name = *****
REMARK  3 active torsions:
REMARK  status: ('A' for Active; 'I' for Inactive)
REMARK    1  A    between atoms: C_5  and  N_7
REMARK    2  A    between atoms: N_7  and  N_8
REMARK    3  A    between atoms: N_8  and  C_10
REMARK                            x       y       z     vdW  Elec       q    Type
REMARK                         _______ _______ _______ _____ _____    ______ ____
ROOT
ATOM      1  N   UNL     1       1.114  -2.078  -0.459  0.00  0.00    +0.000 N 
ATOM      2  H   UNL     1       0.578  -2.897  -0.563  0.00  0.00    +0.000 HD
ENDROOT
BRANCH   1   7
ATOM      3  C   UNL     1       0.094   1.458   0.249  0.00  0.00    +0.000 A 
ATOM      4  C   UNL     1      -1.291   1.315   0.319  0.00  0.00    +0.000 A 
ATOM      5  C   UNL     1      -1.862   0.061   0.133  0.00  0.00    +0.000 A 
ATOM      6  C   UNL     1      -1.039  -1.034  -0.120  0.00  0.00    +0.000 A 
ATOM      7  C   UNL     1       0.360  -0.921  -0.196  0.00  0.00    +0.000 A 
ATOM      8  C   UNL     1       0.911   0.348  -0.007  0.00  0.00    +0.000 A 
ATOM      9  F   UNL     1      -1.608  -2.238  -0.298  0.00  0.00    +0.000 F 
ENDBRANCH   1   7
BRANCH   1  10
ATOM     10  N   UNL     1       2.508  -2.274  -0.601  0.00  0.00    +0.000 N 
ATOM     11  O   UNL     1       3.280  -1.338  -0.501  0.00  0.00    +0.000 OA
BRANCH  10  12
ATOM     12  C   UNL     1       3.073  -3.585  -0.876  0.00  0.00    +0.000 A 
ATOM     13  C   UNL     1       4.458  -3.720  -1.057  0.00  0.00    +0.000 A 
ATOM     14  C   UNL     1       5.012  -4.975  -1.321  0.00  0.00    +0.000 A 
ATOM     15  C   UNL     1       4.191  -6.100  -1.407  0.00  0.00    +0.000 A 
ATOM     16  C   UNL     1       2.815  -5.969  -1.227  0.00  0.00    +0.000 A 
ATOM     17  C   UNL     1       2.264  -4.716  -0.964  0.00  0.00    +0.000 A 
ATOM     18  F   UNL     1       0.936  -4.633  -0.798  0.00  0.00    +0.000 F 
ENDBRANCH  10  12
ENDBRANCH   1  10
TORSDOF 3
