REMARK  Name = *****
REMARK  1 active torsions:
REMARK  status: ('A' for Active; 'I' for Inactive)
REMARK    1  A    between atoms: C_8  and  C_9
REMARK                            x       y       z     vdW  Elec       q    Type
REMARK                         _______ _______ _______ _____ _____    ______ ____
ROOT
ATOM      1  C   UNL     1      -0.589   1.756  -0.810  0.00  0.00    +0.000 C 
ATOM      2  C   UNL     1       0.032   0.832  -0.061  0.00  0.00    +0.000 C 
ATOM      3  C   UNL     1       1.233   1.151   0.797  0.00  0.00    +0.000 C 
ATOM      4  C   UNL     1       2.422   0.255   0.444  0.00  0.00    +0.000 C 
ATOM      5  C   UNL     1       2.031  -1.224   0.459  0.00  0.00    +0.000 C 
ATOM      6  C   UNL     1       0.815  -1.491  -0.433  0.00  0.00    +0.000 C 
ATOM      7  C   UNL     1      -0.345  -0.580  -0.077  0.00  0.00    +0.000 C 
ATOM      8  C   UNL     1      -1.558  -1.086   0.220  0.00  0.00    +0.000 C 
ENDROOT
BRANCH   8   9
ATOM      9  C   UNL     1      -2.719  -0.342   0.667  0.00  0.00    +0.000 C 
ATOM     10  C   UNL     1      -3.963  -0.821   0.865  0.00  0.00    +0.000 C 
ATOM     11  C   UNL     1      -4.431  -2.239   0.624  0.00  0.00    +0.000 C 
ATOM     12  C   UNL     1      -5.636  -2.263  -0.319  0.00  0.00    +0.000 C 
ATOM     13  C   UNL     1      -6.762  -1.353   0.170  0.00  0.00    +0.000 C 
ATOM     14  C   UNL     1      -6.264   0.071   0.415  0.00  0.00    +0.000 C 
ATOM     15  C   UNL     1      -5.063   0.094   1.360  0.00  0.00    +0.000 C 
ENDBRANCH   8   9
TORSDOF 1
