MODEL 1
REMARK VINA RESULT:      -4.4      0.000      0.000
REMARK  Name = *****
REMARK  4 active torsions:
REMARK  status: ('A' for Active; 'I' for Inactive)
REMARK    1  A    between atoms: C_1  and  C_2
REMARK    2  A    between atoms: C_2  and  N_3
REMARK    3  A    between atoms: N_3  and  C_4
REMARK    4  A    between atoms: C_10  and  C_12
REMARK                            x       y       z     vdW  Elec       q    Type
REMARK                         _______ _______ _______ _____ _____    ______ ____
ROOT
ATOM      1  N   UNL     1     103.296 126.139  81.800  0.00  0.00    +0.000 N 
ATOM      2  C   UNL     1     102.396 126.042  82.887  0.00  0.00    +0.000 C 
ATOM      3  O   UNL     1     102.429 125.239  83.817  0.00  0.00    +0.000 OA
ENDROOT
BRANCH   2   4
ATOM      4  C   UNL     1     101.253 126.973  82.945  0.00  0.00    +0.000 A 
ATOM      5  C   UNL     1     100.034 126.546  82.403  0.00  0.00    +0.000 A 
ATOM      6  C   UNL     1      98.918 127.382  82.470  0.00  0.00    +0.000 A 
ATOM      7  C   UNL     1      99.018 128.629  83.086  0.00  0.00    +0.000 A 
ATOM      8  C   UNL     1     100.232 129.044  83.644  0.00  0.00    +0.000 A 
ATOM      9  C   UNL     1     101.353 128.213  83.582  0.00  0.00    +0.000 A 
ATOM     10 CL   UNL     1     102.830 128.785  84.266  0.00  0.00    +0.000 Cl
ENDBRANCH   2   4
BRANCH   1  11
ATOM     11  C   UNL     1     104.329 125.139  81.580  0.00  0.00    +0.000 A 
ATOM     12  C   UNL     1     105.467 125.048  82.396  0.00  0.00    +0.000 A 
ATOM     13  C   UNL     1     106.457 124.077  82.188  0.00  0.00    +0.000 A 
ATOM     14  C   UNL     1     106.330 123.158  81.155  0.00  0.00    +0.000 A 
ATOM     15  C   UNL     1     105.211 123.210  80.336  0.00  0.00    +0.000 A 
ATOM     16  C   UNL     1     104.225 124.184  80.550  0.00  0.00    +0.000 A 
ENDBRANCH   1  11
BRANCH   1  18
ATOM     17  C   UNL     1     104.376 128.249  81.014  0.00  0.00    +0.000 C 
ATOM     18  C   UNL     1     103.216 127.274  80.858  0.00  0.00    +0.000 C 
ENDBRANCH   1  18
TORSDOF 3
ENDMDL
