MODEL 1
REMARK VINA RESULT:      -4.8      0.000      0.000
REMARK  Name = *****
REMARK  5 active torsions:
REMARK  status: ('A' for Active; 'I' for Inactive)
REMARK    1  A    between atoms: C_1  and  C_2
REMARK    2  A    between atoms: C_3  and  C_5
REMARK    3  A    between atoms: C_8  and  O_11
REMARK    4  A    between atoms: O_11  and  C_12
REMARK    5  A    between atoms: C_12  and  C_13
REMARK                            x       y       z     vdW  Elec       q    Type
REMARK                         _______ _______ _______ _____ _____    ______ ____
ROOT
ATOM      1  C   UNL     1      88.379  65.502  87.522  0.00  0.00    +0.000 A 
ATOM      2  C   UNL     1      87.356  66.384  87.910  0.00  0.00    +0.000 A 
ATOM      3  C   UNL     1      87.387  67.738  87.560  0.00  0.00    +0.000 A 
ATOM      4  C   UNL     1      88.449  68.259  86.824  0.00  0.00    +0.000 A 
ATOM      5  C   UNL     1      89.477  67.407  86.430  0.00  0.00    +0.000 A 
ATOM      6  C   UNL     1      89.441  66.050  86.781  0.00  0.00    +0.000 A 
ENDROOT
BRANCH   1   9
ATOM      7  C   UNL     1      86.754  62.105  88.537  0.00  0.00    +0.000 C 
ATOM      8  C   UNL     1      87.251  63.489  88.772  0.00  0.00    +0.000 C 
ATOM      9  C   UNL     1      88.374  64.045  87.929  0.00  0.00    +0.000 C 
ATOM     10  S   UNL     1      88.742  63.691  89.597  0.00  0.00    +0.000 S 
ENDBRANCH   1   9
BRANCH   4  11
ATOM     11  O   UNL     1      88.361  69.596  86.558  0.00  0.00    +0.000 OA
BRANCH  11  12
ATOM     12  C   UNL     1      88.023  70.455  87.648  0.00  0.00    +0.000 C 
BRANCH  12  13
ATOM     13  C   UNL     1      86.740  71.200  87.355  0.00  0.00    +0.000 A 
ATOM     14  C   UNL     1      86.345  71.487  86.039  0.00  0.00    +0.000 A 
ATOM     15  C   UNL     1      85.135  72.135  85.784  0.00  0.00    +0.000 A 
ATOM     16  C   UNL     1      84.297  72.491  86.838  0.00  0.00    +0.000 A 
ATOM     17  C   UNL     1      84.668  72.197  88.149  0.00  0.00    +0.000 A 
ATOM     18  C   UNL     1      85.880  71.552  88.406  0.00  0.00    +0.000 A 
ENDBRANCH  12  13
ENDBRANCH  11  12
ENDBRANCH   4  11
TORSDOF 4
ENDMDL
