MODEL 1
REMARK VINA RESULT:      -5.1      0.000      0.000
REMARK  Name = *****
REMARK  4 active torsions:
REMARK  status: ('A' for Active; 'I' for Inactive)
REMARK    1  A    between atoms: C_1  and  C_2
REMARK    2  A    between atoms: C_4  and  C_8
REMARK    3  A    between atoms: N_10  and  C_11
REMARK    4  A    between atoms: C_15  and  C_17
REMARK                            x       y       z     vdW  Elec       q    Type
REMARK                         _______ _______ _______ _____ _____    ______ ____
ROOT
ATOM      1  C   UNL     1     102.520 126.631  82.449  0.00  0.00    +0.000 C 
ATOM      2  O   UNL     1     103.352 126.651  83.347  0.00  0.00    +0.000 OA
ATOM      3  N   UNL     1     102.684 126.126  81.171  0.00  0.00    +0.000 N 
ATOM      4  H   UNL     1     101.931 126.255  80.550  0.00  0.00    +0.000 HD
ENDROOT
BRANCH   1   8
ATOM      5  C   UNL     1      99.663 130.418  84.166  0.00  0.00    +0.000 C 
ATOM      6  C   UNL     1      99.798 129.056  83.550  0.00  0.00    +0.000 A 
ATOM      7  C   UNL     1     101.066 128.504  83.316  0.00  0.00    +0.000 A 
ATOM      8  C   UNL     1     101.188 127.247  82.705  0.00  0.00    +0.000 A 
ATOM      9  C   UNL     1     100.043 126.559  82.292  0.00  0.00    +0.000 A 
ATOM     10  C   UNL     1      98.781 127.110  82.512  0.00  0.00    +0.000 A 
ATOM     11  C   UNL     1      98.660 128.352  83.137  0.00  0.00    +0.000 A 
ENDBRANCH   1   8
BRANCH   3  12
ATOM     12  C   UNL     1     103.809 125.448  80.656  0.00  0.00    +0.000 A 
ATOM     13  C   UNL     1     104.816 126.062  79.912  0.00  0.00    +0.000 A 
ATOM     14  C   UNL     1     105.907 125.321  79.450  0.00  0.00    +0.000 A 
ATOM     15  C   UNL     1     106.001 123.958  79.728  0.00  0.00    +0.000 A 
ATOM     16  C   UNL     1     104.999 123.322  80.464  0.00  0.00    +0.000 A 
ATOM     17  C   UNL     1     103.912 124.077  80.933  0.00  0.00    +0.000 A 
ATOM     18  C   UNL     1     105.097 121.861  80.791  0.00  0.00    +0.000 C 
ENDBRANCH   3  12
TORSDOF 2
ENDMDL
