MODEL 1
REMARK VINA RESULT:      -4.4      0.000      0.000
REMARK  Name = *****
REMARK  2 active torsions:
REMARK  status: ('A' for Active; 'I' for Inactive)
REMARK    1  A    between atoms: C_5  and  C_7
REMARK    2  A    between atoms: C_8  and  C_9
REMARK                            x       y       z     vdW  Elec       q    Type
REMARK                         _______ _______ _______ _____ _____    ______ ____
ROOT
ATOM      1  C   UNL     1      98.766 127.468  82.877  0.00  0.00    +0.000 A 
ATOM      2  C   UNL     1      99.066 128.624  83.595  0.00  0.00    +0.000 A 
ATOM      3  C   UNL     1     100.395 129.016  83.761  0.00  0.00    +0.000 A 
ATOM      4  C   UNL     1     101.427 128.250  83.210  0.00  0.00    +0.000 A 
ATOM      5  C   UNL     1     101.131 127.086  82.487  0.00  0.00    +0.000 A 
ATOM      6  C   UNL     1      99.795 126.701  82.324  0.00  0.00    +0.000 A 
ATOM      7 CL   UNL     1     103.053 128.790  83.453  0.00  0.00    +0.000 Cl
ENDROOT
BRANCH   5   8
ATOM      8  C   UNL     1     102.154 126.269  81.903  0.00  0.00    +0.000 C 
ATOM      9  C   UNL     1     103.010 125.586  81.411  0.00  0.00    +0.000 C 
BRANCH   9  10
ATOM     10  C   UNL     1     104.014 124.782  80.821  0.00  0.00    +0.000 A 
ATOM     11  C   UNL     1     104.448 123.510  81.103  0.00  0.00    +0.000 A 
ATOM     12  C   UNL     1     105.482 123.238  80.172  0.00  0.00    +0.000 A 
ATOM     13  C   UNL     1     105.601 124.367  79.391  0.00  0.00    +0.000 A 
ATOM     14  O   UNL     1     104.706 125.314  79.782  0.00  0.00    +0.000 OA
ENDBRANCH   9  10
ENDBRANCH   5   8
TORSDOF 2
ENDMDL
