MODEL 1
REMARK VINA RESULT:      -4.9      0.000      0.000
REMARK  Name = *****
REMARK  3 active torsions:
REMARK  status: ('A' for Active; 'I' for Inactive)
REMARK    1  A    between atoms: C_4  and  C_7
REMARK    2  A    between atoms: C_8  and  C_9
REMARK    3  A    between atoms: C_9  and  C_11
REMARK                            x       y       z     vdW  Elec       q    Type
REMARK                         _______ _______ _______ _____ _____    ______ ____
ROOT
ATOM      1  C   UNL     1     101.568 126.700  82.291  0.00  0.00    +0.000 C 
ATOM      2  C   UNL     1     100.290 126.385  82.539  0.00  0.00    +0.000 C 
ATOM      3  F   UNL     1     101.921 127.995  82.122  0.00  0.00    +0.000 F 
ENDROOT
BRANCH   1   7
ATOM      4  C   UNL     1     104.708 123.855  81.638  0.00  0.00    +0.000 A 
ATOM      5  C   UNL     1     104.184 124.594  80.580  0.00  0.00    +0.000 A 
ATOM      6  C   UNL     1     103.161 125.517  80.812  0.00  0.00    +0.000 A 
ATOM      7  C   UNL     1     102.640 125.707  82.100  0.00  0.00    +0.000 A 
ATOM      8  C   UNL     1     103.190 124.966  83.158  0.00  0.00    +0.000 A 
ATOM      9  C   UNL     1     104.215 124.043  82.926  0.00  0.00    +0.000 A 
ENDBRANCH   1   7
BRANCH   2  10
ATOM     10  C   UNL     1      99.255 127.435  82.710  0.00  0.00    +0.000 C 
ATOM     11  O   UNL     1      98.263 127.508  81.993  0.00  0.00    +0.000 OA
BRANCH  10  12
ATOM     12  C   UNL     1      99.498 128.474  83.749  0.00  0.00    +0.000 A 
ATOM     13  C   UNL     1      99.378 129.820  83.379  0.00  0.00    +0.000 A 
ATOM     14  C   UNL     1      99.593 130.830  84.319  0.00  0.00    +0.000 A 
ATOM     15  C   UNL     1      99.918 130.500  85.634  0.00  0.00    +0.000 A 
ATOM     16  C   UNL     1     100.020 129.161  86.014  0.00  0.00    +0.000 A 
ATOM     17  C   UNL     1      99.807 128.147  85.076  0.00  0.00    +0.000 A 
ENDBRANCH  10  12
ENDBRANCH   2  10
TORSDOF 3
ENDMDL
