MODEL 1
REMARK VINA RESULT:      -4.8      0.000      0.000
REMARK  Name = *****
REMARK  3 active torsions:
REMARK  status: ('A' for Active; 'I' for Inactive)
REMARK    1  A    between atoms: C_2  and  C_3
REMARK    2  A    between atoms: C_5  and  C_10
REMARK    3  A    between atoms: C_11  and  C_12
REMARK                            x       y       z     vdW  Elec       q    Type
REMARK                         _______ _______ _______ _____ _____    ______ ____
ROOT
ATOM      1  C   UNL     1     100.598 126.456  83.870  0.00  0.00    +0.000 C 
ATOM      2  C   UNL     1     101.262 127.860  83.766  0.00  0.00    +0.000 C 
ATOM      3  C   UNL     1     101.108 127.015  82.584  0.00  0.00    +0.000 C 
ATOM      4  C   UNL     1      99.692 126.663  82.622  0.00  0.00    +0.000 C 
ATOM      5  C   UNL     1      98.736 127.817  82.460  0.00  0.00    +0.000 C 
ATOM      6  C   UNL     1      98.997 128.948  83.458  0.00  0.00    +0.000 C 
ATOM      7  C   UNL     1     100.488 129.153  83.738  0.00  0.00    +0.000 C 
ENDROOT
BRANCH   1   9
ATOM      8  C   UNL     1      99.119 126.351  86.030  0.00  0.00    +0.000 C 
ATOM      9  C   UNL     1      99.784 126.412  85.032  0.00  0.00    +0.000 C 
ENDBRANCH   1   9
BRANCH   3  10
ATOM     10  C   UNL     1     102.137 126.283  81.940  0.00  0.00    +0.000 C 
ATOM     11  C   UNL     1     103.012 125.661  81.402  0.00  0.00    +0.000 C 
BRANCH  11  12
ATOM     12  C   UNL     1     104.055 124.918  80.764  0.00  0.00    +0.000 A 
ATOM     13  C   UNL     1     104.327 123.607  81.163  0.00  0.00    +0.000 A 
ATOM     14  C   UNL     1     105.346 122.883  80.542  0.00  0.00    +0.000 A 
ATOM     15  C   UNL     1     106.095 123.469  79.522  0.00  0.00    +0.000 A 
ATOM     16  C   UNL     1     105.826 124.778  79.122  0.00  0.00    +0.000 A 
ATOM     17  C   UNL     1     104.807 125.503  79.742  0.00  0.00    +0.000 A 
ENDBRANCH  11  12
ENDBRANCH   3  10
TORSDOF 3
ENDMDL
