MODEL 1
REMARK VINA RESULT:      -4.2      0.000      0.000
REMARK  Name = *****
REMARK  5 active torsions:
REMARK  status: ('A' for Active; 'I' for Inactive)
REMARK    1  A    between atoms: C_1  and  O_2
REMARK    2  A    between atoms: O_2  and  C_3
REMARK    3  A    between atoms: C_6  and  C_9
REMARK    4  A    between atoms: C_9  and  S_10
REMARK    5  A    between atoms: S_10  and  C_11
REMARK                            x       y       z     vdW  Elec       q    Type
REMARK                         _______ _______ _______ _____ _____    ______ ____
ROOT
ATOM      1  C   UNL     1     104.484 124.492  80.565  0.00  0.00    +0.000 A 
ATOM      2  C   UNL     1     103.677 125.589  80.259  0.00  0.00    +0.000 A 
ATOM      3  C   UNL     1     102.830 126.132  81.233  0.00  0.00    +0.000 A 
ATOM      4  C   UNL     1     102.780 125.590  82.524  0.00  0.00    +0.000 A 
ATOM      5  C   UNL     1     103.586 124.483  82.821  0.00  0.00    +0.000 A 
ATOM      6  C   UNL     1     104.431 123.945  81.848  0.00  0.00    +0.000 A 
ENDROOT
BRANCH   1   8
ATOM      7  C   UNL     1     106.007 124.687  78.751  0.00  0.00    +0.000 C 
ATOM      8  O   UNL     1     105.353 123.869  79.712  0.00  0.00    +0.000 OA
ENDBRANCH   1   8
BRANCH   4   9
ATOM      9  C   UNL     1     101.857 126.170  83.566  0.00  0.00    +0.000 C 
BRANCH   9  10
ATOM     10  S   UNL     1     100.350 126.862  82.811  0.00  0.00    +0.000 S 
BRANCH  10  11
ATOM     11  C   UNL     1     100.433 128.516  83.470  0.00  0.00    +0.000 A 
ATOM     12  C   UNL     1     101.631 128.976  84.025  0.00  0.00    +0.000 A 
ATOM     13  C   UNL     1     101.716 130.271  84.542  0.00  0.00    +0.000 A 
ATOM     14  C   UNL     1     100.606 131.113  84.499  0.00  0.00    +0.000 A 
ATOM     15  C   UNL     1      99.413 130.664  83.936  0.00  0.00    +0.000 A 
ATOM     16  C   UNL     1      99.327 129.370  83.419  0.00  0.00    +0.000 A 
ENDBRANCH  10  11
ENDBRANCH   9  10
ENDBRANCH   4   9
TORSDOF 4
ENDMDL
