MODEL 1
REMARK VINA RESULT:      -4.6      0.000      0.000
REMARK  Name = *****
REMARK  1 active torsions:
REMARK  status: ('A' for Active; 'I' for Inactive)
REMARK    1  A    between atoms: C_8  and  C_11
REMARK                            x       y       z     vdW  Elec       q    Type
REMARK                         _______ _______ _______ _____ _____    ______ ____
ROOT
ATOM      1  C   UNL     1     106.569 122.966  81.520  0.00  0.00    +0.000 C 
ATOM      2  C   UNL     1     106.611 123.895  82.729  0.00  0.00    +0.000 C 
ATOM      3  C   UNL     1     105.774 125.156  82.503  0.00  0.00    +0.000 C 
ATOM      4  C   UNL     1     104.329 124.839  82.075  0.00  0.00    +0.000 C 
ATOM      5  C   UNL     1     104.285 123.850  80.895  0.00  0.00    +0.000 C 
ATOM      6  C   UNL     1     105.138 122.604  81.139  0.00  0.00    +0.000 C 
ATOM      7  C   UNL     1     103.486 126.065  81.858  0.00  0.00    +0.000 C 
ATOM      8  C   UNL     1     102.529 126.003  82.789  0.00  0.00    +0.000 C 
ATOM      9  N   UNL     1     102.640 124.894  83.589  0.00  0.00    +0.000 NA
ATOM     10  N   UNL     1     103.632 124.199  83.240  0.00  0.00    +0.000 NA
ATOM     11  I   UNL     1     103.798 127.459  80.438  0.00  0.00    +0.000 I 
ENDROOT
BRANCH   8  12
ATOM     12  C   UNL     1     101.446 126.961  83.002  0.00  0.00    +0.000 A 
ATOM     13  C   UNL     1     100.164 126.702  82.501  0.00  0.00    +0.000 A 
ATOM     14  C   UNL     1      99.133 127.623  82.693  0.00  0.00    +0.000 A 
ATOM     15  C   UNL     1      99.376 128.807  83.389  0.00  0.00    +0.000 A 
ATOM     16  C   UNL     1     100.649 129.071  83.893  0.00  0.00    +0.000 A 
ATOM     17  C   UNL     1     101.682 128.152  83.701  0.00  0.00    +0.000 A 
ENDBRANCH   8  12
TORSDOF 1
ENDMDL
