MODEL 1
REMARK VINA RESULT:      -5.2      0.000      0.000
REMARK  Name = *****
REMARK  5 active torsions:
REMARK  status: ('A' for Active; 'I' for Inactive)
REMARK    1  A    between atoms: C_1  and  C_2
REMARK    2  A    between atoms: C_5  and  C_8
REMARK    3  A    between atoms: C_8  and  C_9
REMARK    4  A    between atoms: C_8  and  C_10
REMARK    5  A    between atoms: C_10  and  C_12
REMARK                            x       y       z     vdW  Elec       q    Type
REMARK                         _______ _______ _______ _____ _____    ______ ____
ROOT
ATOM      1  C   UNL     1      87.792  70.756  85.536  0.00  0.00    +0.000 C 
ATOM      2  C   UNL     1      88.494  71.705  84.558  0.00  0.00    +0.000 C 
ENDROOT
BRANCH   1   7
ATOM      3  C   UNL     1      83.143  72.962  88.327  0.00  0.00    +0.000 C 
ATOM      4  C   UNL     1      84.326  72.367  87.623  0.00  0.00    +0.000 A 
ATOM      5  C   UNL     1      85.391  71.829  88.350  0.00  0.00    +0.000 A 
ATOM      6  C   UNL     1      86.510  71.305  87.694  0.00  0.00    +0.000 A 
ATOM      7  C   UNL     1      86.590  71.304  86.295  0.00  0.00    +0.000 A 
ATOM      8  C   UNL     1      85.532  71.884  85.575  0.00  0.00    +0.000 A 
ATOM      9  C   UNL     1      84.413  72.406  86.229  0.00  0.00    +0.000 A 
ENDBRANCH   1   7
BRANCH   1  10
ATOM     10  C   UNL     1      88.827  70.068  86.433  0.00  0.00    +0.000 C 
ATOM     11  O   UNL     1      89.696  70.738  87.000  0.00  0.00    +0.000 OA
BRANCH  10  12
ATOM     12  C   UNL     1      88.812  68.589  86.674  0.00  0.00    +0.000 A 
ATOM     13  C   UNL     1      87.753  67.916  87.296  0.00  0.00    +0.000 A 
ATOM     14  C   UNL     1      87.808  66.529  87.483  0.00  0.00    +0.000 A 
ATOM     15  C   UNL     1      88.918  65.809  87.047  0.00  0.00    +0.000 A 
ATOM     16  C   UNL     1      89.974  66.462  86.420  0.00  0.00    +0.000 A 
ATOM     17  C   UNL     1      89.919  67.846  86.233  0.00  0.00    +0.000 A 
ATOM     18 CL   UNL     1      88.979  64.106  87.280  0.00  0.00    +0.000 Cl
ENDBRANCH  10  12
ENDBRANCH   1  10
TORSDOF 3
ENDMDL
