REMARK  Name = *****
REMARK  3 active torsions:
REMARK  status: ('A' for Active; 'I' for Inactive)
REMARK    1  A    between atoms: C_2  and  N_3
REMARK    2  A    between atoms: C_6  and  C_8
REMARK    3  A    between atoms: C_9  and  C_10
REMARK                            x       y       z     vdW  Elec       q    Type
REMARK                         _______ _______ _______ _____ _____    ______ ____
ROOT
ATOM      1  C   UNL     1       5.702  -3.341  -1.281  0.00  0.00    +0.000 C 
ATOM      2  C   UNL     1       6.364  -3.663  -0.157  0.00  0.00    +0.000 C 
ENDROOT
BRANCH   2   3
ATOM      3  C   UNL     1       7.360  -4.741  -0.073  0.00  0.00    +0.000 A 
ATOM      4  C   UNL     1       8.317  -4.952  -1.074  0.00  0.00    +0.000 A 
ATOM      5  C   UNL     1       9.268  -5.967  -0.945  0.00  0.00    +0.000 A 
ATOM      6  C   UNL     1       9.278  -6.774   0.191  0.00  0.00    +0.000 A 
ATOM      7  C   UNL     1       8.341  -6.563   1.201  0.00  0.00    +0.000 A 
ATOM      8  C   UNL     1       7.391  -5.548   1.072  0.00  0.00    +0.000 A 
ENDBRANCH   2   3
BRANCH   1  12
ATOM      9  N   UNL     1       3.186  -0.965  -2.362  0.00  0.00    +0.000 N 
ATOM     10  C   UNL     1       3.313  -0.597  -1.036  0.00  0.00    +0.000 A 
ATOM     11  C   UNL     1       4.251  -1.403  -0.426  0.00  0.00    +0.000 A 
ATOM     12  C   UNL     1       4.727  -2.306  -1.402  0.00  0.00    +0.000 A 
ATOM     13  C   UNL     1       4.061  -2.017  -2.573  0.00  0.00    +0.000 A 
BRANCH   9  15
ATOM     14  C   UNL     1       1.491   0.603  -3.184  0.00  0.00    +0.000 C 
ATOM     15  C   UNL     1       2.352  -0.412  -3.337  0.00  0.00    +0.000 C 
ENDBRANCH   9  15
ENDBRANCH   1  12
TORSDOF 3
