REMARK  Name = *****
REMARK  4 active torsions:
REMARK  status: ('A' for Active; 'I' for Inactive)
REMARK    1  A    between atoms: C_1  and  N_2
REMARK    2  A    between atoms: N_2  and  C_3
REMARK    3  A    between atoms: N_2  and  C_10
REMARK    4  A    between atoms: C_3  and  C_4
REMARK                            x       y       z     vdW  Elec       q    Type
REMARK                         _______ _______ _______ _____ _____    ______ ____
ROOT
ATOM      1  C   UNL     1       1.987  -0.225  -1.339  0.00  0.00    +0.000 C 
ATOM      2  N   UNL     1       2.294   0.006   0.070  0.00  0.00    +0.000 N 
ENDROOT
BRANCH   2   3
ATOM      3  C   UNL     1       2.183   1.287   0.610  0.00  0.00    +0.000 A 
ATOM      4  C   UNL     1       2.504   1.569   1.950  0.00  0.00    +0.000 A 
ATOM      5  C   UNL     1       2.385   2.854   2.499  0.00  0.00    +0.000 A 
ATOM      6  C   UNL     1       1.932   3.907   1.717  0.00  0.00    +0.000 A 
ATOM      7  C   UNL     1       1.596   3.669   0.392  0.00  0.00    +0.000 A 
ATOM      8  C   UNL     1       1.718   2.379  -0.145  0.00  0.00    +0.000 A 
ENDBRANCH   2   3
BRANCH   2   9
ATOM      9  C   UNL     1       3.031  -1.061   0.762  0.00  0.00    +0.000 C 
BRANCH   9  10
ATOM     10  C   UNL     1       2.115  -1.873   1.701  0.00  0.00    +0.000 C 
ATOM     11  C   UNL     1       2.969  -2.797   2.585  0.00  0.00    +0.000 C 
ATOM     12  C   UNL     1       2.111  -3.659   3.508  0.00  0.00    +0.000 C 
ATOM     13  C   UNL     1       1.078  -4.462   2.726  0.00  0.00    +0.000 C 
ATOM     14  C   UNL     1       0.219  -3.558   1.848  0.00  0.00    +0.000 C 
ATOM     15  C   UNL     1       1.071  -2.692   0.922  0.00  0.00    +0.000 C 
ENDBRANCH   9  10
ENDBRANCH   2   9
TORSDOF 3
