REMARK  Name = *****
REMARK  4 active torsions:
REMARK  status: ('A' for Active; 'I' for Inactive)
REMARK    1  A    between atoms: C_4  and  C_7
REMARK    2  A    between atoms: C_7  and  C_8
REMARK    3  A    between atoms: C_7  and  C_16
REMARK    4  A    between atoms: C_8  and  C_9
REMARK                            x       y       z     vdW  Elec       q    Type
REMARK                         _______ _______ _______ _____ _____    ______ ____
ROOT
ATOM      1  C   UNL     1      -2.911   0.389  -0.280  0.00  0.00    +0.000 C 
ENDROOT
BRANCH   1   5
ATOM      2  C   UNL     1       1.032  -1.175   0.607  0.00  0.00    +0.000 A 
ATOM      3  C   UNL     1       0.495  -0.143   1.373  0.00  0.00    +0.000 A 
ATOM      4  C   UNL     1      -0.778   0.352   1.085  0.00  0.00    +0.000 A 
ATOM      5  C   UNL     1      -1.533  -0.181   0.028  0.00  0.00    +0.000 A 
ATOM      6  C   UNL     1      -0.977  -1.221  -0.737  0.00  0.00    +0.000 A 
ATOM      7  C   UNL     1       0.297  -1.713  -0.447  0.00  0.00    +0.000 A 
ENDBRANCH   1   5
BRANCH   1   8
ATOM      8  C   UNL     1      -3.944  -0.669  -0.356  0.00  0.00    +0.000 C 
ATOM      9  N   UNL     1      -4.772  -1.480  -0.430  0.00  0.00    +0.000 NA
ENDBRANCH   1   8
BRANCH   1  10
ATOM     10  C   UNL     1      -2.939   1.228  -1.579  0.00  0.00    +0.000 C 
BRANCH  10  11
ATOM     11  C   UNL     1      -2.121   2.503  -1.502  0.00  0.00    +0.000 A 
ATOM     12  C   UNL     1      -2.616   3.559  -0.711  0.00  0.00    +0.000 A 
ATOM     13  C   UNL     1      -1.908   4.754  -0.575  0.00  0.00    +0.000 A 
ATOM     14  C   UNL     1      -0.693   4.919  -1.230  0.00  0.00    +0.000 A 
ATOM     15  C   UNL     1      -0.189   3.891  -2.024  0.00  0.00    +0.000 A 
ATOM     16  C   UNL     1      -0.895   2.690  -2.164  0.00  0.00    +0.000 A 
ATOM     17 BR   UNL     1      -0.114   1.373  -3.288  0.00  0.00    +0.000 Br
ENDBRANCH  10  11
ENDBRANCH   1  10
TORSDOF 4
