REMARK  Name = *****
REMARK  3 active torsions:
REMARK  status: ('A' for Active; 'I' for Inactive)
REMARK    1  A    between atoms: C_6  and  C_7
REMARK    2  A    between atoms: C_7  and  C_8
REMARK    3  A    between atoms: C_8  and  C_10
REMARK                            x       y       z     vdW  Elec       q    Type
REMARK                         _______ _______ _______ _____ _____    ______ ____
ROOT
ATOM      1  C   UNL     1      -4.030   1.506   0.051  0.00  0.00    +0.000 C 
ATOM      2  O   UNL     1      -4.228   2.117   1.103  0.00  0.00    +0.000 OA
ENDROOT
BRANCH   1   3
ATOM      3  C   UNL     1      -4.412   2.151  -1.244  0.00  0.00    +0.000 A 
ATOM      4  C   UNL     1      -4.052   1.626  -2.493  0.00  0.00    +0.000 A 
ATOM      5  C   UNL     1      -4.454   2.269  -3.668  0.00  0.00    +0.000 A 
ATOM      6  C   UNL     1      -5.208   3.435  -3.595  0.00  0.00    +0.000 A 
ATOM      7  C   UNL     1      -5.566   3.976  -2.368  0.00  0.00    +0.000 A 
ATOM      8  C   UNL     1      -5.167   3.335  -1.193  0.00  0.00    +0.000 A 
ATOM      9  F   UNL     1      -5.591   4.044  -4.724  0.00  0.00    +0.000 F 
ENDBRANCH   1   3
BRANCH   1  10
ATOM     10  C   UNL     1      -3.416   0.118   0.061  0.00  0.00    +0.000 C 
BRANCH  10  16
ATOM     11  C   UNL     1      -1.208  -0.548  -0.984  0.00  0.00    +0.000 A 
ATOM     12  C   UNL     1       0.189  -0.552  -0.996  0.00  0.00    +0.000 A 
ATOM     13  C   UNL     1       0.887   0.107   0.008  0.00  0.00    +0.000 A 
ATOM     14  C   UNL     1       0.215   0.771   1.027  0.00  0.00    +0.000 A 
ATOM     15  C   UNL     1      -1.180   0.779   1.039  0.00  0.00    +0.000 A 
ATOM     16  C   UNL     1      -1.907   0.126   0.029  0.00  0.00    +0.000 A 
ATOM     17  F   UNL     1       2.226   0.096  -0.004  0.00  0.00    +0.000 F 
ENDBRANCH  10  16
ENDBRANCH   1  10
TORSDOF 3
