REMARK  Name = *****
REMARK  6 active torsions:
REMARK  status: ('A' for Active; 'I' for Inactive)
REMARK    1  A    between atoms: C_1  and  C_2
REMARK    2  A    between atoms: C_4  and  C_18
REMARK    3  A    between atoms: C_6  and  S_8
REMARK    4  A    between atoms: S_8  and  N_9
REMARK    5  A    between atoms: S_8  and  C_17
REMARK    6  A    between atoms: N_9  and  C_10
REMARK                            x       y       z     vdW  Elec       q    Type
REMARK                         _______ _______ _______ _____ _____    ______ ____
ROOT
ATOM      1  S   UNL     1      -0.170  -3.598  -0.037  0.00  0.00    +0.000 S 
ATOM      2  O   UNL     1      -0.795  -4.058  -1.265  0.00  0.00    +0.000 OA
ATOM      3  C   UNL     1       1.493  -4.223  -0.082  0.00  0.00    +0.000 C 
ENDROOT
BRANCH   1   9
ATOM      4  C   UNL     1      -2.229   1.187   0.597  0.00  0.00    +0.000 C 
ATOM      5  C   UNL     1      -1.077   0.348   0.128  0.00  0.00    +0.000 A 
ATOM      6  C   UNL     1       0.034   0.942  -0.486  0.00  0.00    +0.000 A 
ATOM      7  C   UNL     1       1.100   0.165  -0.961  0.00  0.00    +0.000 A 
ATOM      8  C   UNL     1       1.039  -1.229  -0.843  0.00  0.00    +0.000 A 
ATOM      9  C   UNL     1      -0.067  -1.826  -0.232  0.00  0.00    +0.000 A 
ATOM     10  C   UNL     1      -1.129  -1.045   0.237  0.00  0.00    +0.000 A 
ATOM     11  C   UNL     1       2.258   0.818  -1.659  0.00  0.00    +0.000 C 
ENDBRANCH   1   9
BRANCH   1  12
ATOM     12  N   UNL     1      -0.733  -3.895   1.366  0.00  0.00    +0.000 NA
BRANCH  12  13
ATOM     13  C   UNL     1      -0.266  -3.494   2.652  0.00  0.00    +0.000 A 
ATOM     14  C   UNL     1       0.772  -2.596   2.902  0.00  0.00    +0.000 A 
ATOM     15  C   UNL     1       1.137  -2.278   4.216  0.00  0.00    +0.000 A 
ATOM     16  C   UNL     1       0.463  -2.855   5.291  0.00  0.00    +0.000 A 
ATOM     17  C   UNL     1      -0.577  -3.748   5.053  0.00  0.00    +0.000 A 
ATOM     18  C   UNL     1      -0.938  -4.060   3.740  0.00  0.00    +0.000 A 
ENDBRANCH  12  13
ENDBRANCH   1  12
TORSDOF 3
