REMARK  Name = *****
REMARK  4 active torsions:
REMARK  status: ('A' for Active; 'I' for Inactive)
REMARK    1  A    between atoms: C_1  and  C_2
REMARK    2  A    between atoms: C_4  and  O_8
REMARK    3  A    between atoms: O_8  and  C_9
REMARK    4  A    between atoms: C_10  and  C_11
REMARK                            x       y       z     vdW  Elec       q    Type
REMARK                         _______ _______ _______ _____ _____    ______ ____
ROOT
ATOM      1  O   UNL     1      -1.638   2.445  -0.511  0.00  0.00    +0.000 OA
ENDROOT
BRANCH   1   5
ATOM      2  C   UNL     1       2.199  -0.587  -1.188  0.00  0.00    +0.000 C 
ATOM      3  C   UNL     1       0.904  -0.232  -0.520  0.00  0.00    +0.000 A 
ATOM      4  C   UNL     1       0.257   0.973  -0.823  0.00  0.00    +0.000 A 
ATOM      5  C   UNL     1      -0.962   1.286  -0.216  0.00  0.00    +0.000 A 
ATOM      6  C   UNL     1      -1.569   0.386   0.657  0.00  0.00    +0.000 A 
ATOM      7  C   UNL     1      -0.938  -0.822   0.951  0.00  0.00    +0.000 A 
ATOM      8  C   UNL     1       0.292  -1.130   0.365  0.00  0.00    +0.000 A 
ENDBRANCH   1   5
BRANCH   1   9
ATOM      9  C   UNL     1      -0.971   3.628  -0.279  0.00  0.00    +0.000 C 
ATOM     10  C   UNL     1      -1.453   4.800  -0.708  0.00  0.00    +0.000 C 
BRANCH  10  11
ATOM     11  C   UNL     1      -0.807   6.100  -0.485  0.00  0.00    +0.000 A 
ATOM     12  C   UNL     1       0.586   6.250  -0.437  0.00  0.00    +0.000 A 
ATOM     13  C   UNL     1       1.161   7.511  -0.255  0.00  0.00    +0.000 A 
ATOM     14  C   UNL     1       0.350   8.637  -0.129  0.00  0.00    +0.000 A 
ATOM     15  C   UNL     1      -1.035   8.504  -0.191  0.00  0.00    +0.000 A 
ATOM     16  C   UNL     1      -1.610   7.243  -0.373  0.00  0.00    +0.000 A 
ENDBRANCH  10  11
ENDBRANCH   1   9
TORSDOF 3
