REMARK  Name = *****
REMARK  4 active torsions:
REMARK  status: ('A' for Active; 'I' for Inactive)
REMARK    1  A    between atoms: C_1  and  C_2
REMARK    2  A    between atoms: C_6  and  C_7
REMARK    3  A    between atoms: C_7  and  S_9
REMARK    4  A    between atoms: S_9  and  C_10
REMARK                            x       y       z     vdW  Elec       q    Type
REMARK                         _______ _______ _______ _____ _____    ______ ____
ROOT
ATOM      1  C   UNL     1       1.442   0.788   2.350  0.00  0.00    +0.000 C 
ATOM      2  O   UNL     1       0.420   0.193   2.026  0.00  0.00    +0.000 OA
ENDROOT
BRANCH   1   8
ATOM      3  C   UNL     1       3.256  -1.492   0.262  0.00  0.00    +0.000 C 
ATOM      4  C   UNL     1       2.675  -0.081   0.256  0.00  0.00    +0.000 C 
ATOM      5  C   UNL     1       3.473   0.890  -0.654  0.00  0.00    +0.000 C 
ATOM      6  C   UNL     1       4.550   1.420   0.298  0.00  0.00    +0.000 C 
ATOM      7  C   UNL     1       3.534   1.927   1.328  0.00  0.00    +0.000 C 
ATOM      8  C   UNL     1       2.788   0.608   1.666  0.00  0.00    +0.000 C 
ATOM      9  C   UNL     1       2.685   2.774   0.407  0.00  0.00    +0.000 C 
ATOM     10  C   UNL     1       2.649   2.152  -0.781  0.00  0.00    +0.000 C 
ENDBRANCH   1   8
BRANCH   1  11
ATOM     11  S   UNL     1       1.449   1.810   3.793  0.00  0.00    +0.000 S 
BRANCH  11  12
ATOM     12  C   UNL     1       2.045   0.645   5.004  0.00  0.00    +0.000 A 
ATOM     13  C   UNL     1       1.422  -0.593   5.195  0.00  0.00    +0.000 A 
ATOM     14  C   UNL     1       1.907  -1.486   6.152  0.00  0.00    +0.000 A 
ATOM     15  C   UNL     1       3.011  -1.143   6.931  0.00  0.00    +0.000 A 
ATOM     16  C   UNL     1       3.628   0.094   6.756  0.00  0.00    +0.000 A 
ATOM     17  C   UNL     1       3.145   0.987   5.797  0.00  0.00    +0.000 A 
ENDBRANCH  11  12
ENDBRANCH   1  11
TORSDOF 3
