MODEL 1
REMARK VINA RESULT:      -4.6      0.000      0.000
REMARK  Name = *****
REMARK  3 active torsions:
REMARK  status: ('A' for Active; 'I' for Inactive)
REMARK    1  A    between atoms: C_4  and  C_7
REMARK    2  A    between atoms: C_8  and  C_9
REMARK    3  A    between atoms: C_9  and  C_11
REMARK                            x       y       z     vdW  Elec       q    Type
REMARK                         _______ _______ _______ _____ _____    ______ ____
ROOT
ATOM      1  C   UNL     1     101.315 126.406  83.124  0.00  0.00    +0.000 C 
ATOM      2  C   UNL     1     100.007 126.471  83.423  0.00  0.00    +0.000 C 
ENDROOT
BRANCH   1   6
ATOM      3  C   UNL     1     104.761 128.427  81.409  0.00  0.00    +0.000 C 
ATOM      4  C   UNL     1     103.788 127.726  80.466  0.00  0.00    +0.000 C 
ATOM      5  C   UNL     1     102.892 126.739  81.211  0.00  0.00    +0.000 C 
ATOM      6  C   UNL     1     102.146 127.418  82.369  0.00  0.00    +0.000 C 
ATOM      7  C   UNL     1     103.138 128.111  83.318  0.00  0.00    +0.000 C 
ATOM      8  C   UNL     1     104.035 129.096  82.572  0.00  0.00    +0.000 C 
ENDBRANCH   1   6
BRANCH   2   9
ATOM      9  C   UNL     1      99.075 127.552  82.985  0.00  0.00    +0.000 C 
ATOM     10  O   UNL     1      98.331 127.424  82.020  0.00  0.00    +0.000 OA
BRANCH   9  11
ATOM     11  C   UNL     1      99.008 128.783  83.819  0.00  0.00    +0.000 A 
ATOM     12  C   UNL     1      99.507 130.016  83.378  0.00  0.00    +0.000 A 
ATOM     13  C   UNL     1      99.411 131.143  84.198  0.00  0.00    +0.000 A 
ATOM     14  C   UNL     1      98.811 131.047  85.454  0.00  0.00    +0.000 A 
ATOM     15  C   UNL     1      98.298 129.827  85.891  0.00  0.00    +0.000 A 
ATOM     16  C   UNL     1      98.391 128.699  85.074  0.00  0.00    +0.000 A 
ENDBRANCH   9  11
ENDBRANCH   2   9
TORSDOF 3
ENDMDL
