MODEL 1
REMARK VINA RESULT:      -4.8      0.000      0.000
REMARK  Name = *****
REMARK  3 active torsions:
REMARK  status: ('A' for Active; 'I' for Inactive)
REMARK    1  A    between atoms: C_1  and  C_2
REMARK    2  A    between atoms: C_5  and  C_9
REMARK    3  A    between atoms: C_10  and  C_11
REMARK                            x       y       z     vdW  Elec       q    Type
REMARK                         _______ _______ _______ _____ _____    ______ ____
ROOT
ATOM      1  C   UNL     1     105.129 122.682  80.380  0.00  0.00    +0.000 C 
ATOM      2  C   UNL     1     104.456 123.913  80.893  0.00  0.00    +0.000 A 
ATOM      3  C   UNL     1     104.302 125.042  80.194  0.00  0.00    +0.000 A 
ATOM      4  C   UNL     1     103.632 126.163  80.795  0.00  0.00    +0.000 A 
ATOM      5  C   UNL     1     103.155 126.107  82.049  0.00  0.00    +0.000 A 
ATOM      6  C   UNL     1     103.329 124.850  82.830  0.00  0.00    +0.000 A 
ATOM      7  O   UNL     1     102.915 124.740  83.981  0.00  0.00    +0.000 OA
ATOM      8  O   UNL     1     103.972 123.807  82.215  0.00  0.00    +0.000 OA
ATOM      9 CL   UNL     1     103.486 127.575  79.797  0.00  0.00    +0.000 Cl
ENDROOT
BRANCH   5  10
ATOM     10  C   UNL     1     102.484 127.208  82.664  0.00  0.00    +0.000 C 
ATOM     11  C   UNL     1     101.925 128.138  83.179  0.00  0.00    +0.000 C 
BRANCH  11  12
ATOM     12  C   UNL     1     101.265 129.248  83.793  0.00  0.00    +0.000 A 
ATOM     13  C   UNL     1     101.994 130.153  84.568  0.00  0.00    +0.000 A 
ATOM     14  C   UNL     1     101.349 131.235  85.169  0.00  0.00    +0.000 A 
ATOM     15  C   UNL     1      99.975 131.413  84.997  0.00  0.00    +0.000 A 
ATOM     16  C   UNL     1      99.246 130.510  84.223  0.00  0.00    +0.000 A 
ATOM     17  C   UNL     1      99.890 129.427  83.621  0.00  0.00    +0.000 A 
ENDBRANCH  11  12
ENDBRANCH   5  10
TORSDOF 2
ENDMDL
