MODEL 1
REMARK VINA RESULT:      -4.3      0.000      0.000
REMARK  Name = *****
REMARK  3 active torsions:
REMARK  status: ('A' for Active; 'I' for Inactive)
REMARK    1  A    between atoms: C_1  and  C_2
REMARK    2  A    between atoms: C_5  and  C_7
REMARK    3  A    between atoms: C_8  and  C_9
REMARK                            x       y       z     vdW  Elec       q    Type
REMARK                         _______ _______ _______ _____ _____    ______ ____
ROOT
ATOM      1  C   UNL     1     102.043 126.091  82.446  0.00  0.00    +0.000 C 
ATOM      2  C   UNL     1     102.900 125.292  82.179  0.00  0.00    +0.000 C 
ENDROOT
BRANCH   2   3
ATOM      3  C   UNL     1     103.918 124.344  81.851  0.00  0.00    +0.000 A 
ATOM      4  C   UNL     1     104.398 124.256  80.541  0.00  0.00    +0.000 A 
ATOM      5  C   UNL     1     105.393 123.328  80.221  0.00  0.00    +0.000 A 
ATOM      6  C   UNL     1     105.903 122.491  81.213  0.00  0.00    +0.000 A 
ATOM      7  C   UNL     1     105.428 122.574  82.521  0.00  0.00    +0.000 A 
ATOM      8  C   UNL     1     104.433 123.501  82.841  0.00  0.00    +0.000 A 
ATOM      9 CL   UNL     1     107.127 121.348  80.819  0.00  0.00    +0.000 Cl
ENDBRANCH   2   3
BRANCH   1  14
ATOM     10  C   UNL     1      99.251 130.272  84.083  0.00  0.00    +0.000 C 
ATOM     11  C   UNL     1      99.682 128.969  83.501  0.00  0.00    +0.000 A 
ATOM     12  C   UNL     1      98.910 128.001  82.893  0.00  0.00    +0.000 A 
ATOM     13  C   UNL     1      99.688 126.885  82.461  0.00  0.00    +0.000 A 
ATOM     14  C   UNL     1     101.025 127.039  82.754  0.00  0.00    +0.000 A 
ATOM     15  S   UNL     1     101.334 128.521  83.543  0.00  0.00    +0.000 S 
ENDBRANCH   1  14
TORSDOF 2
ENDMDL
