MODEL 1
REMARK VINA RESULT:      -4.3      0.000      0.000
REMARK  Name = *****
REMARK  3 active torsions:
REMARK  status: ('A' for Active; 'I' for Inactive)
REMARK    1  A    between atoms: C_5  and  O_7
REMARK    2  A    between atoms: O_7  and  C_8
REMARK    3  A    between atoms: C_8  and  C_10
REMARK                            x       y       z     vdW  Elec       q    Type
REMARK                         _______ _______ _______ _____ _____    ______ ____
ROOT
ATOM      1  C   UNL     1     102.716 125.350  82.564  0.00  0.00    +0.000 C 
ATOM      2  O   UNL     1     102.790 124.898  83.695  0.00  0.00    +0.000 OA
ENDROOT
BRANCH   1   3
ATOM      3  C   UNL     1     103.717 125.066  81.501  0.00  0.00    +0.000 A 
ATOM      4  C   UNL     1     104.152 126.131  80.699  0.00  0.00    +0.000 A 
ATOM      5  C   UNL     1     105.096 125.913  79.690  0.00  0.00    +0.000 A 
ATOM      6  C   UNL     1     105.610 124.633  79.488  0.00  0.00    +0.000 A 
ATOM      7  C   UNL     1     105.189 123.568  80.284  0.00  0.00    +0.000 A 
ATOM      8  C   UNL     1     104.242 123.783  81.291  0.00  0.00    +0.000 A 
ATOM      9 CL   UNL     1     106.773 124.366  78.250  0.00  0.00    +0.000 Cl
ENDBRANCH   1   3
BRANCH   1  10
ATOM     10  O   UNL     1     101.759 126.182  82.092  0.00  0.00    +0.000 OA
BRANCH  10  15
ATOM     11  C   UNL     1      98.545 127.752  83.236  0.00  0.00    +0.000 C 
ATOM     12  C   UNL     1      99.159 129.147  83.375  0.00  0.00    +0.000 C 
ATOM     13  C   UNL     1     100.630 129.116  83.669  0.00  0.00    +0.000 C 
ATOM     14  C   UNL     1     101.379 128.009  83.543  0.00  0.00    +0.000 C 
ATOM     15  C   UNL     1     100.835 126.687  83.070  0.00  0.00    +0.000 C 
ATOM     16  C   UNL     1      99.449 126.829  82.424  0.00  0.00    +0.000 C 
ENDBRANCH  10  15
ENDBRANCH   1  10
TORSDOF 3
ENDMDL
