MODEL 1
REMARK VINA RESULT:      -4.5      0.000      0.000
REMARK  Name = *****
REMARK  3 active torsions:
REMARK  status: ('A' for Active; 'I' for Inactive)
REMARK    1  A    between atoms: C_3  and  O_9
REMARK    2  A    between atoms: O_9  and  C_10
REMARK    3  A    between atoms: C_10  and  C_11
REMARK                            x       y       z     vdW  Elec       q    Type
REMARK                         _______ _______ _______ _____ _____    ______ ____
ROOT
ATOM      1  C   UNL     1     100.886 129.061  83.717  0.00  0.00    +0.000 A 
ATOM      2  C   UNL     1     101.464 127.902  83.195  0.00  0.00    +0.000 A 
ATOM      3  C   UNL     1     100.668 126.916  82.600  0.00  0.00    +0.000 A 
ATOM      4  C   UNL     1      99.283 127.108  82.551  0.00  0.00    +0.000 A 
ATOM      5  C   UNL     1      98.699 128.260  83.070  0.00  0.00    +0.000 A 
ATOM      6  C   UNL     1      99.508 129.229  83.647  0.00  0.00    +0.000 A 
ATOM      7  F   UNL     1      98.953 130.342  84.145  0.00  0.00    +0.000 F 
ATOM      8  F   UNL     1      98.472 126.190  82.008  0.00  0.00    +0.000 F 
ENDROOT
BRANCH   3   9
ATOM      9  O   UNL     1     101.369 125.841  82.127  0.00  0.00    +0.000 OA
BRANCH   9  10
ATOM     10  C   UNL     1     102.656 125.592  82.702  0.00  0.00    +0.000 C 
BRANCH  10  11
ATOM     11  C   UNL     1     103.634 125.195  81.649  0.00  0.00    +0.000 A 
ATOM     12  C   UNL     1     104.026 125.928  80.548  0.00  0.00    +0.000 A 
ATOM     13  S   UNL     1     105.151 125.019  79.659  0.00  0.00    +0.000 S 
ATOM     14  N   UNL     1     105.072 123.724  80.722  0.00  0.00    +0.000 NA
ATOM     15  N   UNL     1     104.238 123.939  81.729  0.00  0.00    +0.000 NA
ATOM     16 CL   UNL     1     103.541 127.485  80.038  0.00  0.00    +0.000 Cl
ENDBRANCH  10  11
ENDBRANCH   9  10
ENDBRANCH   3   9
TORSDOF 3
ENDMDL
