MODEL 1
REMARK VINA RESULT:      -4.7      0.000      0.000
REMARK  Name = *****
REMARK  5 active torsions:
REMARK  status: ('A' for Active; 'I' for Inactive)
REMARK    1  A    between atoms: C_1  and  O_2
REMARK    2  A    between atoms: O_2  and  C_3
REMARK    3  A    between atoms: C_6  and  C_9
REMARK    4  A    between atoms: C_9  and  C_10
REMARK    5  A    between atoms: C_10  and  C_12
REMARK                            x       y       z     vdW  Elec       q    Type
REMARK                         _______ _______ _______ _____ _____    ______ ____
ROOT
ATOM      1  C   UNL     1      88.338  70.740  85.320  0.00  0.00    +0.000 C 
ATOM      2  F   UNL     1      87.281  71.546  85.667  0.00  0.00    +0.000 F 
ATOM      3  F   UNL     1      87.763  69.754  84.554  0.00  0.00    +0.000 F 
ENDROOT
BRANCH   1   7
ATOM      4  C   UNL     1      91.267  72.963  83.013  0.00  0.00    +0.000 A 
ATOM      5  C   UNL     1      91.571  71.691  83.496  0.00  0.00    +0.000 A 
ATOM      6  C   UNL     1      90.625  70.973  84.238  0.00  0.00    +0.000 A 
ATOM      7  C   UNL     1      89.360  71.517  84.506  0.00  0.00    +0.000 A 
ATOM      8  C   UNL     1      89.061  72.798  84.018  0.00  0.00    +0.000 A 
ATOM      9  C   UNL     1      90.009  73.509  83.277  0.00  0.00    +0.000 A 
BRANCH   4  11
ATOM     10  C   UNL     1      93.145  74.419  82.980  0.00  0.00    +0.000 C 
ATOM     11  O   UNL     1      92.095  73.765  82.278  0.00  0.00    +0.000 OA
ENDBRANCH   4  11
ENDBRANCH   1   7
BRANCH   1  12
ATOM     12  C   UNL     1      88.952  70.115  86.589  0.00  0.00    +0.000 C 
ATOM     13  O   UNL     1      89.459  70.770  87.503  0.00  0.00    +0.000 OA
BRANCH  12  14
ATOM     14  C   UNL     1      88.944  68.621  86.722  0.00  0.00    +0.000 A 
ATOM     15  C   UNL     1      87.903  67.913  87.340  0.00  0.00    +0.000 A 
ATOM     16  C   UNL     1      87.955  66.518  87.431  0.00  0.00    +0.000 A 
ATOM     17  C   UNL     1      89.042  65.831  86.905  0.00  0.00    +0.000 A 
ATOM     18  C   UNL     1      90.083  66.512  86.289  0.00  0.00    +0.000 A 
ATOM     19  C   UNL     1      90.036  67.905  86.197  0.00  0.00    +0.000 A 
ATOM     20  F   UNL     1      89.085  64.496  86.994  0.00  0.00    +0.000 F 
ENDBRANCH  12  14
ENDBRANCH   1  12
TORSDOF 4
ENDMDL
