REMARK  Name = *****
REMARK  3 active torsions:
REMARK  status: ('A' for Active; 'I' for Inactive)
REMARK    1  A    between atoms: C_4  and  C_7
REMARK    2  A    between atoms: C_7  and  C_8
REMARK    3  A    between atoms: C_8  and  C_9
REMARK                            x       y       z     vdW  Elec       q    Type
REMARK                         _______ _______ _______ _____ _____    ______ ____
ROOT
ATOM      1  C   UNL     1      -3.620  -0.840  -0.485  0.00  0.00    +0.000 C 
ATOM      2  F   UNL     1      -3.301  -1.626  -1.560  0.00  0.00    +0.000 F 
ENDROOT
BRANCH   1   3
ATOM      3  C   UNL     1      -5.102  -0.522  -0.457  0.00  0.00    +0.000 A 
ATOM      4  C   UNL     1      -5.840  -0.481  -1.652  0.00  0.00    +0.000 A 
ATOM      5  C   UNL     1      -7.200  -0.171  -1.632  0.00  0.00    +0.000 A 
ATOM      6  C   UNL     1      -7.823   0.099  -0.421  0.00  0.00    +0.000 A 
ATOM      7  C   UNL     1      -7.112   0.065   0.773  0.00  0.00    +0.000 A 
ATOM      8  C   UNL     1      -5.751  -0.243   0.757  0.00  0.00    +0.000 A 
ATOM      9  F   UNL     1      -9.129   0.397  -0.402  0.00  0.00    +0.000 F 
ENDBRANCH   1   3
BRANCH   1  10
ATOM     10  C   UNL     1      -2.784   0.446  -0.563  0.00  0.00    +0.000 C 
BRANCH  10  14
ATOM     11  C   UNL     1       1.393  -0.225   0.299  0.00  0.00    +0.000 A 
ATOM     12  C   UNL     1       0.838  -0.710  -0.883  0.00  0.00    +0.000 A 
ATOM     13  C   UNL     1      -0.512  -0.492  -1.162  0.00  0.00    +0.000 A 
ATOM     14  C   UNL     1      -1.321   0.212  -0.260  0.00  0.00    +0.000 A 
ATOM     15  C   UNL     1      -0.752   0.696   0.926  0.00  0.00    +0.000 A 
ATOM     16  C   UNL     1       0.599   0.478   1.203  0.00  0.00    +0.000 A 
ENDBRANCH  10  14
ENDBRANCH   1  10
TORSDOF 3
