REMARK  Name = *****
REMARK  4 active torsions:
REMARK  status: ('A' for Active; 'I' for Inactive)
REMARK    1  A    between atoms: C_1  and  C_2
REMARK    2  A    between atoms: C_7  and  S_8
REMARK    3  A    between atoms: S_8  and  N_10
REMARK    4  A    between atoms: N_10  and  C_11
REMARK                            x       y       z     vdW  Elec       q    Type
REMARK                         _______ _______ _______ _____ _____    ______ ____
ROOT
ATOM      1  S   UNL     1       1.112  -2.937  -0.125  0.00  0.00    +0.000 S 
ATOM      2  O   UNL     1       1.121  -3.212  -1.597  0.00  0.00    +0.000 OA
ENDROOT
BRANCH   1   9
ATOM      3  C   UNL     1      -0.613  -1.122  -2.238  0.00  0.00    +0.000 C 
ATOM      4  C   UNL     1      -0.274  -0.538  -0.893  0.00  0.00    +0.000 A 
ATOM      5  C   UNL     1      -0.729   0.767  -0.617  0.00  0.00    +0.000 A 
ATOM      6  C   UNL     1      -0.475   1.379   0.610  0.00  0.00    +0.000 A 
ATOM      7  C   UNL     1       0.237   0.696   1.586  0.00  0.00    +0.000 A 
ATOM      8  C   UNL     1       0.703  -0.593   1.328  0.00  0.00    +0.000 A 
ATOM      9  C   UNL     1       0.479  -1.223   0.086  0.00  0.00    +0.000 A 
ENDBRANCH   1   9
BRANCH   1  10
ATOM     10  N   UNL     1       2.678  -2.533   0.316  0.00  0.00    +0.000 N 
ATOM     11  H   UNL     1       3.140  -1.809  -0.166  0.00  0.00    +0.000 HD
BRANCH  10  12
ATOM     12  C   UNL     1       3.356  -3.206   1.363  0.00  0.00    +0.000 A 
ATOM     13  C   UNL     1       2.704  -3.838   2.431  0.00  0.00    +0.000 A 
ATOM     14  C   UNL     1       3.430  -4.414   3.479  0.00  0.00    +0.000 A 
ATOM     15  C   UNL     1       4.819  -4.341   3.492  0.00  0.00    +0.000 A 
ATOM     16  C   UNL     1       5.484  -3.681   2.463  0.00  0.00    +0.000 A 
ATOM     17  C   UNL     1       4.756  -3.108   1.416  0.00  0.00    +0.000 A 
ENDBRANCH  10  12
ENDBRANCH   1  10
TORSDOF 3
