REMARK  Name = *****
REMARK  2 active torsions:
REMARK  status: ('A' for Active; 'I' for Inactive)
REMARK    1  A    between atoms: C_5  and  C_7
REMARK    2  A    between atoms: C_8  and  C_10
REMARK                            x       y       z     vdW  Elec       q    Type
REMARK                         _______ _______ _______ _____ _____    ______ ____
ROOT
ATOM      1  C   UNL     1       0.043  -2.642   0.280  0.00  0.00    +0.000 C 
ATOM      2  C   UNL     1      -1.031  -3.428  -0.462  0.00  0.00    +0.000 C 
ATOM      3  O   UNL     1      -1.205  -2.992   0.896  0.00  0.00    +0.000 OA
ENDROOT
BRANCH   1   8
ATOM      4  C   UNL     1      -0.002   1.179   0.556  0.00  0.00    +0.000 A 
ATOM      5  C   UNL     1       0.692   1.569  -0.584  0.00  0.00    +0.000 A 
ATOM      6  C   UNL     1       1.184   0.601  -1.456  0.00  0.00    +0.000 A 
ATOM      7  C   UNL     1       0.977  -0.757  -1.187  0.00  0.00    +0.000 A 
ATOM      8  C   UNL     1       0.273  -1.183  -0.045  0.00  0.00    +0.000 A 
ATOM      9  C   UNL     1      -0.205  -0.179   0.820  0.00  0.00    +0.000 A 
ATOM     10 CL   UNL     1       1.626  -1.903  -2.307  0.00  0.00    +0.000 Cl
ENDBRANCH   1   8
BRANCH   2  11
ATOM     11  C   UNL     1      -0.900  -4.918  -0.688  0.00  0.00    +0.000 A 
ATOM     12  C   UNL     1       0.300  -5.469  -1.179  0.00  0.00    +0.000 A 
ATOM     13  C   UNL     1       0.445  -6.842  -1.404  0.00  0.00    +0.000 A 
ATOM     14  C   UNL     1      -0.616  -7.704  -1.150  0.00  0.00    +0.000 A 
ATOM     15  C   UNL     1      -1.821  -7.192  -0.678  0.00  0.00    +0.000 A 
ATOM     16  C   UNL     1      -1.961  -5.816  -0.455  0.00  0.00    +0.000 A 
ATOM     17 CL   UNL     1      -3.502  -5.253   0.096  0.00  0.00    +0.000 Cl
ENDBRANCH   2  11
TORSDOF 2
