MODEL 1
REMARK VINA RESULT:      -4.3      0.000      0.000
REMARK  Name = *****
REMARK  4 active torsions:
REMARK  status: ('A' for Active; 'I' for Inactive)
REMARK    1  A    between atoms: C_4  and  C_7
REMARK    2  A    between atoms: C_7  and  O_9
REMARK    3  A    between atoms: O_9  and  C_10
REMARK    4  A    between atoms: C_15  and  S_16
REMARK                            x       y       z     vdW  Elec       q    Type
REMARK                         _______ _______ _______ _____ _____    ______ ____
ROOT
ATOM      1  O   UNL     1     102.600 126.931  82.949  0.00  0.00    +0.000 OA
ENDROOT
BRANCH   1   2
ATOM      2  C   UNL     1     101.293 127.424  83.045  0.00  0.00    +0.000 A 
ATOM      3  C   UNL     1     100.286 126.689  82.413  0.00  0.00    +0.000 A 
ATOM      4  C   UNL     1      98.977 127.163  82.433  0.00  0.00    +0.000 A 
ATOM      5  C   UNL     1      98.683 128.370  83.067  0.00  0.00    +0.000 A 
ATOM      6  C   UNL     1      99.698 129.110  83.682  0.00  0.00    +0.000 A 
ATOM      7  C   UNL     1     101.018 128.646  83.674  0.00  0.00    +0.000 A 
BRANCH   7   8
ATOM      8  S   UNL     1     102.278 129.627  84.466  0.00  0.00    +0.000 S 
ATOM      9  H   UNL     1     102.390 130.822  83.826  0.00  0.00    +0.000 HD
ENDBRANCH   7   8
ENDBRANCH   1   2
BRANCH   1  10
ATOM     10  C   UNL     1     102.739 125.651  83.449  0.00  0.00    +0.000 C 
ATOM     11  O   UNL     1     102.303 125.222  84.507  0.00  0.00    +0.000 OA
BRANCH  10  15
ATOM     12  C   UNL     1     104.936 123.323  80.595  0.00  0.00    +0.000 A 
ATOM     13  C   UNL     1     104.843 122.874  81.911  0.00  0.00    +0.000 A 
ATOM     14  C   UNL     1     104.132 123.617  82.858  0.00  0.00    +0.000 A 
ATOM     15  C   UNL     1     103.514 124.818  82.488  0.00  0.00    +0.000 A 
ATOM     16  C   UNL     1     103.608 125.261  81.160  0.00  0.00    +0.000 A 
ATOM     17  C   UNL     1     104.320 124.515  80.218  0.00  0.00    +0.000 A 
ENDBRANCH  10  15
ENDBRANCH   1  10
TORSDOF 4
ENDMDL
