MODEL 1
REMARK VINA RESULT:      -4.5      0.000      0.000
REMARK  Name = *****
REMARK  2 active torsions:
REMARK  status: ('A' for Active; 'I' for Inactive)
REMARK    1  A    between atoms: C_4  and  C_7
REMARK    2  A    between atoms: C_8  and  C_10
REMARK                            x       y       z     vdW  Elec       q    Type
REMARK                         _______ _______ _______ _____ _____    ______ ____
ROOT
ATOM      1  C   UNL     1      88.142  64.501  88.764  0.00  0.00    +0.000 C 
ATOM      2  C   UNL     1      87.768  65.229  87.481  0.00  0.00    +0.000 C 
ATOM      3  O   UNL     1      88.750  64.180  87.503  0.00  0.00    +0.000 OA
ENDROOT
BRANCH   2   4
ATOM      4  C   UNL     1      88.276  66.629  87.212  0.00  0.00    +0.000 A 
ATOM      5  C   UNL     1      87.637  67.786  87.702  0.00  0.00    +0.000 A 
ATOM      6  C   UNL     1      88.127  69.068  87.429  0.00  0.00    +0.000 A 
ATOM      7  C   UNL     1      89.268  69.216  86.650  0.00  0.00    +0.000 A 
ATOM      8  C   UNL     1      89.919  68.100  86.141  0.00  0.00    +0.000 A 
ATOM      9  C   UNL     1      89.424  66.823  86.419  0.00  0.00    +0.000 A 
ATOM     10 CL   UNL     1      89.874  70.790  86.310  0.00  0.00    +0.000 Cl
ATOM     11 CL   UNL     1      86.205  67.668  88.662  0.00  0.00    +0.000 Cl
ENDBRANCH   2   4
BRANCH   1  15
ATOM     12  C   UNL     1      85.463  61.548  90.464  0.00  0.00    +0.000 A 
ATOM     13  C   UNL     1      85.741  62.722  91.157  0.00  0.00    +0.000 A 
ATOM     14  C   UNL     1      86.608  63.669  90.606  0.00  0.00    +0.000 A 
ATOM     15  C   UNL     1      87.218  63.468  89.355  0.00  0.00    +0.000 A 
ATOM     16  C   UNL     1      86.914  62.277  88.676  0.00  0.00    +0.000 A 
ATOM     17  C   UNL     1      86.048  61.325  89.222  0.00  0.00    +0.000 A 
ENDBRANCH   1  15
TORSDOF 2
ENDMDL
