MODEL 1
REMARK VINA RESULT:      -4.8      0.000      0.000
REMARK  Name = *****
REMARK  4 active torsions:
REMARK  status: ('A' for Active; 'I' for Inactive)
REMARK    1  A    between atoms: C_1  and  C_2
REMARK    2  A    between atoms: C_3  and  C_16
REMARK    3  A    between atoms: C_5  and  C_8
REMARK    4  A    between atoms: N_9  and  C_10
REMARK                            x       y       z     vdW  Elec       q    Type
REMARK                         _______ _______ _______ _____ _____    ______ ____
ROOT
ATOM      1  C   UNL     1      99.346 129.886  84.023  0.00  0.00    +0.000 C 
ATOM      2  C   UNL     1     100.199 128.757  83.513  0.00  0.00    +0.000 A 
ATOM      3  C   UNL     1      99.625 127.608  82.930  0.00  0.00    +0.000 A 
ATOM      4  C   UNL     1     100.463 126.578  82.469  0.00  0.00    +0.000 A 
ATOM      5  C   UNL     1     101.852 126.694  82.575  0.00  0.00    +0.000 A 
ATOM      6  C   UNL     1     102.420 127.832  83.144  0.00  0.00    +0.000 A 
ATOM      7  C   UNL     1     101.596 128.857  83.610  0.00  0.00    +0.000 A 
ATOM      8  C   UNL     1      98.133 127.456  82.803  0.00  0.00    +0.000 C 
ENDROOT
BRANCH   5   9
ATOM      9  C   UNL     1     102.700 125.593  82.077  0.00  0.00    +0.000 C 
ATOM     10  N   UNL     1     103.363 124.820  82.878  0.00  0.00    +0.000 NA
BRANCH  10  11
ATOM     11  C   UNL     1     104.127 123.817  82.264  0.00  0.00    +0.000 A 
ATOM     12  C   UNL     1     104.600 122.729  83.003  0.00  0.00    +0.000 A 
ATOM     13  C   UNL     1     105.350 121.727  82.383  0.00  0.00    +0.000 A 
ATOM     14  C   UNL     1     105.621 121.804  81.017  0.00  0.00    +0.000 A 
ATOM     15  C   UNL     1     105.136 122.878  80.270  0.00  0.00    +0.000 A 
ATOM     16  C   UNL     1     104.387 123.878  80.894  0.00  0.00    +0.000 A 
ENDBRANCH  10  11
ENDBRANCH   5   9
TORSDOF 2
ENDMDL
