REMARK  Name = *****
REMARK  5 active torsions:
REMARK  status: ('A' for Active; 'I' for Inactive)
REMARK    1  A    between atoms: C_1  and  C_2
REMARK    2  A    between atoms: C_5  and  S_8
REMARK    3  A    between atoms: S_8  and  O_10
REMARK    4  A    between atoms: O_10  and  C_11
REMARK    5  A    between atoms: C_11  and  C_18
REMARK                            x       y       z     vdW  Elec       q    Type
REMARK                         _______ _______ _______ _____ _____    ______ ____
ROOT
ATOM      1  S   UNL     1      -6.670   4.142   0.521  0.00  0.00    +0.000 S 
ATOM      2  O   UNL     1      -7.826   4.006   1.467  0.00  0.00    +0.000 OA
ENDROOT
BRANCH   1   7
ATOM      3  C   UNL     1      -8.569   7.867  -3.951  0.00  0.00    +0.000 C 
ATOM      4  C   UNL     1      -8.109   6.932  -2.872  0.00  0.00    +0.000 A 
ATOM      5  C   UNL     1      -6.758   6.585  -2.756  0.00  0.00    +0.000 A 
ATOM      6  C   UNL     1      -6.330   5.736  -1.731  0.00  0.00    +0.000 A 
ATOM      7  C   UNL     1      -7.248   5.234  -0.802  0.00  0.00    +0.000 A 
ATOM      8  C   UNL     1      -8.595   5.593  -0.906  0.00  0.00    +0.000 A 
ATOM      9  C   UNL     1      -9.023   6.439  -1.932  0.00  0.00    +0.000 A 
ENDBRANCH   1   7
BRANCH   1  10
ATOM     10  O   UNL     1      -6.690   2.852  -0.445  0.00  0.00    +0.000 OA
BRANCH  10  11
ATOM     11  C   UNL     1      -5.884   1.713  -0.092  0.00  0.00    +0.000 C 
ATOM     12  C   UNL     1      -6.363   1.012   1.209  0.00  0.00    +0.000 C 
ATOM     13  C   UNL     1      -6.949  -0.322   0.704  0.00  0.00    +0.000 C 
ATOM     14  C   UNL     1      -5.797  -1.242   0.265  0.00  0.00    +0.000 C 
ATOM     15  C   UNL     1      -5.347  -0.619  -1.062  0.00  0.00    +0.000 C 
ATOM     16  C   UNL     1      -6.231   0.635  -1.170  0.00  0.00    +0.000 C 
ATOM     17  C   UNL     1      -7.560   0.085  -0.633  0.00  0.00    +0.000 C 
ATOM     18  C   UNL     1      -4.397   2.085  -0.078  0.00  0.00    +0.000 C 
ENDBRANCH  10  11
ENDBRANCH   1  10
TORSDOF 3
