MODEL 1
REMARK VINA RESULT:      -4.3      0.000      0.000
REMARK  Name = *****
REMARK  2 active torsions:
REMARK  status: ('A' for Active; 'I' for Inactive)
REMARK    1  A    between atoms: C_3  and  C_5
REMARK    2  A    between atoms: C_6  and  C_7
REMARK                            x       y       z     vdW  Elec       q    Type
REMARK                         _______ _______ _______ _____ _____    ______ ____
ROOT
ATOM      1  C   UNL     1      97.547 118.148  80.531  0.00  0.00    +0.000 C 
ATOM      2  C   UNL     1      97.958 117.363  79.524  0.00  0.00    +0.000 C 
ENDROOT
BRANCH   2   3
ATOM      3  C   UNL     1      97.180 116.241  78.980  0.00  0.00    +0.000 A 
ATOM      4  C   UNL     1      96.390 115.413  79.790  0.00  0.00    +0.000 A 
ATOM      5  C   UNL     1      95.640 114.375  79.229  0.00  0.00    +0.000 A 
ATOM      6  C   UNL     1      95.662 114.162  77.853  0.00  0.00    +0.000 A 
ATOM      7  C   UNL     1      96.430 114.988  77.036  0.00  0.00    +0.000 A 
ATOM      8  C   UNL     1      97.180 116.025  77.596  0.00  0.00    +0.000 A 
ENDBRANCH   2   3
BRANCH   1  11
ATOM      9  C   UNL     1      97.659 120.102  82.834  0.00  0.00    +0.000 C 
ATOM     10  C   UNL     1      98.844 119.175  82.500  0.00  0.00    +0.000 C 
ATOM     11  C   UNL     1      98.425 119.254  81.008  0.00  0.00    +0.000 C 
ATOM     12  C   UNL     1      97.695 120.575  81.368  0.00  0.00    +0.000 C 
ENDBRANCH   1  11
TORSDOF 2
ENDMDL
