REMARK  Name = *****
REMARK  3 active torsions:
REMARK  status: ('A' for Active; 'I' for Inactive)
REMARK    1  A    between atoms: C_3  and  C_20
REMARK    2  A    between atoms: C_6  and  C_7
REMARK    3  A    between atoms: C_8  and  C_9
REMARK                            x       y       z     vdW  Elec       q    Type
REMARK                         _______ _______ _______ _____ _____    ______ ____
ROOT
ATOM      1  C   UNL     1       6.042  -1.088   0.414  0.00  0.00    +0.000 A 
ATOM      2  C   UNL     1       6.684  -2.148   1.073  0.00  0.00    +0.000 A 
ATOM      3  C   UNL     1       8.072  -2.199   1.186  0.00  0.00    +0.000 A 
ATOM      4  C   UNL     1       8.850  -1.195   0.633  0.00  0.00    +0.000 A 
ATOM      5  C   UNL     1       8.243  -0.146  -0.039  0.00  0.00    +0.000 A 
ATOM      6  C   UNL     1       6.854  -0.095  -0.153  0.00  0.00    +0.000 A 
ATOM      7  F   UNL     1       6.312   0.925  -0.836  0.00  0.00    +0.000 F 
ATOM      8  F   UNL     1       8.993   0.821  -0.586  0.00  0.00    +0.000 F 
ATOM      9  F   UNL     1      10.185  -1.243   0.740  0.00  0.00    +0.000 F 
ATOM     10  F   UNL     1       8.653  -3.222   1.828  0.00  0.00    +0.000 F 
ATOM     11  F   UNL     1       5.957  -3.139   1.613  0.00  0.00    +0.000 F 
ENDROOT
BRANCH   1  13
ATOM     12  C   UNL     1       3.788  -0.020   0.207  0.00  0.00    +0.000 C 
ATOM     13  C   UNL     1       4.571  -1.107   0.307  0.00  0.00    +0.000 C 
BRANCH  12  19
ATOM     14  C   UNL     1       1.645  -1.060  -0.603  0.00  0.00    +0.000 A 
ATOM     15  C   UNL     1       0.248  -1.060  -0.678  0.00  0.00    +0.000 A 
ATOM     16  C   UNL     1      -0.490  -0.065  -0.031  0.00  0.00    +0.000 A 
ATOM     17  C   UNL     1       0.176   0.932   0.686  0.00  0.00    +0.000 A 
ATOM     18  C   UNL     1       1.573   0.930   0.760  0.00  0.00    +0.000 A 
ATOM     19  C   UNL     1       2.321  -0.074   0.129  0.00  0.00    +0.000 A 
BRANCH  16  20
ATOM     20  C   UNL     1      -1.922  -0.063  -0.108  0.00  0.00    +0.000 C 
ATOM     21  N   UNL     1      -3.081  -0.062  -0.171  0.00  0.00    +0.000 NA
ENDBRANCH  16  20
ENDBRANCH  12  19
ENDBRANCH   1  13
TORSDOF 3
