MODEL 1
REMARK VINA RESULT:      -4.1      0.000      0.000
REMARK  Name = *****
REMARK  4 active torsions:
REMARK  status: ('A' for Active; 'I' for Inactive)
REMARK    1  A    between atoms: C_1  and  C_2
REMARK    2  A    between atoms: C_3  and  C_9
REMARK    3  A    between atoms: N_4  and  C_7
REMARK    4  A    between atoms: C_11  and  C_12
REMARK                            x       y       z     vdW  Elec       q    Type
REMARK                         _______ _______ _______ _____ _____    ______ ____
ROOT
ATOM      1  C   UNL     1      87.717  63.444  86.573  0.00  0.00    +0.000 C 
ATOM      2  C   UNL     1      86.266  63.309  86.938  0.00  0.00    +0.000 C 
ATOM      3  C   UNL     1      87.308  62.754  87.864  0.00  0.00    +0.000 C 
ENDROOT
BRANCH   1   6
ATOM      4  C   UNL     1      90.580  63.735  85.486  0.00  0.00    +0.000 C 
ATOM      5  C   UNL     1      89.742  64.860  85.989  0.00  0.00    +0.000 A 
ATOM      6  C   UNL     1      88.445  64.805  86.504  0.00  0.00    +0.000 A 
ATOM      7  N   UNL     1      88.053  66.103  86.865  0.00  0.00    +0.000 N 
ATOM      8  C   UNL     1      89.127  66.932  86.569  0.00  0.00    +0.000 A 
ATOM      9  C   UNL     1      90.159  66.207  86.039  0.00  0.00    +0.000 A 
BRANCH   7  10
ATOM     10  C   UNL     1      86.839  66.551  87.402  0.00  0.00    +0.000 C 
ATOM     11  C   UNL     1      86.596  66.964  88.655  0.00  0.00    +0.000 C 
ENDBRANCH   7  10
ENDBRANCH   1   6
BRANCH   3  12
ATOM     12  C   UNL     1      87.570  63.312  89.238  0.00  0.00    +0.000 A 
ATOM     13  C   UNL     1      86.519  63.597  90.125  0.00  0.00    +0.000 A 
ATOM     14  C   UNL     1      86.763  64.090  91.411  0.00  0.00    +0.000 A 
ATOM     15  C   UNL     1      88.071  64.294  91.842  0.00  0.00    +0.000 A 
ATOM     16  C   UNL     1      89.131  63.998  90.992  0.00  0.00    +0.000 A 
ATOM     17  C   UNL     1      88.880  63.505  89.709  0.00  0.00    +0.000 A 
ENDBRANCH   3  12
TORSDOF 3
ENDMDL
