MODEL 1
REMARK VINA RESULT:      -4.5      0.000      0.000
REMARK  Name = *****
REMARK  1 active torsions:
REMARK  status: ('A' for Active; 'I' for Inactive)
REMARK    1  A    between atoms: C_6  and  C_7
REMARK                            x       y       z     vdW  Elec       q    Type
REMARK                         _______ _______ _______ _____ _____    ______ ____
ROOT
ATOM      1  C   UNL     1      99.081 128.965  83.096  0.00  0.00    +0.000 C 
ATOM      2  C   UNL     1      98.282 127.731  82.702  0.00  0.00    +0.000 C 
ATOM      3  C   UNL     1      99.348 126.704  82.339  0.00  0.00    +0.000 C 
ATOM      4  C   UNL     1     100.499 127.064  83.238  0.00  0.00    +0.000 C 
ATOM      5  C   UNL     1     101.555 126.325  83.425  0.00  0.00    +0.000 C 
ATOM      6  C   UNL     1     102.609 125.589  83.622  0.00  0.00    +0.000 C 
ATOM      7  C   UNL     1     100.261 128.403  83.879  0.00  0.00    +0.000 C 
ENDROOT
BRANCH   6   8
ATOM      8  C   UNL     1     103.382 124.932  82.557  0.00  0.00    +0.000 A 
ATOM      9  C   UNL     1     104.171 123.796  82.786  0.00  0.00    +0.000 A 
ATOM     10  C   UNL     1     104.891 123.202  81.744  0.00  0.00    +0.000 A 
ATOM     11  C   UNL     1     104.831 123.738  80.460  0.00  0.00    +0.000 A 
ATOM     12  C   UNL     1     104.050 124.865  80.216  0.00  0.00    +0.000 A 
ATOM     13  C   UNL     1     103.331 125.458  81.257  0.00  0.00    +0.000 A 
ENDBRANCH   6   8
TORSDOF 1
ENDMDL
