REMARK  Name = *****
REMARK  4 active torsions:
REMARK  status: ('A' for Active; 'I' for Inactive)
REMARK    1  A    between atoms: C_1  and  C_2
REMARK    2  A    between atoms: C_5  and  C_8
REMARK    3  A    between atoms: C_8  and  N_9
REMARK    4  A    between atoms: N_9  and  C_10
REMARK                            x       y       z     vdW  Elec       q    Type
REMARK                         _______ _______ _______ _____ _____    ______ ____
ROOT
ATOM      1  C   UNL     1       2.425  -0.080   0.110  0.00  0.00    +0.000 C 
ATOM      2  C   UNL     1       0.931  -0.001  -0.004  0.00  0.00    +0.000 A 
ATOM      3  C   UNL     1       0.257   1.176   0.345  0.00  0.00    +0.000 A 
ATOM      4  C   UNL     1      -1.136   1.243   0.272  0.00  0.00    +0.000 A 
ATOM      5  C   UNL     1      -1.864   0.126  -0.143  0.00  0.00    +0.000 A 
ATOM      6  C   UNL     1      -1.204  -1.058  -0.480  0.00  0.00    +0.000 A 
ATOM      7  C   UNL     1       0.190  -1.121  -0.405  0.00  0.00    +0.000 A 
ENDROOT
BRANCH   5   8
ATOM      8  C   UNL     1      -3.337   0.170  -0.228  0.00  0.00    +0.000 C 
BRANCH   8   9
ATOM      9  N   UNL     1      -4.010   1.234   0.083  0.00  0.00    +0.000 NA
BRANCH   9  10
ATOM     10  C   UNL     1      -5.360   1.107  -0.045  0.00  0.00    +0.000 C 
ATOM     11  C   UNL     1      -6.132   1.671  -0.987  0.00  0.00    +0.000 C 
ATOM     12  C   UNL     1      -7.515   1.345  -0.732  0.00  0.00    +0.000 C 
ATOM     13  C   UNL     1      -7.601   0.598   0.379  0.00  0.00    +0.000 C 
ATOM     14  C   UNL     1      -6.226   0.370   0.947  0.00  0.00    +0.000 C 
ENDBRANCH   9  10
ENDBRANCH   8   9
ENDBRANCH   5   8
TORSDOF 3
