MODEL 1
REMARK VINA RESULT:      -4.6      0.000      0.000
REMARK  Name = *****
REMARK  4 active torsions:
REMARK  status: ('A' for Active; 'I' for Inactive)
REMARK    1  A    between atoms: C_1  and  C_2
REMARK    2  A    between atoms: C_7  and  O_8
REMARK    3  A    between atoms: O_8  and  C_9
REMARK    4  A    between atoms: C_9  and  C_11
REMARK                            x       y       z     vdW  Elec       q    Type
REMARK                         _______ _______ _______ _____ _____    ______ ____
ROOT
ATOM      1  O   UNL     1     102.556 126.864  82.824  0.00  0.00    +0.000 OA
ENDROOT
BRANCH   1   8
ATOM      2  C   UNL     1     102.154 129.387  84.221  0.00  0.00    +0.000 C 
ATOM      3  C   UNL     1     101.039 128.606  83.591  0.00  0.00    +0.000 A 
ATOM      4  C   UNL     1      99.722 129.078  83.672  0.00  0.00    +0.000 A 
ATOM      5  C   UNL     1      98.669 128.352  83.103  0.00  0.00    +0.000 A 
ATOM      6  C   UNL     1      98.919 127.144  82.452  0.00  0.00    +0.000 A 
ATOM      7  C   UNL     1     100.220 126.651  82.378  0.00  0.00    +0.000 A 
ATOM      8  C   UNL     1     101.261 127.373  82.965  0.00  0.00    +0.000 A 
ENDBRANCH   1   8
BRANCH   1   9
ATOM      9  C   UNL     1     102.727 125.615  83.391  0.00  0.00    +0.000 C 
ATOM     10  O   UNL     1     102.338 125.233  84.483  0.00  0.00    +0.000 OA
BRANCH   9  11
ATOM     11  C   UNL     1     103.528 124.764  82.469  0.00  0.00    +0.000 A 
ATOM     12  C   UNL     1     103.678 125.190  81.142  0.00  0.00    +0.000 A 
ATOM     13  C   UNL     1     104.422 124.429  80.239  0.00  0.00    +0.000 A 
ATOM     14  C   UNL     1     105.025 123.243  80.657  0.00  0.00    +0.000 A 
ATOM     15  C   UNL     1     104.888 122.817  81.978  0.00  0.00    +0.000 A 
ATOM     16  C   UNL     1     104.140 123.574  82.885  0.00  0.00    +0.000 A 
ENDBRANCH   9  11
ENDBRANCH   1   9
TORSDOF 3
ENDMDL
