MODEL 1
REMARK VINA RESULT:      -4.6      0.000      0.000
REMARK  Name = *****
REMARK  4 active torsions:
REMARK  status: ('A' for Active; 'I' for Inactive)
REMARK    1  A    between atoms: C_1  and  C_2
REMARK    2  A    between atoms: C_7  and  O_8
REMARK    3  A    between atoms: O_8  and  C_9
REMARK    4  A    between atoms: C_10  and  C_11
REMARK                            x       y       z     vdW  Elec       q    Type
REMARK                         _______ _______ _______ _____ _____    ______ ____
ROOT
ATOM      1  O   UNL     1     104.374 125.151  82.642  0.00  0.00    +0.000 OA
ENDROOT
BRANCH   1   8
ATOM      2  C   UNL     1     104.857 124.584  79.872  0.00  0.00    +0.000 C 
ATOM      3  C   UNL     1     104.724 123.514  80.915  0.00  0.00    +0.000 A 
ATOM      4  C   UNL     1     104.851 122.162  80.565  0.00  0.00    +0.000 A 
ATOM      5  C   UNL     1     104.734 121.163  81.535  0.00  0.00    +0.000 A 
ATOM      6  C   UNL     1     104.492 121.501  82.866  0.00  0.00    +0.000 A 
ATOM      7  C   UNL     1     104.376 122.840  83.231  0.00  0.00    +0.000 A 
ATOM      8  C   UNL     1     104.511 123.837  82.262  0.00  0.00    +0.000 A 
ENDBRANCH   1   8
BRANCH   1   9
ATOM      9  C   UNL     1     103.081 125.575  82.862  0.00  0.00    +0.000 C 
ATOM     10  C   UNL     1     102.707 126.838  82.623  0.00  0.00    +0.000 C 
BRANCH  10  11
ATOM     11  C   UNL     1     101.351 127.355  82.842  0.00  0.00    +0.000 A 
ATOM     12  C   UNL     1     101.108 128.575  83.487  0.00  0.00    +0.000 A 
ATOM     13  C   UNL     1      99.802 129.048  83.645  0.00  0.00    +0.000 A 
ATOM     14  C   UNL     1      98.728 128.313  83.151  0.00  0.00    +0.000 A 
ATOM     15  C   UNL     1      98.957 127.105  82.495  0.00  0.00    +0.000 A 
ATOM     16  C   UNL     1     100.262 126.633  82.336  0.00  0.00    +0.000 A 
ENDBRANCH  10  11
ENDBRANCH   1   9
TORSDOF 3
ENDMDL
