MODEL 1
REMARK VINA RESULT:      -4.8      0.000      0.000
REMARK  Name = *****
REMARK  4 active torsions:
REMARK  status: ('A' for Active; 'I' for Inactive)
REMARK    1  A    between atoms: C_1  and  C_2
REMARK    2  A    between atoms: C_3  and  C_17
REMARK    3  A    between atoms: C_5  and  C_8
REMARK    4  A    between atoms: C_9  and  C_10
REMARK                            x       y       z     vdW  Elec       q    Type
REMARK                         _______ _______ _______ _____ _____    ______ ____
ROOT
ATOM      1  C   UNL     1     102.721 125.749  82.537  0.00  0.00    +0.000 C 
ATOM      2  C   UNL     1     103.441 124.834  82.244  0.00  0.00    +0.000 C 
ENDROOT
BRANCH   1   7
ATOM      3  C   UNL     1      99.303 130.133  83.989  0.00  0.00    +0.000 C 
ATOM      4  C   UNL     1     100.169 128.975  83.577  0.00  0.00    +0.000 A 
ATOM      5  C   UNL     1      99.625 127.792  83.036  0.00  0.00    +0.000 A 
ATOM      6  C   UNL     1     100.485 126.737  82.684  0.00  0.00    +0.000 A 
ATOM      7  C   UNL     1     101.862 126.837  82.891  0.00  0.00    +0.000 A 
ATOM      8  C   UNL     1     102.396 127.996  83.449  0.00  0.00    +0.000 A 
ATOM      9  C   UNL     1     101.555 129.055  83.792  0.00  0.00    +0.000 A 
ATOM     10  C   UNL     1      98.148 127.642  82.795  0.00  0.00    +0.000 C 
ENDBRANCH   1   7
BRANCH   2  11
ATOM     11  C   UNL     1     104.299 123.742  81.900  0.00  0.00    +0.000 A 
ATOM     12  C   UNL     1     104.662 122.805  82.874  0.00  0.00    +0.000 A 
ATOM     13  C   UNL     1     105.503 121.741  82.538  0.00  0.00    +0.000 A 
ATOM     14  C   UNL     1     105.970 121.622  81.233  0.00  0.00    +0.000 A 
ATOM     15  C   UNL     1     105.613 122.547  80.257  0.00  0.00    +0.000 A 
ATOM     16  C   UNL     1     104.774 123.611  80.591  0.00  0.00    +0.000 A 
ATOM     17  F   UNL     1     106.775 120.602  80.912  0.00  0.00    +0.000 F 
ENDBRANCH   2  11
TORSDOF 2
ENDMDL
