MODEL 1
REMARK VINA RESULT:      -5.2      0.000      0.000
REMARK  Name = *****
REMARK  4 active torsions:
REMARK  status: ('A' for Active; 'I' for Inactive)
REMARK    1  A    between atoms: C_1  and  C_2
REMARK    2  A    between atoms: C_4  and  C_8
REMARK    3  A    between atoms: C_9  and  C_10
REMARK    4  A    between atoms: C_14  and  C_16
REMARK                            x       y       z     vdW  Elec       q    Type
REMARK                         _______ _______ _______ _____ _____    ______ ____
ROOT
ATOM      1  C   UNL     1     102.096 126.076  82.016  0.00  0.00    +0.000 C 
ATOM      2  C   UNL     1     103.066 126.435  81.160  0.00  0.00    +0.000 C 
ENDROOT
BRANCH   1   6
ATOM      3  C   UNL     1     100.967 130.310  84.495  0.00  0.00    +0.000 C 
ATOM      4  C   UNL     1     100.541 129.065  83.776  0.00  0.00    +0.000 A 
ATOM      5  C   UNL     1     101.498 128.172  83.272  0.00  0.00    +0.000 A 
ATOM      6  C   UNL     1     101.113 127.017  82.575  0.00  0.00    +0.000 A 
ATOM      7  C   UNL     1      99.751 126.786  82.352  0.00  0.00    +0.000 A 
ATOM      8  C   UNL     1      98.791 127.676  82.837  0.00  0.00    +0.000 A 
ATOM      9  C   UNL     1      99.184 128.811  83.544  0.00  0.00    +0.000 A 
ENDBRANCH   1   6
BRANCH   2  10
ATOM     10  C   UNL     1     104.062 125.501  80.613  0.00  0.00    +0.000 A 
ATOM     11  C   UNL     1     105.112 125.927  79.791  0.00  0.00    +0.000 A 
ATOM     12  C   UNL     1     106.062 125.016  79.325  0.00  0.00    +0.000 A 
ATOM     13  C   UNL     1     105.976 123.671  79.682  0.00  0.00    +0.000 A 
ATOM     14  C   UNL     1     104.936 123.223  80.503  0.00  0.00    +0.000 A 
ATOM     15  C   UNL     1     103.996 124.149  80.978  0.00  0.00    +0.000 A 
ATOM     16  C   UNL     1     104.861 121.786  80.925  0.00  0.00    +0.000 C 
ENDBRANCH   2  10
TORSDOF 2
ENDMDL
