REMARK  Name = *****
REMARK  4 active torsions:
REMARK  status: ('A' for Active; 'I' for Inactive)
REMARK    1  A    between atoms: C_3  and  C_16
REMARK    2  A    between atoms: C_6  and  C_7
REMARK    3  A    between atoms: C_8  and  C_9
REMARK    4  A    between atoms: C_11  and  C_14
REMARK                            x       y       z     vdW  Elec       q    Type
REMARK                         _______ _______ _______ _____ _____    ______ ____
ROOT
ATOM      1  C   UNL     1       1.066  -0.090  -0.944  0.00  0.00    +0.000 A 
ATOM      2  C   UNL     1       0.144  -1.132  -0.794  0.00  0.00    +0.000 A 
ATOM      3  C   UNL     1      -0.907  -1.027   0.128  0.00  0.00    +0.000 A 
ATOM      4  C   UNL     1      -1.020   0.145   0.889  0.00  0.00    +0.000 A 
ATOM      5  C   UNL     1      -0.098   1.185   0.736  0.00  0.00    +0.000 A 
ATOM      6  C   UNL     1       0.962   1.073  -0.171  0.00  0.00    +0.000 A 
ENDROOT
BRANCH   3   7
ATOM      7  C   UNL     1      -1.912  -2.139   0.301  0.00  0.00    +0.000 C 
ATOM      8  F   UNL     1      -1.648  -3.237  -0.461  0.00  0.00    +0.000 F 
ATOM      9  F   UNL     1      -1.980  -2.586   1.586  0.00  0.00    +0.000 F 
ATOM     10  F   UNL     1      -3.177  -1.753  -0.028  0.00  0.00    +0.000 F 
ENDBRANCH   3   7
BRANCH   6  11
ATOM     11  C   UNL     1       1.889   2.203  -0.319  0.00  0.00    +0.000 C 
ATOM     12  C   UNL     1       3.204   2.072  -0.556  0.00  0.00    +0.000 C 
BRANCH  12  13
ATOM     13  C   UNL     1       4.050   3.209  -0.677  0.00  0.00    +0.000 A 
ATOM     14  N   UNL     1       3.699   4.486  -0.569  0.00  0.00    +0.000 NA
ATOM     15  C   UNL     1       4.853   5.212  -0.774  0.00  0.00    +0.000 A 
ATOM     16  C   UNL     1       5.892   4.341  -0.986  0.00  0.00    +0.000 A 
ATOM     17  O   UNL     1       5.404   3.076  -0.930  0.00  0.00    +0.000 OA
BRANCH  15  18
ATOM     18  C   UNL     1       4.859   6.691  -0.718  0.00  0.00    +0.000 C 
ATOM     19 CL   UNL     1       5.339   7.360  -2.293  0.00  0.00    +0.000 Cl
ENDBRANCH  15  18
ENDBRANCH  12  13
ENDBRANCH   6  11
TORSDOF 4
