MODEL 1
REMARK VINA RESULT:      -4.3      0.000      0.000
REMARK  Name = *****
REMARK  4 active torsions:
REMARK  status: ('A' for Active; 'I' for Inactive)
REMARK    1  A    between atoms: C_1  and  C_2
REMARK    2  A    between atoms: C_2  and  C_8
REMARK    3  A    between atoms: C_8  and  C_9
REMARK    4  A    between atoms: C_10  and  C_11
REMARK                            x       y       z     vdW  Elec       q    Type
REMARK                         _______ _______ _______ _____ _____    ______ ____
ROOT
ATOM      1  C   UNL     1      88.834  64.578  87.321  0.00  0.00    +0.000 C 
ENDROOT
BRANCH   1   3
ATOM      2  C   UNL     1      88.822  63.767  89.727  0.00  0.00    +0.000 C 
ATOM      3  C   UNL     1      87.943  64.107  88.516  0.00  0.00    +0.000 C 
ATOM      4  S   UNL     1      86.823  65.528  88.897  0.00  0.00    +0.000 S 
ATOM      5  C   UNL     1      85.773  64.822  90.196  0.00  0.00    +0.000 C 
ATOM      6  C   UNL     1      85.003  63.591  89.747  0.00  0.00    +0.000 C 
ATOM      7  C   UNL     1      85.886  62.394  89.428  0.00  0.00    +0.000 C 
ATOM      8  S   UNL     1      86.938  62.657  87.975  0.00  0.00    +0.000 S 
ENDBRANCH   1   3
BRANCH   1   9
ATOM      9  C   UNL     1      88.764  66.052  86.978  0.00  0.00    +0.000 C 
ATOM     10  C   UNL     1      89.792  66.745  86.462  0.00  0.00    +0.000 C 
BRANCH  10  11
ATOM     11  C   UNL     1      89.741  68.175  86.119  0.00  0.00    +0.000 A 
ATOM     12  C   UNL     1      89.536  69.172  87.080  0.00  0.00    +0.000 A 
ATOM     13  C   UNL     1      89.527  70.522  86.716  0.00  0.00    +0.000 A 
ATOM     14  C   UNL     1      89.733  70.888  85.388  0.00  0.00    +0.000 A 
ATOM     15  C   UNL     1      89.955  69.907  84.424  0.00  0.00    +0.000 A 
ATOM     16  C   UNL     1      89.964  68.558  84.789  0.00  0.00    +0.000 A 
ENDBRANCH  10  11
ENDBRANCH   1   9
TORSDOF 3
ENDMDL
