REMARK  Name = *****
REMARK  2 active torsions:
REMARK  status: ('A' for Active; 'I' for Inactive)
REMARK    1  A    between atoms: C_4  and  C_7
REMARK    2  A    between atoms: C_7  and  N_8
REMARK                            x       y       z     vdW  Elec       q    Type
REMARK                         _______ _______ _______ _____ _____    ______ ____
ROOT
ATOM      1  N   UNL     1      -3.108   1.113  -1.070  0.00  0.00    +0.000 NA
ATOM      2  S   UNL     1      -2.532   1.585  -2.571  0.00  0.00    +0.000 S 
ATOM      3  C   UNL     1      -4.024   1.236  -3.445  0.00  0.00    +0.000 A 
ATOM      4  C   UNL     1      -4.170   1.033  -4.810  0.00  0.00    +0.000 A 
ATOM      5  C   UNL     1      -5.438   0.734  -5.313  0.00  0.00    +0.000 A 
ATOM      6  C   UNL     1      -6.539   0.641  -4.451  0.00  0.00    +0.000 A 
ATOM      7  C   UNL     1      -6.380   0.853  -3.080  0.00  0.00    +0.000 A 
ATOM      8  C   UNL     1      -5.114   1.152  -2.591  0.00  0.00    +0.000 A 
ATOM      9  S   UNL     1      -4.732   1.511  -0.880  0.00  0.00    +0.000 S 
ATOM     10  O   UNL     1      -5.511   0.525  -0.065  0.00  0.00    +0.000 OA
ENDROOT
BRANCH   1  11
ATOM     11  C   UNL     1      -2.251   1.147   0.120  0.00  0.00    +0.000 C 
BRANCH  11  15
ATOM     12  C   UNL     1       1.129  -1.531  -0.135  0.00  0.00    +0.000 A 
ATOM     13  C   UNL     1       1.330  -0.153  -0.171  0.00  0.00    +0.000 A 
ATOM     14  C   UNL     1       0.241   0.717  -0.089  0.00  0.00    +0.000 A 
ATOM     15  C   UNL     1      -1.062   0.212   0.032  0.00  0.00    +0.000 A 
ATOM     16  C   UNL     1      -1.252  -1.178   0.064  0.00  0.00    +0.000 A 
ATOM     17  C   UNL     1      -0.162  -2.044  -0.018  0.00  0.00    +0.000 A 
ENDBRANCH  11  15
ENDBRANCH   1  11
TORSDOF 2
