REMARK  Name = *****
REMARK  4 active torsions:
REMARK  status: ('A' for Active; 'I' for Inactive)
REMARK    1  A    between atoms: C_1  and  C_2
REMARK    2  A    between atoms: C_5  and  C_8
REMARK    3  A    between atoms: C_9  and  C_10
REMARK    4  A    between atoms: C_13  and  C_16
REMARK                            x       y       z     vdW  Elec       q    Type
REMARK                         _______ _______ _______ _____ _____    ______ ____
ROOT
ATOM      1  C   UNL     1      -3.281   0.050  -0.074  0.00  0.00    +0.000 C 
ATOM      2  C   UNL     1      -4.054   1.149  -0.061  0.00  0.00    +0.000 C 
ENDROOT
BRANCH   1   7
ATOM      3  C   UNL     1       2.509   0.013  -0.049  0.00  0.00    +0.000 C 
ATOM      4  C   UNL     1       1.010   0.054  -0.075  0.00  0.00    +0.000 A 
ATOM      5  C   UNL     1       0.311   0.983   0.702  0.00  0.00    +0.000 A 
ATOM      6  C   UNL     1      -1.088   0.999   0.703  0.00  0.00    +0.000 A 
ATOM      7  C   UNL     1      -1.812   0.087  -0.073  0.00  0.00    +0.000 A 
ATOM      8  C   UNL     1      -1.110  -0.863  -0.824  0.00  0.00    +0.000 A 
ATOM      9  C   UNL     1       0.288  -0.879  -0.826  0.00  0.00    +0.000 A 
ENDBRANCH   1   7
BRANCH   2  10
ATOM     10  C   UNL     1      -5.523   1.114  -0.081  0.00  0.00    +0.000 A 
ATOM     11  C   UNL     1      -6.256   0.171   0.654  0.00  0.00    +0.000 A 
ATOM     12  C   UNL     1      -7.654   0.187   0.635  0.00  0.00    +0.000 A 
ATOM     13  C   UNL     1      -8.327   1.155  -0.113  0.00  0.00    +0.000 A 
ATOM     14  C   UNL     1      -7.611   2.110  -0.837  0.00  0.00    +0.000 A 
ATOM     15  C   UNL     1      -6.213   2.090  -0.813  0.00  0.00    +0.000 A 
BRANCH  13  16
ATOM     16  C   UNL     1      -9.803   1.180  -0.140  0.00  0.00    +0.000 C 
ATOM     17  O   UNL     1     -10.481   0.369   0.478  0.00  0.00    +0.000 OA
ENDBRANCH  13  16
ENDBRANCH   2  10
TORSDOF 3
