MODEL 1
REMARK VINA RESULT:      -4.9      0.000      0.000
REMARK  Name = *****
REMARK  4 active torsions:
REMARK  status: ('A' for Active; 'I' for Inactive)
REMARK    1  A    between atoms: C_5  and  C_8
REMARK    2  A    between atoms: C_8  and  O_9
REMARK    3  A    between atoms: O_9  and  C_10
REMARK    4  A    between atoms: C_10  and  C_12
REMARK                            x       y       z     vdW  Elec       q    Type
REMARK                         _______ _______ _______ _____ _____    ______ ____
ROOT
ATOM      1  O   UNL     1     100.072 126.635  83.239  0.00  0.00    +0.000 OA
ENDROOT
BRANCH   1   2
ATOM      2  C   UNL     1      98.981 127.373  82.923  0.00  0.00    +0.000 C 
ATOM      3  O   UNL     1      98.156 127.109  82.064  0.00  0.00    +0.000 OA
BRANCH   2   4
ATOM      4  C   UNL     1      98.917 128.596  83.770  0.00  0.00    +0.000 A 
ATOM      5  C   UNL     1      99.451 129.825  83.359  0.00  0.00    +0.000 A 
ATOM      6  C   UNL     1      99.363 130.943  84.195  0.00  0.00    +0.000 A 
ATOM      7  C   UNL     1      98.743 130.839  85.439  0.00  0.00    +0.000 A 
ATOM      8  C   UNL     1      98.210 129.619  85.854  0.00  0.00    +0.000 A 
ATOM      9  C   UNL     1      98.296 128.501  85.023  0.00  0.00    +0.000 A 
ENDBRANCH   2   4
ENDBRANCH   1   2
BRANCH   1  10
ATOM     10  C   UNL     1     100.985 126.329  82.169  0.00  0.00    +0.000 C 
BRANCH  10  15
ATOM     11  C   UNL     1     105.454 125.811  79.816  0.00  0.00    +0.000 C 
ATOM     12  C   UNL     1     104.265 125.948  80.423  0.00  0.00    +0.000 C 
ATOM     13  C   UNL     1     103.484 127.237  80.389  0.00  0.00    +0.000 C 
ATOM     14  C   UNL     1     103.128 127.691  81.807  0.00  0.00    +0.000 C 
ATOM     15  C   UNL     1     102.428 126.593  82.633  0.00  0.00    +0.000 C 
ATOM     16  C   UNL     1     103.266 125.301  82.620  0.00  0.00    +0.000 C 
ATOM     17  C   UNL     1     103.625 124.832  81.208  0.00  0.00    +0.000 C 
ENDBRANCH  10  15
ENDBRANCH   1  10
TORSDOF 4
ENDMDL
