MODEL 1
REMARK VINA RESULT:      -4.3      0.000      0.000
REMARK  Name = *****
REMARK  5 active torsions:
REMARK  status: ('A' for Active; 'I' for Inactive)
REMARK    1  A    between atoms: C_1  and  C_2
REMARK    2  A    between atoms: C_2  and  C_14
REMARK    3  A    between atoms: N_3  and  O_4
REMARK    4  A    between atoms: O_4  and  C_5
REMARK    5  A    between atoms: C_5  and  C_6
REMARK                            x       y       z     vdW  Elec       q    Type
REMARK                         _______ _______ _______ _____ _____    ______ ____
ROOT
ATOM      1  O   UNL     1      89.029  68.379  87.044  0.00  0.00    +0.000 OA
ENDROOT
BRANCH   1   4
ATOM      2  C   UNL     1      91.211  65.882  85.501  0.00  0.00    +0.000 C 
ATOM      3  C   UNL     1      90.045  66.539  86.213  0.00  0.00    +0.000 C 
ATOM      4  N   UNL     1      90.170  67.813  86.455  0.00  0.00    +0.000 NA
BRANCH   3   5
ATOM      5  C   UNL     1      88.896  65.708  86.566  0.00  0.00    +0.000 A 
ATOM      6  C   UNL     1      88.624  65.053  87.755  0.00  0.00    +0.000 A 
ATOM      7  C   UNL     1      87.396  64.331  87.722  0.00  0.00    +0.000 A 
ATOM      8  C   UNL     1      86.764  64.451  86.506  0.00  0.00    +0.000 A 
ATOM      9  S   UNL     1      87.651  65.423  85.416  0.00  0.00    +0.000 S 
ENDBRANCH   3   5
ENDBRANCH   1   4
BRANCH   1  10
ATOM     10  C   UNL     1      89.243  69.777  87.260  0.00  0.00    +0.000 C 
BRANCH  10  11
ATOM     11  C   UNL     1      87.939  70.507  87.382  0.00  0.00    +0.000 A 
ATOM     12  C   UNL     1      87.223  70.900  86.252  0.00  0.00    +0.000 A 
ATOM     13  C   UNL     1      86.012  71.585  86.360  0.00  0.00    +0.000 A 
ATOM     14  C   UNL     1      85.496  71.887  87.619  0.00  0.00    +0.000 A 
ATOM     15  C   UNL     1      86.195  71.498  88.760  0.00  0.00    +0.000 A 
ATOM     16  C   UNL     1      87.404  70.814  88.633  0.00  0.00    +0.000 A 
ATOM     17  F   UNL     1      88.048  70.441  89.747  0.00  0.00    +0.000 F 
ATOM     18  F   UNL     1      87.686  70.611  85.028  0.00  0.00    +0.000 F 
ENDBRANCH  10  11
ENDBRANCH   1  10
TORSDOF 4
ENDMDL
