REMARK  Name = *****
REMARK  2 active torsions:
REMARK  status: ('A' for Active; 'I' for Inactive)
REMARK    1  A    between atoms: C_1  and  C_2
REMARK    2  A    between atoms: C_9  and  C_10
REMARK                            x       y       z     vdW  Elec       q    Type
REMARK                         _______ _______ _______ _____ _____    ______ ____
ROOT
ATOM      1  C   UNL     1       0.920  -0.278   0.036  0.00  0.00    +0.000 C 
ATOM      2  C   UNL     1       2.410  -0.103   0.027  0.00  0.00    +0.000 A 
ATOM      3  C   UNL     1       2.983   1.178   0.016  0.00  0.00    +0.000 A 
ATOM      4  C   UNL     1       4.367   1.304   0.008  0.00  0.00    +0.000 A 
ATOM      5  C   UNL     1       5.180   0.170   0.010  0.00  0.00    +0.000 A 
ATOM      6  C   UNL     1       6.636   0.509   0.006  0.00  0.00    +0.000 C 
ATOM      7  C   UNL     1       6.652   2.045  -0.024  0.00  0.00    +0.000 C 
ATOM      8  C   UNL     1       5.208   2.501  -0.004  0.00  0.00    +0.000 C 
ATOM      9  C   UNL     1       4.761   3.766   0.004  0.00  0.00    +0.000 C 
ATOM     10  C   UNL     1       4.633  -1.105   0.021  0.00  0.00    +0.000 A 
ATOM     11  C   UNL     1       3.243  -1.238   0.029  0.00  0.00    +0.000 A 
ENDROOT
BRANCH   9  12
ATOM     12  C   UNL     1       5.652   4.924  -0.009  0.00  0.00    +0.000 A 
ATOM     13  C   UNL     1       6.114   5.497   1.172  0.00  0.00    +0.000 A 
ATOM     14  N   UNL     1       6.948   6.564   1.224  0.00  0.00    +0.000 NA
ATOM     15  C   UNL     1       7.339   7.082   0.040  0.00  0.00    +0.000 A 
ATOM     16  C   UNL     1       6.938   6.583  -1.190  0.00  0.00    +0.000 A 
ATOM     17  C   UNL     1       6.081   5.486  -1.212  0.00  0.00    +0.000 A 
ENDBRANCH   9  12
TORSDOF 1
