MODEL 1
REMARK VINA RESULT:      -4.9      0.000      0.000
REMARK  Name = *****
REMARK  3 active torsions:
REMARK  status: ('A' for Active; 'I' for Inactive)
REMARK    1  A    between atoms: C_6  and  N_7
REMARK    2  A    between atoms: N_7  and  C_8
REMARK    3  A    between atoms: C_8  and  C_10
REMARK                            x       y       z     vdW  Elec       q    Type
REMARK                         _______ _______ _______ _____ _____    ______ ____
ROOT
ATOM      1  C   UNL     1     102.869 127.495  83.215  0.00  0.00    +0.000 C 
ATOM      2  S   UNL     1     103.959 128.763  83.101  0.00  0.00    +0.000 S 
ENDROOT
BRANCH   1   3
ATOM      3  C   UNL     1     101.405 127.778  83.131  0.00  0.00    +0.000 A 
ATOM      4  C   UNL     1     100.880 128.993  83.586  0.00  0.00    +0.000 A 
ATOM      5  C   UNL     1      99.509 129.214  83.503  0.00  0.00    +0.000 A 
ATOM      6  C   UNL     1      98.654 128.251  82.981  0.00  0.00    +0.000 A 
ATOM      7  C   UNL     1      99.188 127.050  82.535  0.00  0.00    +0.000 A 
ATOM      8  C   UNL     1     100.554 126.799  82.605  0.00  0.00    +0.000 A 
ATOM      9  F   UNL     1      98.375 126.112  82.033  0.00  0.00    +0.000 F 
ATOM     10  F   UNL     1      99.002 130.374  83.940  0.00  0.00    +0.000 F 
ENDBRANCH   1   3
BRANCH   1  11
ATOM     11  N   UNL     1     103.117 126.144  83.433  0.00  0.00    +0.000 N 
ATOM     12  H   UNL     1     102.877 125.836  84.337  0.00  0.00    +0.000 HD
BRANCH  11  18
ATOM     13  C   UNL     1     104.119 123.888  83.046  0.00  0.00    +0.000 A 
ATOM     14  C   UNL     1     104.647 122.961  82.139  0.00  0.00    +0.000 A 
ATOM     15  C   UNL     1     104.712 123.275  80.789  0.00  0.00    +0.000 A 
ATOM     16  C   UNL     1     104.266 124.504  80.327  0.00  0.00    +0.000 A 
ATOM     17  C   UNL     1     103.741 125.428  81.234  0.00  0.00    +0.000 A 
ATOM     18  C   UNL     1     103.646 125.126  82.605  0.00  0.00    +0.000 A 
ATOM     19  F   UNL     1     105.221 122.389  79.925  0.00  0.00    +0.000 F 
ENDBRANCH  11  18
ENDBRANCH   1  11
TORSDOF 3
ENDMDL
