REMARK  Name = *****
REMARK  4 active torsions:
REMARK  status: ('A' for Active; 'I' for Inactive)
REMARK    1  A    between atoms: C_1  and  C_2
REMARK    2  A    between atoms: C_7  and  S_8
REMARK    3  A    between atoms: S_8  and  C_9
REMARK    4  A    between atoms: C_10  and  C_11
REMARK                            x       y       z     vdW  Elec       q    Type
REMARK                         _______ _______ _______ _____ _____    ______ ____
ROOT
ATOM      1  S   UNL     1       0.671  -2.715   1.033  0.00  0.00    +0.000 S 
ENDROOT
BRANCH   1   8
ATOM      2  C   UNL     1       0.277   0.288   2.018  0.00  0.00    +0.000 C 
ATOM      3  C   UNL     1      -0.198  -0.068   0.636  0.00  0.00    +0.000 A 
ATOM      4  C   UNL     1      -0.788   0.930  -0.159  0.00  0.00    +0.000 A 
ATOM      5  C   UNL     1      -1.247   0.644  -1.445  0.00  0.00    +0.000 A 
ATOM      6  C   UNL     1      -1.126  -0.644  -1.956  0.00  0.00    +0.000 A 
ATOM      7  C   UNL     1      -0.542  -1.646  -1.182  0.00  0.00    +0.000 A 
ATOM      8  C   UNL     1      -0.068  -1.369   0.110  0.00  0.00    +0.000 A 
ENDBRANCH   1   8
BRANCH   1   9
ATOM      9  C   UNL     1       2.327  -2.481   0.573  0.00  0.00    +0.000 C 
ATOM     10  C   UNL     1       3.308  -3.204   1.131  0.00  0.00    +0.000 C 
BRANCH  10  11
ATOM     11  C   UNL     1       4.730  -3.062   0.790  0.00  0.00    +0.000 A 
ATOM     12  C   UNL     1       5.317  -1.818   0.518  0.00  0.00    +0.000 A 
ATOM     13  C   UNL     1       6.680  -1.723   0.228  0.00  0.00    +0.000 A 
ATOM     14  C   UNL     1       7.474  -2.869   0.217  0.00  0.00    +0.000 A 
ATOM     15  C   UNL     1       6.906  -4.108   0.502  0.00  0.00    +0.000 A 
ATOM     16  C   UNL     1       5.543  -4.203   0.793  0.00  0.00    +0.000 A 
ENDBRANCH  10  11
ENDBRANCH   1   9
TORSDOF 3
