MODEL 1
REMARK VINA RESULT:      -4.9      0.000      0.000
REMARK  Name = *****
REMARK  3 active torsions:
REMARK  status: ('A' for Active; 'I' for Inactive)
REMARK    1  A    between atoms: C_4  and  C_7
REMARK    2  A    between atoms: C_8  and  C_9
REMARK    3  A    between atoms: C_8  and  C_11
REMARK                            x       y       z     vdW  Elec       q    Type
REMARK                         _______ _______ _______ _____ _____    ______ ____
ROOT
ATOM      1  C   UNL     1     101.929 125.945  82.399  0.00  0.00    +0.000 C 
ATOM      2  C   UNL     1     102.925 126.046  81.497  0.00  0.00    +0.000 C 
ENDROOT
BRANCH   1   6
ATOM      3  C   UNL     1      99.108 128.999  83.359  0.00  0.00    +0.000 A 
ATOM      4  C   UNL     1      98.698 127.849  82.686  0.00  0.00    +0.000 A 
ATOM      5  C   UNL     1      99.626 126.854  82.371  0.00  0.00    +0.000 A 
ATOM      6  C   UNL     1     100.971 127.008  82.723  0.00  0.00    +0.000 A 
ATOM      7  C   UNL     1     101.373 128.159  83.409  0.00  0.00    +0.000 A 
ATOM      8  C   UNL     1     100.445 129.154  83.722  0.00  0.00    +0.000 A 
ENDBRANCH   1   6
BRANCH   2   9
ATOM      9  C   UNL     1     103.836 124.894  81.304  0.00  0.00    +0.000 A 
ATOM     10  C   UNL     1     104.525 124.713  80.096  0.00  0.00    +0.000 A 
ATOM     11  C   UNL     1     105.395 123.632  79.926  0.00  0.00    +0.000 A 
ATOM     12  C   UNL     1     105.585 122.721  80.963  0.00  0.00    +0.000 A 
ATOM     13  C   UNL     1     104.910 122.890  82.169  0.00  0.00    +0.000 A 
ATOM     14  C   UNL     1     104.042 123.972  82.340  0.00  0.00    +0.000 A 
ENDBRANCH   2   9
BRANCH   2  15
ATOM     15  C   UNL     1     103.204 127.254  80.641  0.00  0.00    +0.000 C 
ATOM     16  F   UNL     1     103.937 128.175  81.330  0.00  0.00    +0.000 F 
ENDBRANCH   2  15
TORSDOF 3
ENDMDL
