MODEL 1
REMARK VINA RESULT:      -4.3      0.000      0.000
REMARK  Name = *****
REMARK  3 active torsions:
REMARK  status: ('A' for Active; 'I' for Inactive)
REMARK    1  A    between atoms: C_3  and  C_8
REMARK    2  A    between atoms: C_8  and  S_9
REMARK    3  A    between atoms: S_9  and  C_10
REMARK                            x       y       z     vdW  Elec       q    Type
REMARK                         _______ _______ _______ _____ _____    ______ ____
ROOT
ATOM      1  C   UNL     1      87.738  70.789  85.828  0.00  0.00    +0.000 C 
ENDROOT
BRANCH   1   4
ATOM      2  C   UNL     1      85.393  71.752  88.681  0.00  0.00    +0.000 A 
ATOM      3  C   UNL     1      86.481  71.227  87.980  0.00  0.00    +0.000 A 
ATOM      4  C   UNL     1      86.542  71.321  86.581  0.00  0.00    +0.000 A 
ATOM      5  C   UNL     1      85.495  71.959  85.897  0.00  0.00    +0.000 A 
ATOM      6  C   UNL     1      84.412  72.481  86.603  0.00  0.00    +0.000 A 
ATOM      7  C   UNL     1      84.356  72.380  87.992  0.00  0.00    +0.000 A 
ATOM      8 CL   UNL     1      83.136  73.264  85.754  0.00  0.00    +0.000 Cl
ENDBRANCH   1   4
BRANCH   1   9
ATOM      9  S   UNL     1      89.082  70.356  86.979  0.00  0.00    +0.000 S 
BRANCH   9  10
ATOM     10  C   UNL     1      89.044  68.578  86.875  0.00  0.00    +0.000 A 
ATOM     11  N   UNL     1      88.002  67.916  87.425  0.00  0.00    +0.000 NA
ATOM     12  C   UNL     1      87.997  66.567  87.335  0.00  0.00    +0.000 A 
ATOM     13  C   UNL     1      88.992  65.838  86.717  0.00  0.00    +0.000 A 
ATOM     14  C   UNL     1      90.049  66.544  86.161  0.00  0.00    +0.000 A 
ATOM     15  C   UNL     1      90.088  67.930  86.234  0.00  0.00    +0.000 A 
ATOM     16 CL   UNL     1      91.322  65.694  85.376  0.00  0.00    +0.000 Cl
ENDBRANCH   9  10
ENDBRANCH   1   9
TORSDOF 3
ENDMDL
