REMARK  Name = *****
REMARK  2 active torsions:
REMARK  status: ('A' for Active; 'I' for Inactive)
REMARK    1  A    between atoms: C_4  and  N_7
REMARK    2  A    between atoms: C_8  and  C_9
REMARK                            x       y       z     vdW  Elec       q    Type
REMARK                         _______ _______ _______ _____ _____    ______ ____
ROOT
ATOM      1  N   UNL     1      -2.727   0.378  -0.752  0.00  0.00    +0.000 NA
ATOM      2  C   UNL     1      -3.604  -0.377  -0.151  0.00  0.00    +0.000 C 
ENDROOT
BRANCH   2   3
ATOM      3  C   UNL     1      -5.067  -0.270  -0.406  0.00  0.00    +0.000 C 
ATOM      4  C   UNL     1      -5.501   0.728  -1.304  0.00  0.00    +0.000 C 
ATOM      5  C   UNL     1      -6.852   0.883  -1.586  0.00  0.00    +0.000 C 
ATOM      6  C   UNL     1      -7.768   0.042  -0.973  0.00  0.00    +0.000 C 
ATOM      7  C   UNL     1      -7.324  -0.947  -0.083  0.00  0.00    +0.000 C 
ATOM      8  C   UNL     1      -5.967  -1.158   0.247  0.00  0.00    +0.000 C 
ATOM      9  O   UNL     1      -5.630  -2.081   1.065  0.00  0.00    +0.000 OA
ENDBRANCH   2   3
BRANCH   1  13
ATOM     10  C   UNL     1       1.313  -0.245   0.230  0.00  0.00    +0.000 A 
ATOM     11  C   UNL     1       0.635  -1.187  -0.543  0.00  0.00    +0.000 A 
ATOM     12  C   UNL     1      -0.709  -0.986  -0.867  0.00  0.00    +0.000 A 
ATOM     13  C   UNL     1      -1.387   0.149  -0.412  0.00  0.00    +0.000 A 
ATOM     14  C   UNL     1      -0.696   1.093   0.350  0.00  0.00    +0.000 A 
ATOM     15  C   UNL     1       0.648   0.898   0.675  0.00  0.00    +0.000 A 
ENDBRANCH   1  13
TORSDOF 2
