MODEL 1
REMARK VINA RESULT:      -4.2      0.000      0.000
REMARK  Name = *****
REMARK  4 active torsions:
REMARK  status: ('A' for Active; 'I' for Inactive)
REMARK    1  A    between atoms: C_1  and  O_2
REMARK    2  A    between atoms: O_2  and  C_3
REMARK    3  A    between atoms: C_3  and  C_9
REMARK    4  A    between atoms: C_10  and  C_11
REMARK                            x       y       z     vdW  Elec       q    Type
REMARK                         _______ _______ _______ _____ _____    ______ ____
ROOT
ATOM      1  C   UNL     1     104.556 125.048  81.557  0.00  0.00    +0.000 C 
ATOM      2  C   UNL     1     104.295 123.741  80.820  0.00  0.00    +0.000 C 
ATOM      3  C   UNL     1     104.508 124.990  80.039  0.00  0.00    +0.000 C 
ATOM      4  C   UNL     1     105.714 124.796  79.165  0.00  0.00    +0.000 C 
ATOM      5  C   UNL     1     106.443 123.569  79.720  0.00  0.00    +0.000 C 
ATOM      6  C   UNL     1     105.371 122.761  80.458  0.00  0.00    +0.000 C 
ENDROOT
BRANCH   1   8
ATOM      7  C   UNL     1     106.269 126.482  82.440  0.00  0.00    +0.000 C 
ATOM      8  O   UNL     1     105.871 125.147  82.158  0.00  0.00    +0.000 OA
ENDBRANCH   1   8
BRANCH   1   9
ATOM      9  C   UNL     1     103.377 125.624  82.244  0.00  0.00    +0.000 C 
ATOM     10  C   UNL     1     102.655 126.663  81.791  0.00  0.00    +0.000 C 
BRANCH  10  11
ATOM     11  C   UNL     1     101.474 127.217  82.464  0.00  0.00    +0.000 A 
ATOM     12  C   UNL     1     100.206 126.633  82.360  0.00  0.00    +0.000 A 
ATOM     13  C   UNL     1      99.113 127.176  83.042  0.00  0.00    +0.000 A 
ATOM     14  C   UNL     1      99.281 128.303  83.843  0.00  0.00    +0.000 A 
ATOM     15  C   UNL     1     100.541 128.884  83.969  0.00  0.00    +0.000 A 
ATOM     16  C   UNL     1     101.632 128.340  83.286  0.00  0.00    +0.000 A 
ENDBRANCH  10  11
ENDBRANCH   1   9
TORSDOF 3
ENDMDL
