MODEL 1
REMARK VINA RESULT:      -4.3      0.000      0.000
REMARK  Name = *****
REMARK  4 active torsions:
REMARK  status: ('A' for Active; 'I' for Inactive)
REMARK    1  A    between atoms: C_6  and  C_7
REMARK    2  A    between atoms: C_7  and  C_8
REMARK    3  A    between atoms: C_8  and  O_10
REMARK    4  A    between atoms: O_10  and  C_11
REMARK                            x       y       z     vdW  Elec       q    Type
REMARK                         _______ _______ _______ _____ _____    ______ ____
ROOT
ATOM      1  C   UNL     1      89.470  67.991  86.208  0.00  0.00    +0.000 C 
ATOM      2  O   UNL     1      90.581  67.601  86.545  0.00  0.00    +0.000 OA
ENDROOT
BRANCH   1   3
ATOM      3  C   UNL     1      89.143  69.427  85.876  0.00  0.00    +0.000 C 
BRANCH   3   9
ATOM      4  C   UNL     1      88.858  70.192  88.264  0.00  0.00    +0.000 A 
ATOM      5  C   UNL     1      88.132  70.837  89.268  0.00  0.00    +0.000 A 
ATOM      6  C   UNL     1      86.893  71.401  88.972  0.00  0.00    +0.000 A 
ATOM      7  C   UNL     1      86.375  71.327  87.681  0.00  0.00    +0.000 A 
ATOM      8  C   UNL     1      87.099  70.681  86.677  0.00  0.00    +0.000 A 
ATOM      9  C   UNL     1      88.344  70.104  86.961  0.00  0.00    +0.000 A 
ATOM     10 CL   UNL     1      86.000  72.199  90.208  0.00  0.00    +0.000 Cl
ENDBRANCH   3   9
ENDBRANCH   1   3
BRANCH   1  11
ATOM     11  O   UNL     1      88.326  67.214  86.054  0.00  0.00    +0.000 OA
BRANCH  11  12
ATOM     12  C   UNL     1      88.028  66.446  87.179  0.00  0.00    +0.000 A 
ATOM     13  C   UNL     1      87.034  66.864  88.063  0.00  0.00    +0.000 A 
ATOM     14  C   UNL     1      86.716  66.059  89.157  0.00  0.00    +0.000 A 
ATOM     15  C   UNL     1      87.382  64.844  89.342  0.00  0.00    +0.000 A 
ATOM     16  C   UNL     1      88.361  64.425  88.440  0.00  0.00    +0.000 A 
ATOM     17  C   UNL     1      88.684  65.228  87.345  0.00  0.00    +0.000 A 
ATOM     18 CL   UNL     1      86.984  63.852  90.691  0.00  0.00    +0.000 Cl
ENDBRANCH  11  12
ENDBRANCH   1  11
TORSDOF 4
ENDMDL
