MODEL 1
REMARK VINA RESULT:      -5.0      0.000      0.000
REMARK  Name = *****
REMARK  4 active torsions:
REMARK  status: ('A' for Active; 'I' for Inactive)
REMARK    1  A    between atoms: C_1  and  O_2
REMARK    2  A    between atoms: O_2  and  C_3
REMARK    3  A    between atoms: C_7  and  C_9
REMARK    4  A    between atoms: C_10  and  C_11
REMARK                            x       y       z     vdW  Elec       q    Type
REMARK                         _______ _______ _______ _____ _____    ______ ____
ROOT
ATOM      1  C   UNL     1      98.747 127.526  82.916  0.00  0.00    +0.000 A 
ATOM      2  C   UNL     1      99.106 128.678  83.614  0.00  0.00    +0.000 A 
ATOM      3  C   UNL     1     100.452 129.009  83.743  0.00  0.00    +0.000 A 
ATOM      4  C   UNL     1     101.451 128.216  83.192  0.00  0.00    +0.000 A 
ATOM      5  C   UNL     1     101.096 127.064  82.494  0.00  0.00    +0.000 A 
ATOM      6  C   UNL     1      99.747 126.723  82.357  0.00  0.00    +0.000 A 
ATOM      7  F   UNL     1     100.791 130.117  84.416  0.00  0.00    +0.000 F 
ENDROOT
BRANCH   1   9
ATOM      8  C   UNL     1      96.796 126.520  83.832  0.00  0.00    +0.000 C 
ATOM      9  O   UNL     1      97.470 127.078  82.711  0.00  0.00    +0.000 OA
ENDBRANCH   1   9
BRANCH   5  10
ATOM     10  C   UNL     1     102.112 126.228  81.934  0.00  0.00    +0.000 C 
ATOM     11  C   UNL     1     102.981 125.540  81.470  0.00  0.00    +0.000 C 
BRANCH  11  12
ATOM     12  C   UNL     1     104.033 124.739  80.927  0.00  0.00    +0.000 A 
ATOM     13  C   UNL     1     104.336 123.499  81.494  0.00  0.00    +0.000 A 
ATOM     14  C   UNL     1     105.372 122.724  80.970  0.00  0.00    +0.000 A 
ATOM     15  C   UNL     1     106.107 123.188  79.879  0.00  0.00    +0.000 A 
ATOM     16  C   UNL     1     105.805 124.425  79.309  0.00  0.00    +0.000 A 
ATOM     17  C   UNL     1     104.768 125.200  79.833  0.00  0.00    +0.000 A 
ENDBRANCH  11  12
ENDBRANCH   5  10
TORSDOF 3
ENDMDL
