MODEL 1
REMARK VINA RESULT:      -4.5      0.000      0.000
REMARK  Name = *****
REMARK  5 active torsions:
REMARK  status: ('A' for Active; 'I' for Inactive)
REMARK    1  A    between atoms: C_1  and  O_2
REMARK    2  A    between atoms: O_2  and  C_3
REMARK    3  A    between atoms: C_4  and  C_10
REMARK    4  A    between atoms: C_10  and  C_11
REMARK    5  A    between atoms: C_11  and  C_12
REMARK                            x       y       z     vdW  Elec       q    Type
REMARK                         _______ _______ _______ _____ _____    ______ ____
ROOT
ATOM      1  C   UNL     1      89.642  66.202  86.431  0.00  0.00    +0.000 A 
ATOM      2  C   UNL     1      88.944  67.377  86.800  0.00  0.00    +0.000 A 
ATOM      3  C   UNL     1      87.758  67.246  87.540  0.00  0.00    +0.000 A 
ATOM      4  C   UNL     1      87.269  65.987  87.872  0.00  0.00    +0.000 A 
ATOM      5  C   UNL     1      87.946  64.836  87.500  0.00  0.00    +0.000 A 
ATOM      6  C   UNL     1      89.138  64.943  86.783  0.00  0.00    +0.000 A 
ATOM      7  F   UNL     1      86.131  65.885  88.571  0.00  0.00    +0.000 F 
ENDROOT
BRANCH   1   9
ATOM      8  C   UNL     1      91.475  65.249  85.232  0.00  0.00    +0.000 C 
ATOM      9  O   UNL     1      90.813  66.398  85.743  0.00  0.00    +0.000 OA
ENDBRANCH   1   9
BRANCH   2  10
ATOM     10  C   UNL     1      89.521  68.732  86.422  0.00  0.00    +0.000 C 
BRANCH  10  11
ATOM     11  C   UNL     1      89.318  69.924  87.375  0.00  0.00    +0.000 C 
BRANCH  11  12
ATOM     12  C   UNL     1      87.977  70.620  87.286  0.00  0.00    +0.000 A 
ATOM     13  C   UNL     1      87.432  70.931  86.031  0.00  0.00    +0.000 A 
ATOM     14  C   UNL     1      86.193  71.565  85.929  0.00  0.00    +0.000 A 
ATOM     15  C   UNL     1      85.474  71.880  87.079  0.00  0.00    +0.000 A 
ATOM     16  C   UNL     1      85.993  71.556  88.331  0.00  0.00    +0.000 A 
ATOM     17  C   UNL     1      87.235  70.926  88.434  0.00  0.00    +0.000 A 
ENDBRANCH  11  12
ENDBRANCH  10  11
ENDBRANCH   2  10
TORSDOF 4
ENDMDL
