REMARK  Name = *****
REMARK  7 active torsions:
REMARK  status: ('A' for Active; 'I' for Inactive)
REMARK    1  A    between atoms: C_1  and  C_2
REMARK    2  A    between atoms: C_5  and  C_7
REMARK    3  A    between atoms: C_7  and  C_8
REMARK    4  A    between atoms: C_8  and  C_9
REMARK    5  A    between atoms: C_9  and  C_10
REMARK    6  A    between atoms: C_10  and  C_11
REMARK    7  A    between atoms: C_13  and  C_16
REMARK                            x       y       z     vdW  Elec       q    Type
REMARK                         _______ _______ _______ _____ _____    ______ ____
ROOT
ATOM      1  C   UNL     1      -2.925   2.201  -0.290  0.00  0.00    +0.000 C 
ENDROOT
BRANCH   1   2
ATOM      2  C   UNL     1      -1.427   2.441  -0.079  0.00  0.00    +0.000 C 
BRANCH   2   7
ATOM      3  C   UNL     1       1.200  -1.706  -1.638  0.00  0.00    +0.000 C 
ATOM      4  C   UNL     1       0.537  -0.757  -0.699  0.00  0.00    +0.000 A 
ATOM      5  C   UNL     1       0.476  -0.911   0.673  0.00  0.00    +0.000 A 
ATOM      6  S   UNL     1      -0.360   0.363   1.445  0.00  0.00    +0.000 S 
ATOM      7  C   UNL     1      -0.665   1.148  -0.043  0.00  0.00    +0.000 A 
ATOM      8  C   UNL     1      -0.130   0.444  -1.104  0.00  0.00    +0.000 A 
ENDBRANCH   2   7
ENDBRANCH   1   2
BRANCH   1   9
ATOM      9  C   UNL     1      -3.754   3.488  -0.261  0.00  0.00    +0.000 C 
BRANCH   9  10
ATOM     10  C   UNL     1      -3.471   4.417  -1.445  0.00  0.00    +0.000 C 
BRANCH  10  11
ATOM     11  C   UNL     1      -4.393   5.602  -1.446  0.00  0.00    +0.000 A 
ATOM     12  C   UNL     1      -5.635   5.714  -2.038  0.00  0.00    +0.000 A 
ATOM     13  C   UNL     1      -6.237   6.998  -1.836  0.00  0.00    +0.000 A 
ATOM     14  C   UNL     1      -5.406   7.815  -1.092  0.00  0.00    +0.000 A 
ATOM     15  S   UNL     1      -3.946   7.048  -0.650  0.00  0.00    +0.000 S 
ATOM     16  C   UNL     1      -7.572   7.404  -2.359  0.00  0.00    +0.000 C 
ENDBRANCH  10  11
ENDBRANCH   9  10
ENDBRANCH   1   9
TORSDOF 5
