REMARK  Name = *****
REMARK  2 active torsions:
REMARK  status: ('A' for Active; 'I' for Inactive)
REMARK    1  A    between atoms: C_1  and  C_2
REMARK    2  A    between atoms: C_11  and  C_13
REMARK                            x       y       z     vdW  Elec       q    Type
REMARK                         _______ _______ _______ _____ _____    ______ ____
ROOT
ATOM      1  C   UNL     1       1.261   0.483  -0.760  0.00  0.00    +0.000 C 
ATOM      2  C   UNL     1       2.527  -0.049  -0.095  0.00  0.00    +0.000 C 
ATOM      3  C   UNL     1       2.434   0.084   1.429  0.00  0.00    +0.000 C 
ATOM      4  C   UNL     1       3.535  -0.673   2.116  0.00  0.00    +0.000 A 
ATOM      5  C   UNL     1       4.505  -0.015   2.884  0.00  0.00    +0.000 A 
ATOM      6  C   UNL     1       5.513  -0.744   3.514  0.00  0.00    +0.000 A 
ATOM      7  C   UNL     1       5.553  -2.131   3.385  0.00  0.00    +0.000 A 
ATOM      8  C   UNL     1       4.586  -2.786   2.621  0.00  0.00    +0.000 A 
ATOM      9  C   UNL     1       3.580  -2.067   1.973  0.00  0.00    +0.000 A 
ATOM     10  N   UNL     1       2.611  -2.778   1.249  0.00  0.00    +0.000 NA
ATOM     11  C   UNL     1       2.308  -2.427   0.040  0.00  0.00    +0.000 C 
ATOM     12  O   UNL     1       2.799  -1.358  -0.622  0.00  0.00    +0.000 OA
ATOM     13  F   UNL     1       3.556   0.742  -0.527  0.00  0.00    +0.000 F 
ENDROOT
BRANCH  11  14
ATOM     14  C   UNL     1       1.377  -3.209  -0.813  0.00  0.00    +0.000 A 
ATOM     15  C   UNL     1       0.552  -4.168  -0.211  0.00  0.00    +0.000 A 
ATOM     16  C   UNL     1      -0.342  -4.914  -0.982  0.00  0.00    +0.000 A 
ATOM     17  C   UNL     1      -0.414  -4.708  -2.359  0.00  0.00    +0.000 A 
ATOM     18  C   UNL     1       0.408  -3.760  -2.968  0.00  0.00    +0.000 A 
ATOM     19  C   UNL     1       1.303  -3.012  -2.199  0.00  0.00    +0.000 A 
ENDBRANCH  11  14
TORSDOF 1
