MODEL 1
REMARK VINA RESULT:      -3.9      0.000      0.000
REMARK  Name = *****
REMARK  2 active torsions:
REMARK  status: ('A' for Active; 'I' for Inactive)
REMARK    1  A    between atoms: C_4  and  P_7
REMARK    2  A    between atoms: P_7  and  C_8
REMARK                            x       y       z     vdW  Elec       q    Type
REMARK                         _______ _______ _______ _____ _____    ______ ____
ROOT
ATOM      1  P   UNL     1     102.109 126.003  84.053  0.00  0.00    +0.000 P 
ATOM      2  S   UNL     1     103.549 127.065  85.093  0.00  0.00    +0.000 S 
ENDROOT
BRANCH   1   6
ATOM      3  C   UNL     1      99.018 129.406  83.035  0.00  0.00    +0.000 C 
ATOM      4  C   UNL     1      98.620 127.965  82.739  0.00  0.00    +0.000 C 
ATOM      5  C   UNL     1      99.830 127.032  82.759  0.00  0.00    +0.000 C 
ATOM      6  C   UNL     1     100.597 127.109  84.096  0.00  0.00    +0.000 C 
ATOM      7  C   UNL     1     100.990 128.574  84.377  0.00  0.00    +0.000 C 
ATOM      8  C   UNL     1      99.781 129.507  84.350  0.00  0.00    +0.000 C 
ENDBRANCH   1   6
BRANCH   1   9
ATOM      9  C   UNL     1     102.645 126.058  82.266  0.00  0.00    +0.000 C 
ATOM     10  C   UNL     1     103.575 124.877  81.928  0.00  0.00    +0.000 C 
ATOM     11  C   UNL     1     103.924 124.844  80.441  0.00  0.00    +0.000 C 
ATOM     12  C   UNL     1     104.520 126.167  79.974  0.00  0.00    +0.000 C 
ATOM     13  C   UNL     1     103.603 127.340  80.302  0.00  0.00    +0.000 C 
ATOM     14  C   UNL     1     103.254 127.386  81.790  0.00  0.00    +0.000 C 
ENDBRANCH   1   9
TORSDOF 2
ENDMDL
