MODEL 1
REMARK VINA RESULT:      -3.2      0.000      0.000
REMARK  Name = *****
REMARK  3 active torsions:
REMARK  status: ('A' for Active; 'I' for Inactive)
REMARK    1  A    between atoms: C_4  and  S_6
REMARK    2  A    between atoms: S_6  and  S_7
REMARK    3  A    between atoms: S_7  and  C_8
REMARK                            x       y       z     vdW  Elec       q    Type
REMARK                         _______ _______ _______ _____ _____    ______ ____
ROOT
ATOM      1  S   UNL     1     102.850 127.706  83.019  0.00  0.00    +0.000 S 
ENDROOT
BRANCH   1   5
ATOM      2  C   UNL     1      98.928 126.911  82.503  0.00  0.00    +0.000 A 
ATOM      3  C   UNL     1      98.681 128.081  83.186  0.00  0.00    +0.000 A 
ATOM      4  S   UNL     1     100.127 128.866  83.656  0.00  0.00    +0.000 S 
ATOM      5  C   UNL     1     101.095 127.635  82.966  0.00  0.00    +0.000 A 
ATOM      6  C   UNL     1     100.325 126.657  82.369  0.00  0.00    +0.000 A 
ENDBRANCH   1   5
BRANCH   1   7
ATOM      7  S   UNL     1     103.271 127.208  81.065  0.00  0.00    +0.000 S 
BRANCH   7   8
ATOM      8  C   UNL     1     103.789 125.548  81.313  0.00  0.00    +0.000 A 
ATOM      9  C   UNL     1     104.266 124.693  80.340  0.00  0.00    +0.000 A 
ATOM     10  C   UNL     1     104.611 123.414  80.868  0.00  0.00    +0.000 A 
ATOM     11  C   UNL     1     104.398 123.343  82.227  0.00  0.00    +0.000 A 
ATOM     12  S   UNL     1     103.790 124.812  82.858  0.00  0.00    +0.000 S 
ENDBRANCH   7   8
ENDBRANCH   1   7
TORSDOF 3
ENDMDL
