MODEL 1
REMARK VINA RESULT:      -4.3      0.000      0.000
REMARK  Name = *****
REMARK  4 active torsions:
REMARK  status: ('A' for Active; 'I' for Inactive)
REMARK    1  A    between atoms: C_4  and  O_9
REMARK    2  A    between atoms: C_5  and  S_8
REMARK    3  A    between atoms: O_9  and  C_10
REMARK    4  A    between atoms: C_10  and  C_12
REMARK                            x       y       z     vdW  Elec       q    Type
REMARK                         _______ _______ _______ _____ _____    ______ ____
ROOT
ATOM      1  C   UNL     1      98.514 127.933  82.661  0.00  0.00    +0.000 C 
ATOM      2  C   UNL     1      99.165 126.572  82.453  0.00  0.00    +0.000 C 
ATOM      3  C   UNL     1     100.681 126.605  82.276  0.00  0.00    +0.000 C 
ATOM      4  C   UNL     1     101.443 126.767  83.599  0.00  0.00    +0.000 C 
ATOM      5  C   UNL     1     101.549 128.218  84.120  0.00  0.00    +0.000 C 
ATOM      6  C   UNL     1     100.434 129.198  83.745  0.00  0.00    +0.000 C 
ATOM      7  C   UNL     1      99.002 128.689  83.892  0.00  0.00    +0.000 C 
ENDROOT
BRANCH   5   8
ATOM      8  S   UNL     1     101.766 128.196  85.955  0.00  0.00    +0.000 S 
ATOM      9  H   UNL     1     102.154 129.428  86.380  0.00  0.00    +0.000 HD
ENDBRANCH   5   8
BRANCH   4  10
ATOM     10  O   UNL     1     102.811 126.335  83.366  0.00  0.00    +0.000 OA
BRANCH  10  11
ATOM     11  C   UNL     1     103.148 125.086  83.768  0.00  0.00    +0.000 C 
ATOM     12  O   UNL     1     102.918 124.599  84.863  0.00  0.00    +0.000 OA
BRANCH  11  13
ATOM     13  C   UNL     1     103.810 124.352  82.654  0.00  0.00    +0.000 A 
ATOM     14  C   UNL     1     103.834 124.950  81.386  0.00  0.00    +0.000 A 
ATOM     15  C   UNL     1     104.460 124.306  80.317  0.00  0.00    +0.000 A 
ATOM     16  C   UNL     1     105.062 123.062  80.505  0.00  0.00    +0.000 A 
ATOM     17  C   UNL     1     105.039 122.459  81.761  0.00  0.00    +0.000 A 
ATOM     18  C   UNL     1     104.414 123.099  82.834  0.00  0.00    +0.000 A 
ENDBRANCH  11  13
ENDBRANCH  10  11
ENDBRANCH   4  10
TORSDOF 4
ENDMDL
