MODEL 1
REMARK VINA RESULT:      -5.3      0.000      0.000
REMARK  Name = *****
REMARK  1 active torsions:
REMARK  status: ('A' for Active; 'I' for Inactive)
REMARK    1  A    between atoms: C_6  and  C_11
REMARK                            x       y       z     vdW  Elec       q    Type
REMARK                         _______ _______ _______ _____ _____    ______ ____
ROOT
ATOM      1  C   UNL     1      99.418 130.386  84.452  0.00  0.00    +0.000 A 
ATOM      2  C   UNL     1     100.763 130.367  84.487  0.00  0.00    +0.000 A 
ATOM      3  C   UNL     1     101.179 129.142  83.821  0.00  0.00    +0.000 A 
ATOM      4  C   UNL     1     102.452 128.772  83.657  0.00  0.00    +0.000 A 
ATOM      5  C   UNL     1     102.958 127.579  83.011  0.00  0.00    +0.000 A 
ATOM      6  C   UNL     1     102.307 126.557  82.422  0.00  0.00    +0.000 A 
ATOM      7  C   UNL     1     100.866 126.391  82.285  0.00  0.00    +0.000 A 
ATOM      8  C   UNL     1      99.863 127.180  82.690  0.00  0.00    +0.000 A 
ATOM      9  C   UNL     1      99.987 128.429  83.386  0.00  0.00    +0.000 A 
ATOM     10  C   UNL     1      98.944 129.192  83.774  0.00  0.00    +0.000 A 
ENDROOT
BRANCH   6  11
ATOM     11  C   UNL     1     103.199 125.508  81.867  0.00  0.00    +0.000 C 
ATOM     12  C   UNL     1     103.595 125.545  80.531  0.00  0.00    +0.000 C 
ATOM     13  C   UNL     1     104.446 124.553  80.022  0.00  0.00    +0.000 C 
ATOM     14  C   UNL     1     104.945 123.491  80.800  0.00  0.00    +0.000 C 
ATOM     15  C   UNL     1     104.523 123.498  82.142  0.00  0.00    +0.000 C 
ATOM     16  C   UNL     1     103.673 124.477  82.676  0.00  0.00    +0.000 C 
ATOM     17  O   UNL     1     105.717 122.594  80.325  0.00  0.00    +0.000 OA
ENDBRANCH   6  11
TORSDOF 1
ENDMDL
