REMARK  Name = *****
REMARK  5 active torsions:
REMARK  status: ('A' for Active; 'I' for Inactive)
REMARK    1  A    between atoms: C_1  and  C_2
REMARK    2  A    between atoms: C_7  and  C_8
REMARK    3  A    between atoms: C_8  and  C_9
REMARK    4  A    between atoms: C_8  and  S_10
REMARK    5  A    between atoms: S_10  and  C_12
REMARK                            x       y       z     vdW  Elec       q    Type
REMARK                         _______ _______ _______ _____ _____    ______ ____
ROOT
ATOM      1  C   UNL     1       1.189  -2.488   0.211  0.00  0.00    +0.000 C 
ATOM      2  C   UNL     1       0.810  -3.406  -0.949  0.00  0.00    +0.000 C 
ENDROOT
BRANCH   1   9
ATOM      3  C   UNL     1      -0.097  -0.740  -2.115  0.00  0.00    +0.000 C 
ATOM      4  C   UNL     1      -0.069  -0.349  -0.663  0.00  0.00    +0.000 A 
ATOM      5  C   UNL     1      -0.672   0.885  -0.334  0.00  0.00    +0.000 A 
ATOM      6  C   UNL     1      -0.713   1.354   0.977  0.00  0.00    +0.000 A 
ATOM      7  C   UNL     1      -0.157   0.594   1.993  0.00  0.00    +0.000 A 
ATOM      8  C   UNL     1       0.436  -0.630   1.691  0.00  0.00    +0.000 A 
ATOM      9  C   UNL     1       0.496  -1.135   0.367  0.00  0.00    +0.000 A 
ENDBRANCH   1   9
BRANCH   1  10
ATOM     10  S   UNL     1       3.023  -2.363   0.427  0.00  0.00    +0.000 S 
ATOM     11  O   UNL     1       3.592  -3.749   0.317  0.00  0.00    +0.000 OA
BRANCH  10  12
ATOM     12  C   UNL     1       3.486  -1.505  -1.088  0.00  0.00    +0.000 A 
ATOM     13  C   UNL     1       3.427  -0.108  -1.139  0.00  0.00    +0.000 A 
ATOM     14  C   UNL     1       3.806   0.572  -2.298  0.00  0.00    +0.000 A 
ATOM     15  C   UNL     1       4.262  -0.140  -3.406  0.00  0.00    +0.000 A 
ATOM     16  C   UNL     1       4.346  -1.530  -3.355  0.00  0.00    +0.000 A 
ATOM     17  C   UNL     1       3.966  -2.211  -2.197  0.00  0.00    +0.000 A 
ENDBRANCH  10  12
ENDBRANCH   1  10
TORSDOF 3
