REMARK  Name = *****
REMARK  4 active torsions:
REMARK  status: ('A' for Active; 'I' for Inactive)
REMARK    1  A    between atoms: C_1  and  C_2
REMARK    2  A    between atoms: C_3  and  O_9
REMARK    3  A    between atoms: O_9  and  C_10
REMARK    4  A    between atoms: C_10  and  C_12
REMARK                            x       y       z     vdW  Elec       q    Type
REMARK                         _______ _______ _______ _____ _____    ______ ____
ROOT
ATOM      1  C   UNL     1      -3.253  -2.481  -0.140  0.00  0.00    +0.000 C 
ATOM      2  O   UNL     1      -2.931  -2.671  -1.304  0.00  0.00    +0.000 OA
ENDROOT
BRANCH   1   3
ATOM      3  C   UNL     1      -4.447  -3.116   0.463  0.00  0.00    +0.000 A 
ATOM      4  C   UNL     1      -4.604  -3.279   1.843  0.00  0.00    +0.000 A 
ATOM      5  C   UNL     1      -5.744  -3.885   2.365  0.00  0.00    +0.000 A 
ATOM      6  C   UNL     1      -6.729  -4.339   1.498  0.00  0.00    +0.000 A 
ATOM      7  C   UNL     1      -6.591  -4.202   0.121  0.00  0.00    +0.000 A 
ATOM      8  C   UNL     1      -5.447  -3.593  -0.400  0.00  0.00    +0.000 A 
ATOM      9  F   UNL     1      -7.826  -4.924   1.995  0.00  0.00    +0.000 F 
ATOM     10  F   UNL     1      -3.658  -2.882   2.705  0.00  0.00    +0.000 F 
ENDBRANCH   1   3
BRANCH   1  11
ATOM     11  O   UNL     1      -2.657  -1.629   0.766  0.00  0.00    +0.000 OA
BRANCH  11  14
ATOM     12  C   UNL     1      -2.962   1.072  -0.162  0.00  0.00    +0.000 C 
ATOM     13  C   UNL     1      -1.644   0.356  -0.177  0.00  0.00    +0.000 A 
ATOM     14  C   UNL     1      -1.532  -0.973   0.253  0.00  0.00    +0.000 A 
ATOM     15  C   UNL     1      -0.306  -1.643   0.260  0.00  0.00    +0.000 A 
ATOM     16  C   UNL     1       0.832  -0.990  -0.210  0.00  0.00    +0.000 A 
ATOM     17  C   UNL     1       0.734   0.324  -0.667  0.00  0.00    +0.000 A 
ATOM     18  C   UNL     1      -0.492   0.996  -0.653  0.00  0.00    +0.000 A 
ATOM     19 CL   UNL     1       2.139   1.130  -1.249  0.00  0.00    +0.000 Cl
ENDBRANCH  11  14
ENDBRANCH   1  11
TORSDOF 3
