MODEL 1
REMARK VINA RESULT:      -4.6      0.000      0.000
REMARK  Name = *****
REMARK  6 active torsions:
REMARK  status: ('A' for Active; 'I' for Inactive)
REMARK    1  A    between atoms: C_1  and  C_2
REMARK    2  A    between atoms: C_4  and  C_17
REMARK    3  A    between atoms: C_5  and  C_8
REMARK    4  A    between atoms: C_8  and  N_9
REMARK    5  A    between atoms: N_9  and  C_10
REMARK    6  A    between atoms: C_10  and  C_11
REMARK                            x       y       z     vdW  Elec       q    Type
REMARK                         _______ _______ _______ _____ _____    ______ ____
ROOT
ATOM      1  C   UNL     1      88.795  64.308  86.549  0.00  0.00    +0.000 C 
ENDROOT
BRANCH   1   6
ATOM      2  C   UNL     1      89.094  70.132  87.013  0.00  0.00    +0.000 C 
ATOM      3  C   UNL     1      89.030  68.640  86.888  0.00  0.00    +0.000 A 
ATOM      4  C   UNL     1      90.050  67.922  86.255  0.00  0.00    +0.000 A 
ATOM      5  C   UNL     1      89.993  66.521  86.137  0.00  0.00    +0.000 A 
ATOM      6  C   UNL     1      88.895  65.818  86.681  0.00  0.00    +0.000 A 
ATOM      7  C   UNL     1      87.874  66.551  87.308  0.00  0.00    +0.000 A 
ATOM      8  C   UNL     1      87.941  67.942  87.415  0.00  0.00    +0.000 A 
ATOM      9  C   UNL     1      91.121  65.804  85.445  0.00  0.00    +0.000 C 
ENDBRANCH   1   6
BRANCH   1  10
ATOM     10  N   UNL     1      87.479  63.762  86.922  0.00  0.00    +0.000 NA
BRANCH  10  11
ATOM     11  C   UNL     1      87.519  62.949  87.922  0.00  0.00    +0.000 C 
BRANCH  11  12
ATOM     12  C   UNL     1      87.690  63.427  89.309  0.00  0.00    +0.000 A 
ATOM     13  C   UNL     1      88.966  63.605  89.852  0.00  0.00    +0.000 A 
ATOM     14  C   UNL     1      89.104  64.060  91.164  0.00  0.00    +0.000 A 
ATOM     15  C   UNL     1      87.971  64.337  91.928  0.00  0.00    +0.000 A 
ATOM     16  C   UNL     1      86.697  64.160  91.385  0.00  0.00    +0.000 A 
ATOM     17  C   UNL     1      86.554  63.703  90.073  0.00  0.00    +0.000 A 
ENDBRANCH  11  12
ENDBRANCH  10  11
ENDBRANCH   1  10
TORSDOF 4
ENDMDL
