REMARK  Name = *****
REMARK  4 active torsions:
REMARK  status: ('A' for Active; 'I' for Inactive)
REMARK    1  A    between atoms: C_1  and  N_2
REMARK    2  A    between atoms: N_2  and  C_3
REMARK    3  A    between atoms: N_2  and  C_9
REMARK    4  A    between atoms: C_9  and  C_11
REMARK                            x       y       z     vdW  Elec       q    Type
REMARK                         _______ _______ _______ _____ _____    ______ ____
ROOT
ATOM      1  C   UNL     1       3.573   0.314  -1.313  0.00  0.00    +0.000 C 
ATOM      2  N   UNL     1       3.197  -0.570  -0.203  0.00  0.00    +0.000 N 
ENDROOT
BRANCH   2   3
ATOM      3  C   UNL     1       2.391  -1.688  -0.559  0.00  0.00    +0.000 A 
ATOM      4  C   UNL     1       1.528  -1.678  -1.669  0.00  0.00    +0.000 A 
ATOM      5  C   UNL     1       0.756  -2.797  -2.007  0.00  0.00    +0.000 A 
ATOM      6  C   UNL     1       0.832  -3.957  -1.242  0.00  0.00    +0.000 A 
ATOM      7  C   UNL     1       1.679  -3.997  -0.140  0.00  0.00    +0.000 A 
ATOM      8  C   UNL     1       2.446  -2.877   0.193  0.00  0.00    +0.000 A 
ENDBRANCH   2   3
BRANCH   2   9
ATOM      9  C   UNL     1       3.505  -0.232   1.123  0.00  0.00    +0.000 C 
ATOM     10  C   UNL     1       2.636  -0.333   2.147  0.00  0.00    +0.000 C 
BRANCH   9  11
ATOM     11  C   UNL     1       4.860   0.250   1.415  0.00  0.00    +0.000 C 
ATOM     12  C   UNL     1       5.096   1.467   1.944  0.00  0.00    +0.000 C 
ATOM     13  C   UNL     1       6.470   1.990   2.242  0.00  0.00    +0.000 C 
ATOM     14  C   UNL     1       7.587   1.155   1.616  0.00  0.00    +0.000 C 
ATOM     15  C   UNL     1       7.306  -0.337   1.762  0.00  0.00    +0.000 C 
ATOM     16  C   UNL     1       5.980  -0.715   1.096  0.00  0.00    +0.000 C 
ENDBRANCH   9  11
ENDBRANCH   2   9
TORSDOF 3
