MODEL 1
REMARK VINA RESULT:      -4.7      0.000      0.000
REMARK  Name = *****
REMARK  6 active torsions:
REMARK  status: ('A' for Active; 'I' for Inactive)
REMARK    1  A    between atoms: C_1  and  C_2
REMARK    2  A    between atoms: C_2  and  C_3
REMARK    3  A    between atoms: C_2  and  C_11
REMARK    4  A    between atoms: C_2  and  O_17
REMARK    5  A    between atoms: C_3  and  C_4
REMARK    6  A    between atoms: O_17  and  O_18
REMARK                            x       y       z     vdW  Elec       q    Type
REMARK                         _______ _______ _______ _____ _____    ______ ____
ROOT
ATOM      1  C   UNL     1     104.684 126.506  82.622  0.00  0.00    +0.000 C 
ATOM      2  C   UNL     1     103.526 126.723  81.628  0.00  0.00    +0.000 C 
ENDROOT
BRANCH   2   3
ATOM      3  C   UNL     1     102.231 127.203  82.310  0.00  0.00    +0.000 A 
ATOM      4  C   UNL     1     101.046 126.449  82.183  0.00  0.00    +0.000 A 
ATOM      5  C   UNL     1      99.862 126.841  82.810  0.00  0.00    +0.000 A 
ATOM      6  C   UNL     1      99.836 127.991  83.592  0.00  0.00    +0.000 A 
ATOM      7  C   UNL     1     100.994 128.746  83.746  0.00  0.00    +0.000 A 
ATOM      8  C   UNL     1     102.179 128.356  83.114  0.00  0.00    +0.000 A 
ENDBRANCH   2   3
BRANCH   2   9
ATOM      9  C   UNL     1     103.244 125.460  80.759  0.00  0.00    +0.000 C 
BRANCH   9  10
ATOM     10  C   UNL     1     104.393 124.488  80.580  0.00  0.00    +0.000 A 
ATOM     11  C   UNL     1     104.473 123.327  81.365  0.00  0.00    +0.000 A 
ATOM     12  C   UNL     1     105.537 122.439  81.209  0.00  0.00    +0.000 A 
ATOM     13  C   UNL     1     106.520 122.707  80.264  0.00  0.00    +0.000 A 
ATOM     14  C   UNL     1     106.456 123.846  79.471  0.00  0.00    +0.000 A 
ATOM     15  C   UNL     1     105.393 124.736  79.625  0.00  0.00    +0.000 A 
ATOM     16  F   UNL     1     107.543 121.856  80.116  0.00  0.00    +0.000 F 
ENDBRANCH   9  10
ENDBRANCH   2   9
BRANCH   2  17
ATOM     17  O   UNL     1     103.919 127.821  80.750  0.00  0.00    +0.000 OA
BRANCH  17  18
ATOM     18  O   UNL     1     103.329 127.602  79.434  0.00  0.00    +0.000 OA
ATOM     19  H   UNL     1     103.527 128.360  78.861  0.00  0.00    +0.000 HD
ENDBRANCH  17  18
ENDBRANCH   2  17
TORSDOF 5
ENDMDL
