MODEL 1
REMARK VINA RESULT:      -4.3      0.000      0.000
REMARK  Name = *****
REMARK  3 active torsions:
REMARK  status: ('A' for Active; 'I' for Inactive)
REMARK    1  A    between atoms: C_4  and  C_7
REMARK    2  A    between atoms: C_7  and  S_8
REMARK    3  A    between atoms: S_8  and  C_9
REMARK                            x       y       z     vdW  Elec       q    Type
REMARK                         _______ _______ _______ _____ _____    ______ ____
ROOT
ATOM      1  S   UNL     1     103.037 127.135  83.636  0.00  0.00    +0.000 S 
ENDROOT
BRANCH   1   2
ATOM      2  C   UNL     1     101.347 127.641  83.342  0.00  0.00    +0.000 A 
ATOM      3  C   UNL     1     100.501 126.686  82.754  0.00  0.00    +0.000 A 
ATOM      4  C   UNL     1      99.160 126.976  82.480  0.00  0.00    +0.000 A 
ATOM      5  C   UNL     1      98.649 128.231  82.791  0.00  0.00    +0.000 A 
ATOM      6  C   UNL     1      99.482 129.178  83.372  0.00  0.00    +0.000 A 
ATOM      7  C   UNL     1     100.819 128.897  83.649  0.00  0.00    +0.000 A 
ATOM      8  F   UNL     1      98.993 130.388  83.672  0.00  0.00    +0.000 F 
ENDBRANCH   1   2
BRANCH   1   9
ATOM      9  C   UNL     1     102.931 125.319  83.753  0.00  0.00    +0.000 C 
BRANCH   9  13
ATOM     10  C   UNL     1     104.934 123.402  80.447  0.00  0.00    +0.000 A 
ATOM     11  C   UNL     1     104.252 124.602  80.249  0.00  0.00    +0.000 A 
ATOM     12  C   UNL     1     103.605 125.223  81.318  0.00  0.00    +0.000 A 
ATOM     13  C   UNL     1     103.638 124.653  82.599  0.00  0.00    +0.000 A 
ATOM     14  C   UNL     1     104.319 123.440  82.784  0.00  0.00    +0.000 A 
ATOM     15  C   UNL     1     104.965 122.821  81.713  0.00  0.00    +0.000 A 
ENDBRANCH   9  13
ENDBRANCH   1   9
TORSDOF 3
ENDMDL
