MODEL 1
REMARK VINA RESULT:      -4.8      0.000      0.000
REMARK  Name = *****
REMARK  3 active torsions:
REMARK  status: ('A' for Active; 'I' for Inactive)
REMARK    1  A    between atoms: C_1  and  C_2
REMARK    2  A    between atoms: C_5  and  C_8
REMARK    3  A    between atoms: N_10  and  C_11
REMARK                            x       y       z     vdW  Elec       q    Type
REMARK                         _______ _______ _______ _____ _____    ______ ____
ROOT
ATOM      1  C   UNL     1      88.420  68.475  86.903  0.00  0.00    +0.000 A 
ATOM      2  C   UNL     1      87.633  67.465  87.489  0.00  0.00    +0.000 A 
ATOM      3  C   UNL     1      88.010  66.125  87.447  0.00  0.00    +0.000 A 
ATOM      4  C   UNL     1      89.185  65.756  86.815  0.00  0.00    +0.000 A 
ATOM      5  C   UNL     1      89.981  66.724  86.226  0.00  0.00    +0.000 A 
ATOM      6  C   UNL     1      89.605  68.067  86.268  0.00  0.00    +0.000 A 
ATOM      7  F   UNL     1      90.413  68.962  85.677  0.00  0.00    +0.000 F 
ATOM      8  F   UNL     1      91.119  66.371  85.612  0.00  0.00    +0.000 F 
ATOM      9  F   UNL     1      89.550  64.466  86.771  0.00  0.00    +0.000 F 
ATOM     10  F   UNL     1      87.233  65.193  88.017  0.00  0.00    +0.000 F 
ATOM     11  F   UNL     1      86.485  67.789  88.106  0.00  0.00    +0.000 F 
ENDROOT
BRANCH   1  14
ATOM     12  C   UNL     1      86.888  70.281  86.086  0.00  0.00    +0.000 C 
ATOM     13  C   UNL     1      88.295  70.806  85.999  0.00  0.00    +0.000 C 
ATOM     14  N   UNL     1      87.942  69.809  87.006  0.00  0.00    +0.000 N 
BRANCH  12  19
ATOM     15  C   UNL     1      82.614  73.636  88.249  0.00  0.00    +0.000 C 
ATOM     16  C   UNL     1      83.730  72.800  87.698  0.00  0.00    +0.000 A 
ATOM     17  C   UNL     1      83.894  72.653  86.317  0.00  0.00    +0.000 A 
ATOM     18  C   UNL     1      84.917  71.847  85.807  0.00  0.00    +0.000 A 
ATOM     19  C   UNL     1      85.802  71.159  86.654  0.00  0.00    +0.000 A 
ATOM     20  C   UNL     1      85.609  71.303  88.038  0.00  0.00    +0.000 A 
ATOM     21  C   UNL     1      84.589  72.106  88.555  0.00  0.00    +0.000 A 
ENDBRANCH  12  19
ENDBRANCH   1  14
TORSDOF 2
ENDMDL
