MODEL 1
REMARK VINA RESULT:      -4.4      0.000      0.000
REMARK  Name = *****
REMARK  4 active torsions:
REMARK  status: ('A' for Active; 'I' for Inactive)
REMARK    1  A    between atoms: C_1  and  C_2
REMARK    2  A    between atoms: C_4  and  S_8
REMARK    3  A    between atoms: S_8  and  N_9
REMARK    4  A    between atoms: N_9  and  C_10
REMARK                            x       y       z     vdW  Elec       q    Type
REMARK                         _______ _______ _______ _____ _____    ______ ____
ROOT
ATOM      1  N   UNL     1      87.642  62.659  87.696  0.00  0.00    +0.000 N 
ATOM      2  H   UNL     1      87.880  61.724  87.500  0.00  0.00    +0.000 HD
ENDROOT
BRANCH   1   3
ATOM      3  C   UNL     1      87.775  63.129  89.024  0.00  0.00    +0.000 A 
ATOM      4  C   UNL     1      89.000  63.495  89.600  0.00  0.00    +0.000 A 
ATOM      5  C   UNL     1      89.063  64.017  90.898  0.00  0.00    +0.000 A 
ATOM      6  C   UNL     1      87.894  64.202  91.628  0.00  0.00    +0.000 A 
ATOM      7  C   UNL     1      86.662  63.881  91.067  0.00  0.00    +0.000 A 
ATOM      8  C   UNL     1      86.605  63.360  89.770  0.00  0.00    +0.000 A 
ATOM      9 CL   UNL     1      87.969  64.845  93.221  0.00  0.00    +0.000 Cl
ENDBRANCH   1   3
BRANCH   1  10
ATOM     10  S   UNL     1      87.095  63.622  86.451  0.00  0.00    +0.000 S 
BRANCH  10  14
ATOM     11  C   UNL     1      91.959  64.301  84.541  0.00  0.00    +0.000 C 
ATOM     12  C   UNL     1      90.802  64.865  85.310  0.00  0.00    +0.000 A 
ATOM     13  C   UNL     1      89.645  64.099  85.515  0.00  0.00    +0.000 A 
ATOM     14  C   UNL     1      88.547  64.630  86.200  0.00  0.00    +0.000 A 
ATOM     15  C   UNL     1      88.609  65.940  86.685  0.00  0.00    +0.000 A 
ATOM     16  C   UNL     1      89.750  66.715  86.473  0.00  0.00    +0.000 A 
ATOM     17  C   UNL     1      90.839  66.182  85.783  0.00  0.00    +0.000 A 
ENDBRANCH  10  14
ENDBRANCH   1  10
TORSDOF 3
ENDMDL
