MODEL 1
REMARK VINA RESULT:      -4.2      0.000      0.000
REMARK  Name = *****
REMARK  7 active torsions:
REMARK  status: ('A' for Active; 'I' for Inactive)
REMARK    1  A    between atoms: C_1  and  C_2
REMARK    2  A    between atoms: C_2  and  O_3
REMARK    3  A    between atoms: O_3  and  C_4
REMARK    4  A    between atoms: C_5  and  C_10
REMARK    5  A    between atoms: C_7  and  C_9
REMARK    6  A    between atoms: C_10  and  C_11
REMARK    7  A    between atoms: C_11  and  C_12
REMARK                            x       y       z     vdW  Elec       q    Type
REMARK                         _______ _______ _______ _____ _____    ______ ____
ROOT
ATOM      1  C   UNL     1      89.836  68.400  84.733  0.00  0.00    +0.000 A 
ATOM      2  C   UNL     1      89.871  68.403  86.112  0.00  0.00    +0.000 A 
ATOM      3  N   UNL     1      90.347  67.188  86.559  0.00  0.00    +0.000 NA
ATOM      4  C   UNL     1      90.585  66.515  85.452  0.00  0.00    +0.000 A 
ATOM      5  O   UNL     1      90.296  67.190  84.299  0.00  0.00    +0.000 OA
ATOM      6  C   UNL     1      91.111  65.145  85.295  0.00  0.00    +0.000 C 
ENDROOT
BRANCH   1   7
ATOM      7  O   UNL     1      89.461  69.298  83.825  0.00  0.00    +0.000 OA
BRANCH   7   9
ATOM      8  C   UNL     1      89.998  71.607  84.078  0.00  0.00    +0.000 C 
ATOM      9  C   UNL     1      90.433  70.282  83.478  0.00  0.00    +0.000 C 
ENDBRANCH   7   9
ENDBRANCH   1   7
BRANCH   2  10
ATOM     10  C   UNL     1      89.466  69.494  87.039  0.00  0.00    +0.000 C 
BRANCH  10  11
ATOM     11  C   UNL     1      88.135  69.235  87.748  0.00  0.00    +0.000 C 
BRANCH  11  12
ATOM     12  C   UNL     1      87.088  70.250  87.359  0.00  0.00    +0.000 A 
ATOM     13  C   UNL     1      86.917  70.616  86.018  0.00  0.00    +0.000 A 
ATOM     14  C   UNL     1      85.962  71.570  85.663  0.00  0.00    +0.000 A 
ATOM     15  C   UNL     1      85.172  72.167  86.644  0.00  0.00    +0.000 A 
ATOM     16  C   UNL     1      85.338  71.813  87.981  0.00  0.00    +0.000 A 
ATOM     17  C   UNL     1      86.294  70.860  88.339  0.00  0.00    +0.000 A 
ENDBRANCH  11  12
ENDBRANCH  10  11
ENDBRANCH   2  10
TORSDOF 5
ENDMDL
