MODEL 1
REMARK VINA RESULT:      -4.5      0.000      0.000
REMARK  Name = *****
REMARK  3 active torsions:
REMARK  status: ('A' for Active; 'I' for Inactive)
REMARK    1  A    between atoms: C_1  and  C_2
REMARK    2  A    between atoms: C_6  and  C_7
REMARK    3  A    between atoms: C_8  and  C_9
REMARK                            x       y       z     vdW  Elec       q    Type
REMARK                         _______ _______ _______ _____ _____    ______ ____
ROOT
ATOM      1  C   UNL     1     102.750 126.030  81.093  0.00  0.00    +0.000 C 
ATOM      2  C   UNL     1     101.988 125.918  82.194  0.00  0.00    +0.000 C 
ENDROOT
BRANCH   1   8
ATOM      3  C   UNL     1     105.752 124.605  79.148  0.00  0.00    +0.000 C 
ATOM      4  C   UNL     1     105.015 125.587  80.061  0.00  0.00    +0.000 C 
ATOM      5  C   UNL     1     105.856 125.939  81.291  0.00  0.00    +0.000 C 
ATOM      6  C   UNL     1     105.515 124.886  82.345  0.00  0.00    +0.000 C 
ATOM      7  C   UNL     1     104.252 124.171  81.861  0.00  0.00    +0.000 C 
ATOM      8  C   UNL     1     103.737 124.969  80.658  0.00  0.00    +0.000 C 
ENDBRANCH   1   8
BRANCH   2   9
ATOM      9  C   UNL     1     101.028 126.938  82.641  0.00  0.00    +0.000 A 
ATOM     10  C   UNL     1     101.432 128.112  83.290  0.00  0.00    +0.000 A 
ATOM     11  C   UNL     1     100.490 129.073  83.670  0.00  0.00    +0.000 A 
ATOM     12  C   UNL     1      99.138 128.875  83.396  0.00  0.00    +0.000 A 
ATOM     13  C   UNL     1      98.728 127.719  82.737  0.00  0.00    +0.000 A 
ATOM     14  C   UNL     1      99.668 126.758  82.356  0.00  0.00    +0.000 A 
ENDBRANCH   2   9
TORSDOF 2
ENDMDL
