MODEL 1
REMARK VINA RESULT:      -5.0      0.000      0.000
REMARK  Name = *****
REMARK  2 active torsions:
REMARK  status: ('A' for Active; 'I' for Inactive)
REMARK    1  A    between atoms: C_6  and  C_7
REMARK    2  A    between atoms: N_9  and  C_10
REMARK                            x       y       z     vdW  Elec       q    Type
REMARK                         _______ _______ _______ _____ _____    ______ ____
ROOT
ATOM      1  C   UNL     1     103.460 126.524  80.805  0.00  0.00    +0.000 C 
ATOM      2  O   UNL     1     103.330 127.475  80.045  0.00  0.00    +0.000 OA
ATOM      3  N   UNL     1     102.784 126.312  81.993  0.00  0.00    +0.000 N 
ATOM      4  H   UNL     1     103.057 125.526  82.518  0.00  0.00    +0.000 HD
ENDROOT
BRANCH   1  10
ATOM      5  C   UNL     1     105.704 125.834  79.873  0.00  0.00    +0.000 A 
ATOM      6  C   UNL     1     106.636 124.836  79.579  0.00  0.00    +0.000 A 
ATOM      7  C   UNL     1     106.347 123.508  79.883  0.00  0.00    +0.000 A 
ATOM      8  C   UNL     1     105.138 123.165  80.487  0.00  0.00    +0.000 A 
ATOM      9  C   UNL     1     104.203 124.155  80.784  0.00  0.00    +0.000 A 
ATOM     10  C   UNL     1     104.479 125.492  80.465  0.00  0.00    +0.000 A 
ATOM     11 CL   UNL     1     104.785 121.523  80.867  0.00  0.00    +0.000 Cl
ATOM     12  F   UNL     1     107.258 122.570  79.588  0.00  0.00    +0.000 F 
ENDBRANCH   1  10
BRANCH   3  13
ATOM     13  C   UNL     1     101.744 127.099  82.533  0.00  0.00    +0.000 A 
ATOM     14  C   UNL     1     100.386 126.773  82.439  0.00  0.00    +0.000 A 
ATOM     15  C   UNL     1      99.422 127.609  83.011  0.00  0.00    +0.000 A 
ATOM     16  C   UNL     1      99.809 128.769  83.676  0.00  0.00    +0.000 A 
ATOM     17  C   UNL     1     101.154 129.104  83.779  0.00  0.00    +0.000 A 
ATOM     18  C   UNL     1     102.119 128.269  83.210  0.00  0.00    +0.000 A 
ATOM     19  F   UNL     1      98.898 129.581  84.231  0.00  0.00    +0.000 F 
ATOM     20 CL   UNL     1      97.755 127.189  82.888  0.00  0.00    +0.000 Cl
ENDBRANCH   3  13
TORSDOF 2
ENDMDL
