MODEL 1
REMARK VINA RESULT:      -4.3      0.000      0.000
REMARK  Name = *****
REMARK  1 active torsions:
REMARK  status: ('A' for Active; 'I' for Inactive)
REMARK    1  A    between atoms: C_4  and  C_6
REMARK                            x       y       z     vdW  Elec       q    Type
REMARK                         _______ _______ _______ _____ _____    ______ ____
ROOT
ATOM      1  C   UNL     1     102.268 126.136  82.222  0.00  0.00    +0.000 A 
ATOM      2  N   UNL     1     102.540 127.251  82.886  0.00  0.00    +0.000 NA
ATOM      3  C   UNL     1     101.316 127.834  83.089  0.00  0.00    +0.000 A 
ATOM      4  C   UNL     1     100.325 127.044  82.533  0.00  0.00    +0.000 A 
ATOM      5  O   UNL     1     100.923 125.955  81.977  0.00  0.00    +0.000 OA
ATOM      6  C   UNL     1      98.966 127.338  82.556  0.00  0.00    +0.000 A 
ATOM      7  C   UNL     1      98.621 128.532  83.199  0.00  0.00    +0.000 A 
ATOM      8  C   UNL     1      99.601 129.351  83.769  0.00  0.00    +0.000 A 
ATOM      9  C   UNL     1     100.960 129.026  83.729  0.00  0.00    +0.000 A 
ATOM     10  F   UNL     1      99.224 130.485  84.373  0.00  0.00    +0.000 F 
ENDROOT
BRANCH   1  14
ATOM     11  C   UNL     1     104.762 124.015  80.439  0.00  0.00    +0.000 A 
ATOM     12  C   UNL     1     105.045 123.482  81.676  0.00  0.00    +0.000 A 
ATOM     13  S   UNL     1     104.092 124.184  82.911  0.00  0.00    +0.000 S 
ATOM     14  C   UNL     1     103.285 125.210  81.800  0.00  0.00    +0.000 A 
ATOM     15  C   UNL     1     103.746 125.013  80.511  0.00  0.00    +0.000 A 
ENDBRANCH   1  14
TORSDOF 1
ENDMDL
