MODEL 1
REMARK VINA RESULT:      -4.7      0.000      0.000
REMARK  Name = *****
REMARK  3 active torsions:
REMARK  status: ('A' for Active; 'I' for Inactive)
REMARK    1  A    between atoms: C_4  and  C_7
REMARK    2  A    between atoms: C_7  and  C_16
REMARK    3  A    between atoms: C_8  and  C_9
REMARK                            x       y       z     vdW  Elec       q    Type
REMARK                         _______ _______ _______ _____ _____    ______ ____
ROOT
ATOM      1  C   UNL     1     103.050 125.680  81.731  0.00  0.00    +0.000 C 
ATOM      2  C   UNL     1     102.085 125.709  82.672  0.00  0.00    +0.000 C 
ENDROOT
BRANCH   2   3
ATOM      3  C   UNL     1     101.169 126.836  82.904  0.00  0.00    +0.000 A 
ATOM      4  C   UNL     1      99.856 126.753  82.420  0.00  0.00    +0.000 A 
ATOM      5  C   UNL     1      98.960 127.806  82.617  0.00  0.00    +0.000 A 
ATOM      6  C   UNL     1      99.366 128.951  83.300  0.00  0.00    +0.000 A 
ATOM      7  C   UNL     1     100.669 129.046  83.789  0.00  0.00    +0.000 A 
ATOM      8  C   UNL     1     101.568 127.993  83.593  0.00  0.00    +0.000 A 
ATOM      9 CL   UNL     1     103.170 128.167  84.224  0.00  0.00    +0.000 Cl
ENDBRANCH   2   3
BRANCH   1  13
ATOM     10  C   UNL     1     105.562 122.217  81.428  0.00  0.00    +0.000 A 
ATOM     11  C   UNL     1     105.316 123.004  80.304  0.00  0.00    +0.000 A 
ATOM     12  C   UNL     1     104.497 124.131  80.403  0.00  0.00    +0.000 A 
ATOM     13  C   UNL     1     103.911 124.481  81.629  0.00  0.00    +0.000 A 
ATOM     14  C   UNL     1     104.172 123.683  82.754  0.00  0.00    +0.000 A 
ATOM     15  C   UNL     1     104.991 122.557  82.653  0.00  0.00    +0.000 A 
ENDBRANCH   1  13
BRANCH   1  16
ATOM     16  C   UNL     1     103.258 126.762  80.818  0.00  0.00    +0.000 C 
ATOM     17  N   UNL     1     103.446 127.645  80.087  0.00  0.00    +0.000 NA
ENDBRANCH   1  16
TORSDOF 3
ENDMDL
