REMARK  Name = *****
REMARK  3 active torsions:
REMARK  status: ('A' for Active; 'I' for Inactive)
REMARK    1  A    between atoms: C_3  and  S_8
REMARK    2  A    between atoms: S_8  and  C_9
REMARK    3  A    between atoms: C_9  and  C_10
REMARK                            x       y       z     vdW  Elec       q    Type
REMARK                         _______ _______ _______ _____ _____    ______ ____
ROOT
ATOM      1  C   UNL     1      -4.299   1.499  -0.009  0.00  0.00    +0.000 C 
ENDROOT
BRANCH   1   2
ATOM      2  C   UNL     1      -5.804   1.591   0.040  0.00  0.00    +0.000 A 
ATOM      3  C   UNL     1      -6.541   1.853  -1.125  0.00  0.00    +0.000 A 
ATOM      4  C   UNL     1      -7.932   1.919  -1.075  0.00  0.00    +0.000 A 
ATOM      5  C   UNL     1      -8.609   1.721   0.126  0.00  0.00    +0.000 A 
ATOM      6  C   UNL     1      -7.890   1.451   1.289  0.00  0.00    +0.000 A 
ATOM      7  C   UNL     1      -6.494   1.383   1.246  0.00  0.00    +0.000 A 
ATOM      8 CL   UNL     1     -10.327   1.804   0.191  0.00  0.00    +0.000 Cl
ATOM      9  F   UNL     1      -8.603   2.177  -2.207  0.00  0.00    +0.000 F 
ENDBRANCH   1   2
BRANCH   1  10
ATOM     10  S   UNL     1      -3.756  -0.198  -0.393  0.00  0.00    +0.000 S 
BRANCH  10  13
ATOM     11  C   UNL     1       0.030  -0.721   0.970  0.00  0.00    +0.000 A 
ATOM     12  C   UNL     1      -1.348  -0.833   0.773  0.00  0.00    +0.000 A 
ATOM     13  C   UNL     1      -1.997  -0.017  -0.162  0.00  0.00    +0.000 A 
ATOM     14  C   UNL     1      -1.249   0.896  -0.916  0.00  0.00    +0.000 A 
ATOM     15  C   UNL     1       0.129   1.007  -0.719  0.00  0.00    +0.000 A 
ATOM     16  C   UNL     1       0.755   0.200   0.224  0.00  0.00    +0.000 A 
ATOM     17  F   UNL     1       2.076   0.307   0.411  0.00  0.00    +0.000 F 
ENDBRANCH  10  13
ENDBRANCH   1  10
TORSDOF 3
