MODEL 1
REMARK VINA RESULT:      -4.8      0.000      0.000
REMARK  Name = *****
REMARK  4 active torsions:
REMARK  status: ('A' for Active; 'I' for Inactive)
REMARK    1  A    between atoms: C_1  and  C_2
REMARK    2  A    between atoms: C_3  and  C_16
REMARK    3  A    between atoms: C_5  and  C_8
REMARK    4  A    between atoms: C_9  and  C_10
REMARK                            x       y       z     vdW  Elec       q    Type
REMARK                         _______ _______ _______ _____ _____    ______ ____
ROOT
ATOM      1  C   UNL     1     107.048 121.833  80.651  0.00  0.00    +0.000 C 
ATOM      2  C   UNL     1     105.942 122.772  81.048  0.00  0.00    +0.000 A 
ATOM      3  C   UNL     1     105.455 122.817  82.370  0.00  0.00    +0.000 A 
ATOM      4  C   UNL     1     104.420 123.713  82.692  0.00  0.00    +0.000 A 
ATOM      5  C   UNL     1     103.867 124.547  81.717  0.00  0.00    +0.000 A 
ATOM      6  C   UNL     1     104.345 124.495  80.410  0.00  0.00    +0.000 A 
ATOM      7  C   UNL     1     105.375 123.614  80.077  0.00  0.00    +0.000 A 
ATOM      8  C   UNL     1     106.027 121.938  83.448  0.00  0.00    +0.000 C 
ENDROOT
BRANCH   5   9
ATOM      9  C   UNL     1     102.814 125.451  82.062  0.00  0.00    +0.000 C 
ATOM     10  C   UNL     1     101.928 126.210  82.349  0.00  0.00    +0.000 C 
BRANCH  10  11
ATOM     11  C   UNL     1     100.874 127.115  82.692  0.00  0.00    +0.000 A 
ATOM     12  C   UNL     1      99.557 126.825  82.328  0.00  0.00    +0.000 A 
ATOM     13  C   UNL     1      98.529 127.708  82.662  0.00  0.00    +0.000 A 
ATOM     14  C   UNL     1      98.816 128.881  83.359  0.00  0.00    +0.000 A 
ATOM     15  C   UNL     1     100.131 129.173  83.723  0.00  0.00    +0.000 A 
ATOM     16  C   UNL     1     101.160 128.290  83.390  0.00  0.00    +0.000 A 
ENDBRANCH  10  11
ENDBRANCH   5   9
TORSDOF 2
ENDMDL
