REMARK  Name = *****
REMARK  5 active torsions:
REMARK  status: ('A' for Active; 'I' for Inactive)
REMARK    1  A    between atoms: C_4  and  C_7
REMARK    2  A    between atoms: C_7  and  C_8
REMARK    3  A    between atoms: C_8  and  C_9
REMARK    4  A    between atoms: C_9  and  O_11
REMARK    5  A    between atoms: O_11  and  C_12
REMARK                            x       y       z     vdW  Elec       q    Type
REMARK                         _______ _______ _______ _____ _____    ______ ____
ROOT
ATOM      1  C   UNL     1       4.600  -2.512   0.015  0.00  0.00    +0.000 C 
ATOM      2  O   UNL     1       4.833  -3.415  -0.776  0.00  0.00    +0.000 OA
ENDROOT
BRANCH   1   3
ATOM      3  C   UNL     1       3.215  -2.118   0.462  0.00  0.00    +0.000 C 
BRANCH   3   4
ATOM      4  C   UNL     1       2.742  -0.873  -0.283  0.00  0.00    +0.000 C 
BRANCH   4   8
ATOM      5  C   UNL     1      -1.396   0.580  -0.275  0.00  0.00    +0.000 C 
ATOM      6  C   UNL     1      -1.112  -0.758   0.397  0.00  0.00    +0.000 C 
ATOM      7  C   UNL     1       0.240  -1.331  -0.025  0.00  0.00    +0.000 C 
ATOM      8  C   UNL     1       1.388  -0.336   0.218  0.00  0.00    +0.000 C 
ATOM      9  C   UNL     1       1.082   1.011  -0.460  0.00  0.00    +0.000 C 
ATOM     10  C   UNL     1      -0.269   1.576  -0.028  0.00  0.00    +0.000 C 
ENDBRANCH   4   8
ENDBRANCH   3   4
ENDBRANCH   1   3
BRANCH   1  11
ATOM     11  O   UNL     1       5.530  -1.711   0.602  0.00  0.00    +0.000 OA
BRANCH  11  12
ATOM     12  C   UNL     1       6.901  -1.968   0.248  0.00  0.00    +0.000 C 
ATOM     13  C   UNL     1       7.462  -3.087   1.130  0.00  0.00    +0.000 C 
ATOM     14  C   UNL     1       8.958  -3.286   0.905  0.00  0.00    +0.000 C 
ATOM     15  C   UNL     1       9.734  -1.987   1.099  0.00  0.00    +0.000 C 
ATOM     16  C   UNL     1       9.176  -0.862   0.231  0.00  0.00    +0.000 C 
ATOM     17  C   UNL     1       7.681  -0.668   0.460  0.00  0.00    +0.000 C 
ENDBRANCH  11  12
ENDBRANCH   1  11
TORSDOF 5
