REMARK  Name = *****
REMARK  5 active torsions:
REMARK  status: ('A' for Active; 'I' for Inactive)
REMARK    1  A    between atoms: C_1  and  C_2
REMARK    2  A    between atoms: C_4  and  C_18
REMARK    3  A    between atoms: C_5  and  C_9
REMARK    4  A    between atoms: C_6  and  C_8
REMARK    5  A    between atoms: C_10  and  C_12
REMARK                            x       y       z     vdW  Elec       q    Type
REMARK                         _______ _______ _______ _____ _____    ______ ____
ROOT
ATOM      1  C   UNL     1      -4.941   2.951  -1.897  0.00  0.00    +0.000 C 
ATOM      2  C   UNL     1      -4.272   1.749  -1.301  0.00  0.00    +0.000 A 
ATOM      3  C   UNL     1      -4.421   1.452   0.053  0.00  0.00    +0.000 A 
ATOM      4  C   UNL     1      -3.825   0.310   0.617  0.00  0.00    +0.000 A 
ATOM      5  C   UNL     1      -3.093  -0.600  -0.189  0.00  0.00    +0.000 A 
ATOM      6  C   UNL     1      -2.930  -0.274  -1.560  0.00  0.00    +0.000 A 
ATOM      7  C   UNL     1      -3.535   0.876  -2.101  0.00  0.00    +0.000 A 
ATOM      8  C   UNL     1      -2.141  -1.160  -2.491  0.00  0.00    +0.000 C 
ATOM      9  C   UNL     1      -4.027   0.063   2.090  0.00  0.00    +0.000 C 
ENDROOT
BRANCH   5  10
ATOM     10  C   UNL     1      -2.478  -1.853   0.415  0.00  0.00    +0.000 C 
ATOM     11  C   UNL     1      -3.374  -3.000   0.875  0.00  0.00    +0.000 C 
ATOM     12  O   UNL     1      -2.582  -3.087  -0.315  0.00  0.00    +0.000 OA
BRANCH  11  13
ATOM     13  C   UNL     1      -2.964  -3.833   2.067  0.00  0.00    +0.000 A 
ATOM     14  C   UNL     1      -3.475  -3.557   3.347  0.00  0.00    +0.000 A 
ATOM     15  C   UNL     1      -3.110  -4.318   4.461  0.00  0.00    +0.000 A 
ATOM     16  C   UNL     1      -2.222  -5.379   4.318  0.00  0.00    +0.000 A 
ATOM     17  C   UNL     1      -1.704  -5.680   3.062  0.00  0.00    +0.000 A 
ATOM     18  C   UNL     1      -2.075  -4.916   1.952  0.00  0.00    +0.000 A 
ENDBRANCH  11  13
ENDBRANCH   5  10
TORSDOF 2
