MODEL 1
REMARK VINA RESULT:      -4.2      0.000      0.000
REMARK  Name = *****
REMARK  6 active torsions:
REMARK  status: ('A' for Active; 'I' for Inactive)
REMARK    1  A    between atoms: C_1  and  C_2
REMARK    2  A    between atoms: C_5  and  S_8
REMARK    3  A    between atoms: S_8  and  C_9
REMARK    4  A    between atoms: C_9  and  C_10
REMARK    5  A    between atoms: C_12  and  O_16
REMARK    6  A    between atoms: O_16  and  C_17
REMARK                            x       y       z     vdW  Elec       q    Type
REMARK                         _______ _______ _______ _____ _____    ______ ____
ROOT
ATOM      1  C   UNL     1      88.152  69.278  87.622  0.00  0.00    +0.000 C 
ENDROOT
BRANCH   1   2
ATOM      2  C   UNL     1      89.554  69.360  86.967  0.00  0.00    +0.000 C 
ATOM      3  C   UNL     1      89.883  68.171  86.034  0.00  0.00    +0.000 C 
ATOM      4  C   UNL     1      89.484  68.378  84.570  0.00  0.00    +0.000 C 
ATOM      5  C   UNL     1      90.023  69.716  84.022  0.00  0.00    +0.000 C 
ATOM      6  C   UNL     1      90.085  70.842  85.017  0.00  0.00    +0.000 C 
ATOM      7  C   UNL     1      89.870  70.689  86.331  0.00  0.00    +0.000 C 
BRANCH   4   8
ATOM      8  O   UNL     1      88.062  68.261  84.487  0.00  0.00    +0.000 OA
ATOM      9  C   UNL     1      87.507  68.753  83.276  0.00  0.00    +0.000 C 
ENDBRANCH   4   8
ENDBRANCH   1   2
BRANCH   1  10
ATOM     10  S   UNL     1      87.682  70.622  88.776  0.00  0.00    +0.000 S 
BRANCH  10  15
ATOM     11  C   UNL     1      83.134  73.124  85.590  0.00  0.00    +0.000 C 
ATOM     12  C   UNL     1      84.238  72.480  86.373  0.00  0.00    +0.000 A 
ATOM     13  C   UNL     1      84.205  72.470  87.772  0.00  0.00    +0.000 A 
ATOM     14  C   UNL     1      85.253  71.901  88.502  0.00  0.00    +0.000 A 
ATOM     15  C   UNL     1      86.346  71.339  87.842  0.00  0.00    +0.000 A 
ATOM     16  C   UNL     1      86.397  71.370  86.446  0.00  0.00    +0.000 A 
ATOM     17  C   UNL     1      85.351  71.939  85.715  0.00  0.00    +0.000 A 
ENDBRANCH  10  15
ENDBRANCH   1  10
TORSDOF 4
ENDMDL
