REMARK  Name = *****
REMARK  3 active torsions:
REMARK  status: ('A' for Active; 'I' for Inactive)
REMARK    1  A    between atoms: C_4  and  C_7
REMARK    2  A    between atoms: C_7  and  S_8
REMARK    3  A    between atoms: S_8  and  C_10
REMARK                            x       y       z     vdW  Elec       q    Type
REMARK                         _______ _______ _______ _____ _____    ______ ____
ROOT
ATOM      1  C   UNL     1       2.899  -0.529  -0.198  0.00  0.00    +0.000 C 
ATOM      2 CL   UNL     1       3.543  -2.120   0.337  0.00  0.00    +0.000 Cl
ENDROOT
BRANCH   1   6
ATOM      3  C   UNL     1      -1.487   0.068  -0.182  0.00  0.00    +0.000 C 
ATOM      4  C   UNL     1      -0.934  -1.248   0.346  0.00  0.00    +0.000 C 
ATOM      5  C   UNL     1       0.511  -1.474  -0.095  0.00  0.00    +0.000 C 
ATOM      6  C   UNL     1       1.444  -0.308   0.307  0.00  0.00    +0.000 C 
ATOM      7  C   UNL     1       0.851   1.017  -0.229  0.00  0.00    +0.000 C 
ATOM      8  C   UNL     1      -0.594   1.234   0.217  0.00  0.00    +0.000 C 
ENDBRANCH   1   6
BRANCH   1   9
ATOM      9  S   UNL     1       3.998   0.853   0.342  0.00  0.00    +0.000 S 
ATOM     10  O   UNL     1       4.236   0.732   1.819  0.00  0.00    +0.000 OA
BRANCH   9  11
ATOM     11  C   UNL     1       5.523   0.347  -0.480  0.00  0.00    +0.000 A 
ATOM     12  C   UNL     1       5.634   0.453  -1.872  0.00  0.00    +0.000 A 
ATOM     13  C   UNL     1       6.815   0.074  -2.514  0.00  0.00    +0.000 A 
ATOM     14  C   UNL     1       7.893  -0.404  -1.769  0.00  0.00    +0.000 A 
ATOM     15  C   UNL     1       7.794  -0.498  -0.382  0.00  0.00    +0.000 A 
ATOM     16  C   UNL     1       6.614  -0.120   0.261  0.00  0.00    +0.000 A 
ENDBRANCH   9  11
ENDBRANCH   1   9
TORSDOF 3
