MODEL 1
REMARK VINA RESULT:      -4.3      0.000      0.000
REMARK  Name = *****
REMARK  2 active torsions:
REMARK  status: ('A' for Active; 'I' for Inactive)
REMARK    1  A    between atoms: C_6  and  N_7
REMARK    2  A    between atoms: C_8  and  C_9
REMARK                            x       y       z     vdW  Elec       q    Type
REMARK                         _______ _______ _______ _____ _____    ______ ____
ROOT
ATOM      1  N   UNL     1     102.613 126.180  81.605  0.00  0.00    +0.000 NA
ATOM      2  C   UNL     1     101.713 125.997  82.520  0.00  0.00    +0.000 C 
ENDROOT
BRANCH   1   8
ATOM      3  C   UNL     1     104.165 124.941  80.208  0.00  0.00    +0.000 A 
ATOM      4  C   UNL     1     105.074 123.895  80.039  0.00  0.00    +0.000 A 
ATOM      5  C   UNL     1     105.347 123.039  81.105  0.00  0.00    +0.000 A 
ATOM      6  C   UNL     1     104.714 123.219  82.333  0.00  0.00    +0.000 A 
ATOM      7  C   UNL     1     103.805 124.267  82.498  0.00  0.00    +0.000 A 
ATOM      8  C   UNL     1     103.536 125.142  81.440  0.00  0.00    +0.000 A 
ATOM      9 CL   UNL     1     106.467 121.749  80.901  0.00  0.00    +0.000 Cl
ENDBRANCH   1   8
BRANCH   2  10
ATOM     10  C   UNL     1     100.714 127.005  82.774  0.00  0.00    +0.000 A 
ATOM     11  C   UNL     1      99.361 126.980  82.489  0.00  0.00    +0.000 A 
ATOM     12  C   UNL     1      98.701 128.179  82.897  0.00  0.00    +0.000 A 
ATOM     13  C   UNL     1      99.585 129.055  83.471  0.00  0.00    +0.000 A 
ATOM     14  S   UNL     1     101.173 128.471  83.529  0.00  0.00    +0.000 S 
ATOM     15 CL   UNL     1      99.225 130.611  84.100  0.00  0.00    +0.000 Cl
ENDBRANCH   2  10
TORSDOF 2
ENDMDL
