MODEL 1
REMARK VINA RESULT:      -4.8      0.000      0.000
REMARK  Name = *****
REMARK  3 active torsions:
REMARK  status: ('A' for Active; 'I' for Inactive)
REMARK    1  A    between atoms: C_3  and  C_15
REMARK    2  A    between atoms: C_6  and  C_7
REMARK    3  A    between atoms: C_8  and  C_9
REMARK                            x       y       z     vdW  Elec       q    Type
REMARK                         _______ _______ _______ _____ _____    ______ ____
ROOT
ATOM      1  C   UNL     1     102.441 127.856  83.138  0.00  0.00    +0.000 A 
ATOM      2  C   UNL     1     101.735 128.946  83.660  0.00  0.00    +0.000 A 
ATOM      3  C   UNL     1     100.335 128.975  83.616  0.00  0.00    +0.000 A 
ATOM      4  C   UNL     1      99.655 127.888  83.046  0.00  0.00    +0.000 A 
ATOM      5  C   UNL     1     100.363 126.799  82.527  0.00  0.00    +0.000 A 
ATOM      6  C   UNL     1     101.762 126.779  82.556  0.00  0.00    +0.000 A 
ENDROOT
BRANCH   3   7
ATOM      7  C   UNL     1      99.558 130.141  84.177  0.00  0.00    +0.000 C 
ATOM      8  F   UNL     1      98.423 129.775  84.837  0.00  0.00    +0.000 F 
ATOM      9  F   UNL     1     100.286 130.874  85.065  0.00  0.00    +0.000 F 
ATOM     10  F   UNL     1      99.161 131.014  83.210  0.00  0.00    +0.000 F 
ENDBRANCH   3   7
BRANCH   6  11
ATOM     11  C   UNL     1     102.466 125.601  82.029  0.00  0.00    +0.000 C 
ATOM     12  C   UNL     1     103.539 125.050  82.620  0.00  0.00    +0.000 C 
BRANCH  12  13
ATOM     13  C   UNL     1     104.245 123.869  82.103  0.00  0.00    +0.000 A 
ATOM     14  C   UNL     1     104.560 122.772  82.906  0.00  0.00    +0.000 A 
ATOM     15  C   UNL     1     105.200 121.687  82.327  0.00  0.00    +0.000 A 
ATOM     16  N   UNL     1     105.534 121.620  81.022  0.00  0.00    +0.000 NA
ATOM     17  C   UNL     1     105.207 122.684  80.259  0.00  0.00    +0.000 A 
ATOM     18  C   UNL     1     104.565 123.812  80.745  0.00  0.00    +0.000 A 
ENDBRANCH  12  13
ENDBRANCH   6  11
TORSDOF 3
ENDMDL
