REMARK  Name = *****
REMARK  4 active torsions:
REMARK  status: ('A' for Active; 'I' for Inactive)
REMARK    1  A    between atoms: C_1  and  C_2
REMARK    2  A    between atoms: C_4  and  O_9
REMARK    3  A    between atoms: O_9  and  C_10
REMARK    4  A    between atoms: C_10  and  C_11
REMARK                            x       y       z     vdW  Elec       q    Type
REMARK                         _______ _______ _______ _____ _____    ______ ____
ROOT
ATOM      1  C   UNL     1       3.549  -0.040   0.091  0.00  0.00    +0.000 C 
ATOM      2  C   UNL     1       2.048  -0.013   0.060  0.00  0.00    +0.000 A 
ATOM      3  C   UNL     1       1.361   1.205  -0.081  0.00  0.00    +0.000 A 
ATOM      4  C   UNL     1      -0.038   1.239  -0.143  0.00  0.00    +0.000 A 
ATOM      5  C   UNL     1      -0.745   0.028  -0.083  0.00  0.00    +0.000 A 
ATOM      6  C   UNL     1      -0.069  -1.187   0.042  0.00  0.00    +0.000 A 
ATOM      7  C   UNL     1       1.323  -1.208   0.109  0.00  0.00    +0.000 A 
ATOM      8 CL   UNL     1      -2.474  -0.010  -0.155  0.00  0.00    +0.000 Cl
ENDROOT
BRANCH   4   9
ATOM      9  O   UNL     1      -0.782   2.381  -0.280  0.00  0.00    +0.000 OA
BRANCH   9  10
ATOM     10  C   UNL     1      -0.115   3.633  -0.124  0.00  0.00    +0.000 C 
BRANCH  10  11
ATOM     11  C   UNL     1      -1.124   4.760  -0.131  0.00  0.00    +0.000 A 
ATOM     12  C   UNL     1      -2.377   4.618   0.485  0.00  0.00    +0.000 A 
ATOM     13  C   UNL     1      -3.283   5.679   0.507  0.00  0.00    +0.000 A 
ATOM     14  C   UNL     1      -2.945   6.899  -0.074  0.00  0.00    +0.000 A 
ATOM     15  C   UNL     1      -1.698   7.060  -0.675  0.00  0.00    +0.000 A 
ATOM     16  C   UNL     1      -0.790   5.999  -0.699  0.00  0.00    +0.000 A 
ENDBRANCH  10  11
ENDBRANCH   9  10
ENDBRANCH   4   9
TORSDOF 3
