REMARK  Name = *****
REMARK  4 active torsions:
REMARK  status: ('A' for Active; 'I' for Inactive)
REMARK    1  A    between atoms: C_1  and  C_2
REMARK    2  A    between atoms: C_3  and  C_16
REMARK    3  A    between atoms: C_5  and  C_7
REMARK    4  A    between atoms: C_8  and  C_9
REMARK                            x       y       z     vdW  Elec       q    Type
REMARK                         _______ _______ _______ _____ _____    ______ ____
ROOT
ATOM      1  C   UNL     1       5.732  -1.494   0.011  0.00  0.00    +0.000 C 
ATOM      2  C   UNL     1       5.767  -2.833   0.107  0.00  0.00    +0.000 C 
ENDROOT
BRANCH   1   7
ATOM      3  C   UNL     1       2.186   2.125  -0.124  0.00  0.00    +0.000 C 
ATOM      4  C   UNL     1       2.876   0.816  -0.043  0.00  0.00    +0.000 A 
ATOM      5  C   UNL     1       2.303  -0.430   0.102  0.00  0.00    +0.000 A 
ATOM      6  O   UNL     1       3.261  -1.391   0.133  0.00  0.00    +0.000 OA
ATOM      7  C   UNL     1       4.495  -0.792   0.014  0.00  0.00    +0.000 A 
ATOM      8  C   UNL     1       4.277   0.576  -0.096  0.00  0.00    +0.000 A 
ATOM      9  C   UNL     1       0.910  -0.907   0.218  0.00  0.00    +0.000 C 
ENDBRANCH   1   7
BRANCH   2  10
ATOM     10  C   UNL     1       7.007  -3.620   0.099  0.00  0.00    +0.000 A 
ATOM     11  C   UNL     1       8.153  -3.214   0.797  0.00  0.00    +0.000 A 
ATOM     12  C   UNL     1       9.306  -4.005   0.790  0.00  0.00    +0.000 A 
ATOM     13  C   UNL     1       9.314  -5.211   0.092  0.00  0.00    +0.000 A 
ATOM     14  C   UNL     1       8.178  -5.635  -0.592  0.00  0.00    +0.000 A 
ATOM     15  C   UNL     1       7.026  -4.844  -0.583  0.00  0.00    +0.000 A 
ATOM     16 CL   UNL     1      10.733  -6.184   0.084  0.00  0.00    +0.000 Cl
ENDBRANCH   2  10
TORSDOF 2
