MODEL 1
REMARK VINA RESULT:      -4.3      0.000      0.000
REMARK  Name = *****
REMARK  3 active torsions:
REMARK  status: ('A' for Active; 'I' for Inactive)
REMARK    1  A    between atoms: C_4  and  N_7
REMARK    2  A    between atoms: N_7  and  C_8
REMARK    3  A    between atoms: C_8  and  C_9
REMARK                            x       y       z     vdW  Elec       q    Type
REMARK                         _______ _______ _______ _____ _____    ______ ____
ROOT
ATOM      1  C   UNL     1     103.060 126.079  83.783  0.00  0.00    +0.000 C 
ENDROOT
BRANCH   1   2
ATOM      2  C   UNL     1     103.555 125.240  82.687  0.00  0.00    +0.000 A 
ATOM      3  C   UNL     1     103.542 125.707  81.366  0.00  0.00    +0.000 A 
ATOM      4  C   UNL     1     104.028 124.899  80.335  0.00  0.00    +0.000 A 
ATOM      5  C   UNL     1     104.547 123.634  80.618  0.00  0.00    +0.000 A 
ATOM      6  C   UNL     1     104.593 123.182  81.937  0.00  0.00    +0.000 A 
ATOM      7  C   UNL     1     104.108 123.985  82.973  0.00  0.00    +0.000 A 
ATOM      8 CL   UNL     1     104.215 123.375  84.586  0.00  0.00    +0.000 Cl
ATOM      9 CL   UNL     1     102.981 127.287  80.954  0.00  0.00    +0.000 Cl
ENDBRANCH   1   2
BRANCH   1  10
ATOM     10  N   UNL     1     101.829 126.063  84.240  0.00  0.00    +0.000 N 
ATOM     11  O   UNL     1     101.484 125.183  85.095  0.00  0.00    +0.000 OA
BRANCH  10  15
ATOM     12  C   UNL     1      98.984 128.884  82.899  0.00  0.00    +0.000 A 
ATOM     13  C   UNL     1     100.029 129.298  83.728  0.00  0.00    +0.000 A 
ATOM     14  C   UNL     1     100.976 128.375  84.172  0.00  0.00    +0.000 A 
ATOM     15  C   UNL     1     100.853 127.035  83.793  0.00  0.00    +0.000 A 
ATOM     16  C   UNL     1      99.829 126.620  82.937  0.00  0.00    +0.000 A 
ATOM     17  C   UNL     1      98.888 127.550  82.498  0.00  0.00    +0.000 A 
ENDBRANCH  10  15
ENDBRANCH   1  10
TORSDOF 3
ENDMDL
