MODEL 1
REMARK VINA RESULT:      -4.8      0.000      0.000
REMARK  Name = *****
REMARK  2 active torsions:
REMARK  status: ('A' for Active; 'I' for Inactive)
REMARK    1  A    between atoms: C_2  and  C_14
REMARK    2  A    between atoms: N_3  and  C_4
REMARK                            x       y       z     vdW  Elec       q    Type
REMARK                         _______ _______ _______ _____ _____    ______ ____
ROOT
ATOM      1  C   UNL     1     101.680 127.675  82.862  0.00  0.00    +0.000 A 
ATOM      2  C   UNL     1     100.550 126.928  82.477  0.00  0.00    +0.000 A 
ATOM      3  C   UNL     1      99.255 127.374  82.739  0.00  0.00    +0.000 A 
ATOM      4  C   UNL     1      99.036 128.578  83.389  0.00  0.00    +0.000 A 
ATOM      5  C   UNL     1     100.135 129.330  83.776  0.00  0.00    +0.000 A 
ATOM      6  C   UNL     1     101.437 128.893  83.519  0.00  0.00    +0.000 A 
ATOM      7  F   UNL     1     102.452 129.675  83.919  0.00  0.00    +0.000 F 
ATOM      8  F   UNL     1      99.938 130.496  84.405  0.00  0.00    +0.000 F 
ATOM      9  F   UNL     1      98.202 126.638  82.358  0.00  0.00    +0.000 F 
ATOM     10  F   UNL     1     100.710 125.756  81.840  0.00  0.00    +0.000 F 
ENDROOT
BRANCH   1  13
ATOM     11  C   UNL     1     104.007 127.976  81.991  0.00  0.00    +0.000 C 
ATOM     12  C   UNL     1     103.338 126.936  81.135  0.00  0.00    +0.000 C 
ATOM     13  N   UNL     1     102.955 127.129  82.549  0.00  0.00    +0.000 N 
BRANCH  12  14
ATOM     14  C   UNL     1     104.082 125.675  80.779  0.00  0.00    +0.000 A 
ATOM     15  C   UNL     1     105.025 125.637  79.737  0.00  0.00    +0.000 A 
ATOM     16  C   UNL     1     105.722 124.468  79.423  0.00  0.00    +0.000 A 
ATOM     17  C   UNL     1     105.492 123.306  80.153  0.00  0.00    +0.000 A 
ATOM     18  C   UNL     1     104.569 123.313  81.194  0.00  0.00    +0.000 A 
ATOM     19  C   UNL     1     103.875 124.487  81.502  0.00  0.00    +0.000 A 
ENDBRANCH  12  14
ENDBRANCH   1  13
TORSDOF 2
ENDMDL
