REMARK  Name = *****
REMARK  5 active torsions:
REMARK  status: ('A' for Active; 'I' for Inactive)
REMARK    1  A    between atoms: C_1  and  C_2
REMARK    2  A    between atoms: C_2  and  N_3
REMARK    3  A    between atoms: N_3  and  C_4
REMARK    4  A    between atoms: N_3  and  C_10
REMARK    5  A    between atoms: C_10  and  C_12
REMARK                            x       y       z     vdW  Elec       q    Type
REMARK                         _______ _______ _______ _____ _____    ______ ____
ROOT
ATOM      1  N   UNL     1       3.096  -1.267   0.374  0.00  0.00    +0.000 N 
ENDROOT
BRANCH   1   2
ATOM      2  C   UNL     1       2.124  -2.027   1.123  0.00  0.00    +0.000 A 
ATOM      3  C   UNL     1       0.857  -2.330   0.600  0.00  0.00    +0.000 A 
ATOM      4  C   UNL     1      -0.090  -3.034   1.352  0.00  0.00    +0.000 A 
ATOM      5  C   UNL     1       0.206  -3.435   2.651  0.00  0.00    +0.000 A 
ATOM      6  C   UNL     1       1.446  -3.127   3.198  0.00  0.00    +0.000 A 
ATOM      7  C   UNL     1       2.391  -2.424   2.442  0.00  0.00    +0.000 A 
ENDBRANCH   1   2
BRANCH   1   9
ATOM      8  C   UNL     1       2.689  -0.917  -2.061  0.00  0.00    +0.000 C 
ATOM      9  C   UNL     1       2.588  -0.336  -0.656  0.00  0.00    +0.000 C 
ENDBRANCH   1   9
BRANCH   1  10
ATOM     10  C   UNL     1       4.494  -1.462   0.512  0.00  0.00    +0.000 C 
ATOM     11  S   UNL     1       5.250  -2.945   0.825  0.00  0.00    +0.000 S 
BRANCH  10  12
ATOM     12  C   UNL     1       5.347  -0.254   0.305  0.00  0.00    +0.000 A 
ATOM     13  C   UNL     1       5.216   0.822   1.194  0.00  0.00    +0.000 A 
ATOM     14  C   UNL     1       6.001   1.964   1.022  0.00  0.00    +0.000 A 
ATOM     15  C   UNL     1       6.913   2.025  -0.032  0.00  0.00    +0.000 A 
ATOM     16  C   UNL     1       7.051   0.954  -0.917  0.00  0.00    +0.000 A 
ATOM     17  C   UNL     1       6.268  -0.191  -0.749  0.00  0.00    +0.000 A 
ATOM     18 CL   UNL     1       7.877   3.434  -0.245  0.00  0.00    +0.000 Cl
ENDBRANCH  10  12
ENDBRANCH   1  10
TORSDOF 4
