MODEL 1
REMARK VINA RESULT:      -5.0      0.000      0.000
REMARK  Name = *****
REMARK  2 active torsions:
REMARK  status: ('A' for Active; 'I' for Inactive)
REMARK    1  A    between atoms: C_3  and  C_9
REMARK    2  A    between atoms: N_10  and  C_11
REMARK                            x       y       z     vdW  Elec       q    Type
REMARK                         _______ _______ _______ _____ _____    ______ ____
ROOT
ATOM      1  C   UNL     1     101.885 125.948  82.117  0.00  0.00    +0.000 C 
ATOM      2  N   UNL     1     103.175 126.065  82.094  0.00  0.00    +0.000 NA
ENDROOT
BRANCH   1   5
ATOM      3  C   UNL     1     100.733 129.129  83.802  0.00  0.00    +0.000 A 
ATOM      4  C   UNL     1     101.572 128.121  83.317  0.00  0.00    +0.000 A 
ATOM      5  C   UNL     1     101.025 127.023  82.639  0.00  0.00    +0.000 A 
ATOM      6  C   UNL     1      99.649 126.938  82.449  0.00  0.00    +0.000 A 
ATOM      7  C   UNL     1      98.822 127.944  82.933  0.00  0.00    +0.000 A 
ATOM      8  C   UNL     1      99.353 129.040  83.609  0.00  0.00    +0.000 A 
ATOM      9  F   UNL     1      97.496 127.867  82.754  0.00  0.00    +0.000 F 
ATOM     10  F   UNL     1      99.112 125.891  81.804  0.00  0.00    +0.000 F 
ENDBRANCH   1   5
BRANCH   2  11
ATOM     11  C   UNL     1     103.914 124.991  81.559  0.00  0.00    +0.000 A 
ATOM     12  C   UNL     1     104.569 125.044  80.320  0.00  0.00    +0.000 A 
ATOM     13  C   UNL     1     105.310 123.958  79.866  0.00  0.00    +0.000 A 
ATOM     14  C   UNL     1     105.424 122.803  80.634  0.00  0.00    +0.000 A 
ATOM     15  C   UNL     1     104.792 122.740  81.875  0.00  0.00    +0.000 A 
ATOM     16  C   UNL     1     104.046 123.831  82.333  0.00  0.00    +0.000 A 
ATOM     17  F   UNL     1     105.924 124.014  78.676  0.00  0.00    +0.000 F 
ATOM     18  F   UNL     1     104.482 126.145  79.557  0.00  0.00    +0.000 F 
ENDBRANCH   2  11
TORSDOF 2
ENDMDL
