REMARK  Name = *****
REMARK  3 active torsions:
REMARK  status: ('A' for Active; 'I' for Inactive)
REMARK    1  A    between atoms: C_7  and  C_9
REMARK    2  A    between atoms: C_9  and  C_10
REMARK    3  A    between atoms: C_10  and  C_11
REMARK                            x       y       z     vdW  Elec       q    Type
REMARK                         _______ _______ _______ _____ _____    ______ ____
ROOT
ATOM      1  C   UNL     1       0.882  -1.179   0.592  0.00  0.00    +0.000 C 
ATOM      2  C   UNL     1       1.793  -0.046   0.124  0.00  0.00    +0.000 C 
ATOM      3  C   UNL     1       1.081   1.127  -0.524  0.00  0.00    +0.000 C 
ATOM      4  C   UNL     1      -0.136   1.564   0.253  0.00  0.00    +0.000 C 
ATOM      5  O   UNL     1      -0.138   2.571   0.958  0.00  0.00    +0.000 OA
ATOM      6  C   UNL     1      -1.393   0.789   0.087  0.00  0.00    +0.000 C 
ATOM      7  C   UNL     1      -1.472  -0.516  -0.236  0.00  0.00    +0.000 C 
ATOM      8  C   UNL     1      -0.302  -1.480  -0.332  0.00  0.00    +0.000 C 
ENDROOT
BRANCH   7   9
ATOM      9  C   UNL     1      -2.839  -1.139  -0.475  0.00  0.00    +0.000 C 
BRANCH   9  10
ATOM     10  C   UNL     1      -3.029  -1.583  -1.931  0.00  0.00    +0.000 C 
BRANCH  10  11
ATOM     11  C   UNL     1      -4.424  -2.100  -2.181  0.00  0.00    +0.000 A 
ATOM     12  C   UNL     1      -5.422  -1.243  -2.665  0.00  0.00    +0.000 A 
ATOM     13  C   UNL     1      -6.716  -1.717  -2.882  0.00  0.00    +0.000 A 
ATOM     14  C   UNL     1      -7.026  -3.049  -2.613  0.00  0.00    +0.000 A 
ATOM     15  C   UNL     1      -6.043  -3.907  -2.125  0.00  0.00    +0.000 A 
ATOM     16  C   UNL     1      -4.748  -3.436  -1.907  0.00  0.00    +0.000 A 
ENDBRANCH  10  11
ENDBRANCH   9  10
ENDBRANCH   7   9
TORSDOF 3
