MODEL 1
REMARK VINA RESULT:      -4.2      0.000      0.000
REMARK  Name = *****
REMARK  3 active torsions:
REMARK  status: ('A' for Active; 'I' for Inactive)
REMARK    1  A    between atoms: C_4  and  O_8
REMARK    2  A    between atoms: O_8  and  C_9
REMARK    3  A    between atoms: C_9  and  C_11
REMARK                            x       y       z     vdW  Elec       q    Type
REMARK                         _______ _______ _______ _____ _____    ______ ____
ROOT
ATOM      1  O   UNL     1     103.369 127.076  83.340  0.00  0.00    +0.000 OA
ENDROOT
BRANCH   1   5
ATOM      2  C   UNL     1     104.417 124.565  80.810  0.00  0.00    +0.000 C 
ATOM      3  C   UNL     1     104.757 124.681  82.293  0.00  0.00    +0.000 C 
ATOM      4  C   UNL     1     105.465 125.981  82.675  0.00  0.00    +0.000 C 
ATOM      5  C   UNL     1     104.601 127.249  82.621  0.00  0.00    +0.000 C 
ATOM      6  C   UNL     1     104.236 127.688  81.230  0.00  0.00    +0.000 C 
ATOM      7  C   UNL     1     103.689 126.946  80.255  0.00  0.00    +0.000 C 
ATOM      8  C   UNL     1     103.305 125.501  80.345  0.00  0.00    +0.000 C 
ENDBRANCH   1   5
BRANCH   1   9
ATOM      9  C   UNL     1     102.725 128.210  83.700  0.00  0.00    +0.000 C 
ATOM     10  O   UNL     1     103.229 129.188  84.229  0.00  0.00    +0.000 OA
BRANCH   9  11
ATOM     11  C   UNL     1     101.277 128.110  83.367  0.00  0.00    +0.000 A 
ATOM     12  C   UNL     1     100.825 126.949  82.726  0.00  0.00    +0.000 A 
ATOM     13  C   UNL     1      99.476 126.808  82.392  0.00  0.00    +0.000 A 
ATOM     14  C   UNL     1      98.574 127.827  82.694  0.00  0.00    +0.000 A 
ATOM     15  C   UNL     1      99.016 128.986  83.331  0.00  0.00    +0.000 A 
ATOM     16  C   UNL     1     100.364 129.131  83.668  0.00  0.00    +0.000 A 
ENDBRANCH   9  11
ENDBRANCH   1   9
TORSDOF 3
ENDMDL
