MODEL 1
REMARK VINA RESULT:      -4.0      0.000      0.000
REMARK  Name = *****
REMARK  3 active torsions:
REMARK  status: ('A' for Active; 'I' for Inactive)
REMARK    1  A    between atoms: C_5  and  O_6
REMARK    2  A    between atoms: O_6  and  C_7
REMARK    3  A    between atoms: C_7  and  C_9
REMARK                            x       y       z     vdW  Elec       q    Type
REMARK                         _______ _______ _______ _____ _____    ______ ____
ROOT
ATOM      1  C   UNL     1     102.861 127.314  82.983  0.00  0.00    +0.000 C 
ATOM      2  O   UNL     1     103.471 127.998  83.784  0.00  0.00    +0.000 OA
ENDROOT
BRANCH   1   3
ATOM      3  C   UNL     1     103.399 126.114  82.315  0.00  0.00    +0.000 A 
ATOM      4  C   UNL     1     103.668 126.106  80.942  0.00  0.00    +0.000 A 
ATOM      5  C   UNL     1     104.150 124.942  80.335  0.00  0.00    +0.000 A 
ATOM      6  C   UNL     1     104.360 123.795  81.100  0.00  0.00    +0.000 A 
ATOM      7  C   UNL     1     104.099 123.797  82.469  0.00  0.00    +0.000 A 
ATOM      8  C   UNL     1     103.616 124.957  83.079  0.00  0.00    +0.000 A 
ATOM      9 CL   UNL     1     104.954 122.366  80.350  0.00  0.00    +0.000 Cl
ATOM     10 CL   UNL     1     103.484 127.505  79.946  0.00  0.00    +0.000 Cl
ENDBRANCH   1   3
BRANCH   1  11
ATOM     11  O   UNL     1     101.588 127.503  82.558  0.00  0.00    +0.000 OA
BRANCH  11  16
ATOM     12  C   UNL     1      99.269 126.749  82.377  0.00  0.00    +0.000 C 
ATOM     13  C   UNL     1      98.716 128.096  82.817  0.00  0.00    +0.000 C 
ATOM     14  S   UNL     1      99.130 128.223  84.577  0.00  0.00    +0.000 S 
ATOM     15  C   UNL     1     100.370 126.888  84.552  0.00  0.00    +0.000 C 
ATOM     16  C   UNL     1     100.614 126.573  83.078  0.00  0.00    +0.000 C 
ENDBRANCH  11  16
ENDBRANCH   1  11
TORSDOF 3
ENDMDL
