MODEL 1
REMARK VINA RESULT:      -3.9      0.000      0.000
REMARK  Name = *****
REMARK  3 active torsions:
REMARK  status: ('A' for Active; 'I' for Inactive)
REMARK    1  A    between atoms: C_6  and  S_7
REMARK    2  A    between atoms: S_7  and  C_8
REMARK    3  A    between atoms: C_8  and  C_10
REMARK                            x       y       z     vdW  Elec       q    Type
REMARK                         _______ _______ _______ _____ _____    ______ ____
ROOT
ATOM      1  S   UNL     1     102.242 127.942  82.968  0.00  0.00    +0.000 S 
ENDROOT
BRANCH   1   7
ATOM      2  C   UNL     1     102.888 125.745  81.378  0.00  0.00    +0.000 A 
ATOM      3  C   UNL     1     103.691 125.061  80.459  0.00  0.00    +0.000 A 
ATOM      4  C   UNL     1     104.822 125.679  79.934  0.00  0.00    +0.000 A 
ATOM      5  C   UNL     1     105.158 126.975  80.318  0.00  0.00    +0.000 A 
ATOM      6  C   UNL     1     104.350 127.660  81.232  0.00  0.00    +0.000 A 
ATOM      7  C   UNL     1     103.202 127.054  81.759  0.00  0.00    +0.000 A 
ATOM      8 CL   UNL     1     105.817 124.834  78.813  0.00  0.00    +0.000 Cl
ENDBRANCH   1   7
BRANCH   1   9
ATOM      9  C   UNL     1     101.281 126.686  83.745  0.00  0.00    +0.000 C 
ATOM     10  O   UNL     1     101.769 125.829  84.474  0.00  0.00    +0.000 OA
BRANCH   9  11
ATOM     11  C   UNL     1      99.849 126.761  83.475  0.00  0.00    +0.000 A 
ATOM     12  C   UNL     1      98.889 126.779  84.478  0.00  0.00    +0.000 A 
ATOM     13  S   UNL     1      97.352 126.870  83.729  0.00  0.00    +0.000 S 
ATOM     14  N   UNL     1      97.997 126.877  82.189  0.00  0.00    +0.000 NA
ATOM     15  N   UNL     1      99.318 126.818  82.184  0.00  0.00    +0.000 NA
ENDBRANCH   9  11
ENDBRANCH   1   9
TORSDOF 3
ENDMDL
