MODEL 1
REMARK VINA RESULT:      -4.9      0.000      0.000
REMARK  Name = *****
REMARK  4 active torsions:
REMARK  status: ('A' for Active; 'I' for Inactive)
REMARK    1  A    between atoms: C_1  and  C_2
REMARK    2  A    between atoms: C_5  and  C_8
REMARK    3  A    between atoms: C_9  and  C_10
REMARK    4  A    between atoms: C_15  and  C_16
REMARK                            x       y       z     vdW  Elec       q    Type
REMARK                         _______ _______ _______ _____ _____    ______ ____
ROOT
ATOM      1  C   UNL     1     102.679 126.249  82.631  0.00  0.00    +0.000 C 
ATOM      2  C   UNL     1     102.028 127.187  83.007  0.00  0.00    +0.000 C 
ENDROOT
BRANCH   1   7
ATOM      3  C   UNL     1     105.789 121.743  80.919  0.00  0.00    +0.000 C 
ATOM      4  C   UNL     1     104.952 122.911  81.353  0.00  0.00    +0.000 A 
ATOM      5  C   UNL     1     104.530 123.876  80.431  0.00  0.00    +0.000 A 
ATOM      6  C   UNL     1     103.772 124.973  80.851  0.00  0.00    +0.000 A 
ATOM      7  C   UNL     1     103.435 125.116  82.198  0.00  0.00    +0.000 A 
ATOM      8  C   UNL     1     103.854 124.160  83.123  0.00  0.00    +0.000 A 
ATOM      9  C   UNL     1     104.611 123.063  82.703  0.00  0.00    +0.000 A 
ENDBRANCH   1   7
BRANCH   2  10
ATOM     10  C   UNL     1     101.244 128.292  83.473  0.00  0.00    +0.000 A 
ATOM     11  C   UNL     1     101.914 129.390  84.030  0.00  0.00    +0.000 A 
ATOM     12  C   UNL     1     101.197 130.488  84.514  0.00  0.00    +0.000 A 
ATOM     13  C   UNL     1      99.805 130.498  84.447  0.00  0.00    +0.000 A 
ATOM     14  C   UNL     1      99.128 129.411  83.892  0.00  0.00    +0.000 A 
ATOM     15  C   UNL     1      99.843 128.307  83.404  0.00  0.00    +0.000 A 
BRANCH  15  16
ATOM     16  C   UNL     1      99.083 127.177  82.825  0.00  0.00    +0.000 C 
ATOM     17  O   UNL     1      98.192 127.350  82.000  0.00  0.00    +0.000 OA
ENDBRANCH  15  16
ENDBRANCH   2  10
TORSDOF 3
ENDMDL
