MODEL 1
REMARK VINA RESULT:      -4.8      0.000      0.000
REMARK  Name = *****
REMARK  4 active torsions:
REMARK  status: ('A' for Active; 'I' for Inactive)
REMARK    1  A    between atoms: C_4  and  C_7
REMARK    2  A    between atoms: C_7  and  O_9
REMARK    3  A    between atoms: O_9  and  C_10
REMARK    4  A    between atoms: C_10  and  C_11
REMARK                            x       y       z     vdW  Elec       q    Type
REMARK                         _______ _______ _______ _____ _____    ______ ____
ROOT
ATOM      1  O   UNL     1     100.404 126.733  82.585  0.00  0.00    +0.000 OA
ENDROOT
BRANCH   1   2
ATOM      2  C   UNL     1      99.269 127.470  82.741  0.00  0.00    +0.000 C 
ATOM      3  O   UNL     1      98.244 127.335  82.086  0.00  0.00    +0.000 OA
BRANCH   2   7
ATOM      4  C   UNL     1      98.464 130.693  85.545  0.00  0.00    +0.000 C 
ATOM      5  C   UNL     1      98.688 129.293  86.110  0.00  0.00    +0.000 C 
ATOM      6  C   UNL     1      98.544 128.225  85.028  0.00  0.00    +0.000 C 
ATOM      7  C   UNL     1      99.473 128.498  83.839  0.00  0.00    +0.000 C 
ATOM      8  C   UNL     1      99.250 129.906  83.276  0.00  0.00    +0.000 C 
ATOM      9  C   UNL     1      99.381 130.973  84.358  0.00  0.00    +0.000 C 
ENDBRANCH   2   7
ENDBRANCH   1   2
BRANCH   1  10
ATOM     10  C   UNL     1     101.634 127.444  82.756  0.00  0.00    +0.000 C 
BRANCH  10  11
ATOM     11  C   UNL     1     102.679 126.854  81.843  0.00  0.00    +0.000 A 
ATOM     12  C   UNL     1     103.527 127.688  81.099  0.00  0.00    +0.000 A 
ATOM     13  C   UNL     1     104.477 127.139  80.234  0.00  0.00    +0.000 A 
ATOM     14  C   UNL     1     104.578 125.756  80.103  0.00  0.00    +0.000 A 
ATOM     15  C   UNL     1     103.734 124.915  80.826  0.00  0.00    +0.000 A 
ATOM     16  C   UNL     1     102.785 125.464  81.691  0.00  0.00    +0.000 A 
ATOM     17 CL   UNL     1     105.747 125.083  79.035  0.00  0.00    +0.000 Cl
ENDBRANCH  10  11
ENDBRANCH   1  10
TORSDOF 4
ENDMDL
