MODEL 1
REMARK VINA RESULT:      -4.1      0.000      0.000
REMARK  Name = *****
REMARK  4 active torsions:
REMARK  status: ('A' for Active; 'I' for Inactive)
REMARK    1  A    between atoms: C_7  and  C_9
REMARK    2  A    between atoms: C_9  and  O_11
REMARK    3  A    between atoms: O_11  and  C_12
REMARK    4  A    between atoms: C_12  and  C_13
REMARK                            x       y       z     vdW  Elec       q    Type
REMARK                         _______ _______ _______ _____ _____    ______ ____
ROOT
ATOM      1  C   UNL     1      90.146  67.153  85.694  0.00  0.00    +0.000 C 
ATOM      2  O   UNL     1      90.373  67.055  84.492  0.00  0.00    +0.000 OA
ENDROOT
BRANCH   1   9
ATOM      3  C   UNL     1      87.891  65.330  88.291  0.00  0.00    +0.000 C 
ATOM      4  C   UNL     1      87.500  64.029  87.555  0.00  0.00    +0.000 C 
ATOM      5  C   UNL     1      87.564  64.201  86.028  0.00  0.00    +0.000 C 
ATOM      6  C   UNL     1      86.815  65.452  85.642  0.00  0.00    +0.000 C 
ATOM      7  C   UNL     1      87.148  66.579  86.293  0.00  0.00    +0.000 C 
ATOM      8  C   UNL     1      88.287  66.441  87.291  0.00  0.00    +0.000 C 
ATOM      9  C   UNL     1      89.595  66.025  86.562  0.00  0.00    +0.000 C 
ATOM     10  S   UNL     1      89.324  64.470  85.568  0.00  0.00    +0.000 S 
ENDBRANCH   1   9
BRANCH   1  11
ATOM     11  O   UNL     1      90.253  68.312  86.402  0.00  0.00    +0.000 OA
BRANCH  11  12
ATOM     12  C   UNL     1      89.731  69.488  85.775  0.00  0.00    +0.000 C 
BRANCH  12  13
ATOM     13  C   UNL     1      88.674  70.098  86.657  0.00  0.00    +0.000 A 
ATOM     14  C   UNL     1      87.533  70.686  86.092  0.00  0.00    +0.000 A 
ATOM     15  C   UNL     1      86.555  71.258  86.907  0.00  0.00    +0.000 A 
ATOM     16  C   UNL     1      86.709  71.253  88.292  0.00  0.00    +0.000 A 
ATOM     17  C   UNL     1      87.845  70.681  88.864  0.00  0.00    +0.000 A 
ATOM     18  C   UNL     1      88.825  70.110  88.050  0.00  0.00    +0.000 A 
ENDBRANCH  12  13
ENDBRANCH  11  12
ENDBRANCH   1  11
TORSDOF 4
ENDMDL
