REMARK  Name = *****
REMARK  4 active torsions:
REMARK  status: ('A' for Active; 'I' for Inactive)
REMARK    1  A    between atoms: C_1  and  C_2
REMARK    2  A    between atoms: C_4  and  C_16
REMARK    3  A    between atoms: C_5  and  C_8
REMARK    4  A    between atoms: N_9  and  C_10
REMARK                            x       y       z     vdW  Elec       q    Type
REMARK                         _______ _______ _______ _____ _____    ______ ____
ROOT
ATOM      1  C   UNL     1       2.465   1.138  -0.073  0.00  0.00    +0.000 C 
ATOM      2  C   UNL     1       1.187   0.353  -0.098  0.00  0.00    +0.000 A 
ATOM      3  C   UNL     1      -0.023   0.956   0.274  0.00  0.00    +0.000 A 
ATOM      4  C   UNL     1      -1.229   0.231   0.291  0.00  0.00    +0.000 A 
ATOM      5  C   UNL     1      -1.201  -1.130  -0.065  0.00  0.00    +0.000 A 
ATOM      6  C   UNL     1       0.010  -1.738  -0.423  0.00  0.00    +0.000 A 
ATOM      7  C   UNL     1       1.196  -1.003  -0.434  0.00  0.00    +0.000 A 
ATOM      8  C   UNL     1      -2.494   0.937   0.690  0.00  0.00    +0.000 C 
ENDROOT
BRANCH   5   9
ATOM      9  C   UNL     1      -2.436  -1.950  -0.065  0.00  0.00    +0.000 C 
ATOM     10  N   UNL     1      -2.432  -3.201  -0.408  0.00  0.00    +0.000 NA
BRANCH  10  11
ATOM     11  C   UNL     1      -3.673  -3.852  -0.359  0.00  0.00    +0.000 A 
ATOM     12  C   UNL     1      -4.541  -3.807  -1.453  0.00  0.00    +0.000 A 
ATOM     13  C   UNL     1      -5.772  -4.464  -1.407  0.00  0.00    +0.000 A 
ATOM     14  C   UNL     1      -6.135  -5.181  -0.267  0.00  0.00    +0.000 A 
ATOM     15  C   UNL     1      -5.267  -5.244   0.823  0.00  0.00    +0.000 A 
ATOM     16  C   UNL     1      -4.037  -4.584   0.773  0.00  0.00    +0.000 A 
ENDBRANCH  10  11
ENDBRANCH   5   9
TORSDOF 2
