MODEL 1
REMARK VINA RESULT:      -5.0      0.000      0.000
REMARK  Name = *****
REMARK  4 active torsions:
REMARK  status: ('A' for Active; 'I' for Inactive)
REMARK    1  A    between atoms: C_1  and  C_2
REMARK    2  A    between atoms: C_5  and  N_8
REMARK    3  A    between atoms: C_9  and  C_10
REMARK    4  A    between atoms: C_14  and  C_16
REMARK                            x       y       z     vdW  Elec       q    Type
REMARK                         _______ _______ _______ _____ _____    ______ ____
ROOT
ATOM      1  N   UNL     1     102.855 126.249  82.431  0.00  0.00    +0.000 NA
ATOM      2  C   UNL     1     101.562 126.159  82.570  0.00  0.00    +0.000 C 
ENDROOT
BRANCH   2   3
ATOM      3  C   UNL     1     100.704 127.329  82.911  0.00  0.00    +0.000 C 
ATOM      4  C   UNL     1      99.324 127.317  82.573  0.00  0.00    +0.000 C 
ATOM      5  C   UNL     1      98.628 128.481  82.964  0.00  0.00    +0.000 C 
ATOM      6  C   UNL     1      99.226 129.567  83.623  0.00  0.00    +0.000 C 
ATOM      7  C   UNL     1     100.585 129.550  83.922  0.00  0.00    +0.000 C 
ATOM      8  C   UNL     1     101.318 128.415  83.572  0.00  0.00    +0.000 C 
ATOM      9  C   UNL     1     101.229 130.681  84.656  0.00  0.00    +0.000 C 
ATOM     10  O   UNL     1      98.718 126.365  81.972  0.00  0.00    +0.000 OA
ENDBRANCH   2   3
BRANCH   1  15
ATOM     11  C   UNL     1     105.679 121.447  81.155  0.00  0.00    +0.000 C 
ATOM     12  C   UNL     1     104.913 122.692  81.481  0.00  0.00    +0.000 A 
ATOM     13  C   UNL     1     104.605 123.619  80.476  0.00  0.00    +0.000 A 
ATOM     14  C   UNL     1     103.915 124.794  80.785  0.00  0.00    +0.000 A 
ATOM     15  C   UNL     1     103.521 125.062  82.098  0.00  0.00    +0.000 A 
ATOM     16  C   UNL     1     103.853 124.153  83.104  0.00  0.00    +0.000 A 
ATOM     17  C   UNL     1     104.544 122.977  82.802  0.00  0.00    +0.000 A 
ENDBRANCH   1  15
TORSDOF 2
ENDMDL
