MODEL 1
REMARK VINA RESULT:      -4.2      0.000      0.000
REMARK  Name = *****
REMARK  5 active torsions:
REMARK  status: ('A' for Active; 'I' for Inactive)
REMARK    1  A    between atoms: C_1  and  C_2
REMARK    2  A    between atoms: C_2  and  C_4
REMARK    3  A    between atoms: C_9  and  S_10
REMARK    4  A    between atoms: S_10  and  C_11
REMARK    5  A    between atoms: C_11  and  C_13
REMARK                            x       y       z     vdW  Elec       q    Type
REMARK                         _______ _______ _______ _____ _____    ______ ____
ROOT
ATOM      1  S   UNL     1      88.738  68.663  84.584  0.00  0.00    +0.000 S 
ENDROOT
BRANCH   1   7
ATOM      2  C   UNL     1      88.266  71.417  84.192  0.00  0.00    +0.000 A 
ATOM      3  C   UNL     1      88.691  72.717  83.870  0.00  0.00    +0.000 A 
ATOM      4  C   UNL     1      90.033  72.966  83.582  0.00  0.00    +0.000 A 
ATOM      5  C   UNL     1      90.953  71.923  83.616  0.00  0.00    +0.000 A 
ATOM      6  C   UNL     1      90.534  70.629  83.939  0.00  0.00    +0.000 A 
ATOM      7  C   UNL     1      89.190  70.360  84.239  0.00  0.00    +0.000 A 
BRANCH   2   9
ATOM      8  C   UNL     1      86.348  71.544  85.880  0.00  0.00    +0.000 C 
ATOM      9  C   UNL     1      86.827  71.214  84.492  0.00  0.00    +0.000 C 
ATOM     10  O   UNL     1      86.073  70.760  83.636  0.00  0.00    +0.000 OA
ENDBRANCH   2   9
ENDBRANCH   1   7
BRANCH   1  11
ATOM     11  C   UNL     1      89.425  68.489  86.199  0.00  0.00    +0.000 C 
ATOM     12  O   UNL     1      90.400  67.771  86.397  0.00  0.00    +0.000 OA
BRANCH  11  13
ATOM     13  C   UNL     1      88.723  69.146  87.341  0.00  0.00    +0.000 A 
ATOM     14  C   UNL     1      89.180  70.319  87.957  0.00  0.00    +0.000 A 
ATOM     15  C   UNL     1      88.473  70.878  89.027  0.00  0.00    +0.000 A 
ATOM     16  C   UNL     1      87.309  70.266  89.488  0.00  0.00    +0.000 A 
ATOM     17  C   UNL     1      86.846  69.096  88.892  0.00  0.00    +0.000 A 
ATOM     18  C   UNL     1      87.554  68.535  87.825  0.00  0.00    +0.000 A 
ATOM     19 CL   UNL     1      86.442  70.957  90.803  0.00  0.00    +0.000 Cl
ENDBRANCH  11  13
ENDBRANCH   1  11
TORSDOF 4
ENDMDL
