MODEL 1
REMARK VINA RESULT:      -4.6      0.000      0.000
REMARK  Name = *****
REMARK  5 active torsions:
REMARK  status: ('A' for Active; 'I' for Inactive)
REMARK    1  A    between atoms: C_1  and  C_2
REMARK    2  A    between atoms: C_5  and  S_8
REMARK    3  A    between atoms: S_8  and  O_10
REMARK    4  A    between atoms: O_10  and  C_11
REMARK    5  A    between atoms: C_11  and  C_13
REMARK                            x       y       z     vdW  Elec       q    Type
REMARK                         _______ _______ _______ _____ _____    ______ ____
ROOT
ATOM      1  S   UNL     1      89.192  66.354  85.244  0.00  0.00    +0.000 S 
ATOM      2  O   UNL     1      90.477  66.717  84.557  0.00  0.00    +0.000 OA
ENDROOT
BRANCH   1   7
ATOM      3  C   UNL     1      88.108  70.943  89.151  0.00  0.00    +0.000 C 
ATOM      4  C   UNL     1      88.352  69.832  88.172  0.00  0.00    +0.000 A 
ATOM      5  C   UNL     1      87.487  68.733  88.120  0.00  0.00    +0.000 A 
ATOM      6  C   UNL     1      87.730  67.681  87.232  0.00  0.00    +0.000 A 
ATOM      7  C   UNL     1      88.846  67.712  86.391  0.00  0.00    +0.000 A 
ATOM      8  C   UNL     1      89.724  68.800  86.457  0.00  0.00    +0.000 A 
ATOM      9  C   UNL     1      89.479  69.852  87.343  0.00  0.00    +0.000 A 
ENDBRANCH   1   7
BRANCH   1  10
ATOM     10  O   UNL     1      89.560  65.335  86.442  0.00  0.00    +0.000 OA
BRANCH  10  11
ATOM     11  C   UNL     1      88.820  64.166  86.418  0.00  0.00    +0.000 C 
ATOM     12  C   UNL     1      88.810  63.363  85.343  0.00  0.00    +0.000 C 
BRANCH  11  13
ATOM     13  C   UNL     1      88.158  63.811  87.688  0.00  0.00    +0.000 A 
ATOM     14  C   UNL     1      87.209  62.779  87.722  0.00  0.00    +0.000 A 
ATOM     15  C   UNL     1      86.594  62.415  88.922  0.00  0.00    +0.000 A 
ATOM     16  C   UNL     1      86.924  63.077  90.103  0.00  0.00    +0.000 A 
ATOM     17  C   UNL     1      87.869  64.100  90.085  0.00  0.00    +0.000 A 
ATOM     18  C   UNL     1      88.483  64.465  88.885  0.00  0.00    +0.000 A 
ENDBRANCH  11  13
ENDBRANCH  10  11
ENDBRANCH   1  10
TORSDOF 4
ENDMDL
