MODEL 1
REMARK VINA RESULT:      -3.7      0.000      0.000
REMARK  Name = *****
REMARK  3 active torsions:
REMARK  status: ('A' for Active; 'I' for Inactive)
REMARK    1  A    between atoms: C_5  and  C_8
REMARK    2  A    between atoms: C_8  and  S_9
REMARK    3  A    between atoms: S_9  and  C_10
REMARK                            x       y       z     vdW  Elec       q    Type
REMARK                         _______ _______ _______ _____ _____    ______ ____
ROOT
ATOM      1  C   UNL     1      88.989  70.376  83.838  0.00  0.00    +0.000 C 
ENDROOT
BRANCH   1   6
ATOM      2  C   UNL     1      88.320  70.472  88.486  0.00  0.00    +0.000 C 
ATOM      3  C   UNL     1      86.893  70.389  87.953  0.00  0.00    +0.000 C 
ATOM      4  C   UNL     1      86.607  71.342  86.797  0.00  0.00    +0.000 C 
ATOM      5  C   UNL     1      87.212  70.942  85.485  0.00  0.00    +0.000 C 
ATOM      6  C   UNL     1      88.520  70.733  85.233  0.00  0.00    +0.000 C 
ATOM      7  C   UNL     1      89.597  70.838  86.291  0.00  0.00    +0.000 C 
ATOM      8  C   UNL     1      89.382  69.956  87.521  0.00  0.00    +0.000 C 
ENDBRANCH   1   6
BRANCH   1   9
ATOM      9  S   UNL     1      88.249  68.785  83.330  0.00  0.00    +0.000 S 
BRANCH   9  10
ATOM     10  C   UNL     1      88.720  67.736  84.695  0.00  0.00    +0.000 A 
ATOM     11  C   UNL     1      87.715  67.265  85.547  0.00  0.00    +0.000 A 
ATOM     12  C   UNL     1      88.026  66.420  86.614  0.00  0.00    +0.000 A 
ATOM     13  C   UNL     1      89.346  66.033  86.834  0.00  0.00    +0.000 A 
ATOM     14  C   UNL     1      90.353  66.485  85.983  0.00  0.00    +0.000 A 
ATOM     15  C   UNL     1      90.040  67.329  84.913  0.00  0.00    +0.000 A 
ENDBRANCH   9  10
ENDBRANCH   1   9
TORSDOF 3
ENDMDL
