MODEL 1
REMARK VINA RESULT:      -5.3      0.000      0.000
REMARK  Name = *****
REMARK  2 active torsions:
REMARK  status: ('A' for Active; 'I' for Inactive)
REMARK    1  A    between atoms: C_4  and  C_7
REMARK    2  A    between atoms: C_7  and  C_8
REMARK                            x       y       z     vdW  Elec       q    Type
REMARK                         _______ _______ _______ _____ _____    ______ ____
ROOT
ATOM      1  C   UNL     1     103.275 126.567  82.092  0.00  0.00    +0.000 A 
ATOM      2  C   UNL     1     103.747 125.291  82.111  0.00  0.00    +0.000 A 
ATOM      3  C   UNL     1     103.781 124.422  83.261  0.00  0.00    +0.000 A 
ATOM      4  C   UNL     1     104.242 123.166  83.306  0.00  0.00    +0.000 A 
ATOM      5  C   UNL     1     104.816 122.366  82.251  0.00  0.00    +0.000 A 
ATOM      6  C   UNL     1     105.020 122.670  80.963  0.00  0.00    +0.000 A 
ATOM      7  C   UNL     1     104.727 123.892  80.254  0.00  0.00    +0.000 A 
ATOM      8  C   UNL     1     104.185 125.017  80.737  0.00  0.00    +0.000 A 
ATOM      9  C   UNL     1     103.943 126.196  79.931  0.00  0.00    +0.000 A 
ATOM     10  C   UNL     1     103.404 127.115  80.741  0.00  0.00    +0.000 A 
ENDROOT
BRANCH   1  11
ATOM     11  C   UNL     1     102.712 127.413  83.195  0.00  0.00    +0.000 C 
BRANCH  11  15
ATOM     12  C   UNL     1      98.455 128.081  82.894  0.00  0.00    +0.000 A 
ATOM     13  C   UNL     1      99.009 126.892  82.424  0.00  0.00    +0.000 A 
ATOM     14  C   UNL     1     100.384 126.676  82.520  0.00  0.00    +0.000 A 
ATOM     15  C   UNL     1     101.222 127.650  83.083  0.00  0.00    +0.000 A 
ATOM     16  C   UNL     1     100.652 128.842  83.554  0.00  0.00    +0.000 A 
ATOM     17  C   UNL     1      99.275 129.056  83.459  0.00  0.00    +0.000 A 
ENDBRANCH  11  15
ENDBRANCH   1  11
TORSDOF 2
ENDMDL
