REMARK  Name = *****
REMARK  4 active torsions:
REMARK  status: ('A' for Active; 'I' for Inactive)
REMARK    1  A    between atoms: C_1  and  C_2
REMARK    2  A    between atoms: C_5  and  N_8
REMARK    3  A    between atoms: N_8  and  S_9
REMARK    4  A    between atoms: S_9  and  N_12
REMARK                            x       y       z     vdW  Elec       q    Type
REMARK                         _______ _______ _______ _____ _____    ______ ____
ROOT
ATOM      1  N   UNL     1      -2.787  -2.554   0.181  0.00  0.00    +0.000 N 
ATOM      2  H   UNL     1      -2.259  -2.246   0.953  0.00  0.00    +0.000 HD
ENDROOT
BRANCH   1   7
ATOM      3  C   UNL     1      -0.098  -5.451  -3.995  0.00  0.00    +0.000 C 
ATOM      4  C   UNL     1      -0.797  -4.704  -2.895  0.00  0.00    +0.000 A 
ATOM      5  C   UNL     1      -0.726  -5.112  -1.555  0.00  0.00    +0.000 A 
ATOM      6  C   UNL     1      -1.385  -4.395  -0.551  0.00  0.00    +0.000 A 
ATOM      7  C   UNL     1      -2.148  -3.273  -0.874  0.00  0.00    +0.000 A 
ATOM      8  C   UNL     1      -2.204  -2.844  -2.198  0.00  0.00    +0.000 A 
ATOM      9  C   UNL     1      -1.541  -3.556  -3.202  0.00  0.00    +0.000 A 
ATOM     10 CL   UNL     1       0.173  -6.512  -1.085  0.00  0.00    +0.000 Cl
ENDBRANCH   1   7
BRANCH   1  11
ATOM     11  S   UNL     1      -4.431  -2.232   0.112  0.00  0.00    +0.000 S 
ATOM     12  O   UNL     1      -4.794  -1.641   1.380  0.00  0.00    +0.000 OA
ATOM     13  O   UNL     1      -4.750  -1.579  -1.136  0.00  0.00    +0.000 OA
BRANCH  11  14
ATOM     14  N   UNL     1      -5.075  -3.811   0.088  0.00  0.00    +0.000 NA
ATOM     15  C   UNL     1      -4.950  -4.574   1.354  0.00  0.00    +0.000 C 
ATOM     16  C   UNL     1      -4.485  -5.996   1.051  0.00  0.00    +0.000 C 
ATOM     17  C   UNL     1      -5.572  -6.924   0.520  0.00  0.00    +0.000 C 
ATOM     18  C   UNL     1      -6.290  -6.416  -0.728  0.00  0.00    +0.000 C 
ATOM     19  C   UNL     1      -7.152  -5.190  -0.444  0.00  0.00    +0.000 C 
ATOM     20  C   UNL     1      -6.421  -3.854  -0.548  0.00  0.00    +0.000 C 
ENDBRANCH  11  14
ENDBRANCH   1  11
TORSDOF 3
