MODEL 1
REMARK VINA RESULT:      -5.1      0.000      0.000
REMARK  Name = *****
REMARK  4 active torsions:
REMARK  status: ('A' for Active; 'I' for Inactive)
REMARK    1  A    between atoms: C_3  and  O_8
REMARK    2  A    between atoms: O_8  and  C_9
REMARK    3  A    between atoms: C_9  and  C_11
REMARK    4  A    between atoms: C_14  and  C_17
REMARK                            x       y       z     vdW  Elec       q    Type
REMARK                         _______ _______ _______ _____ _____    ______ ____
ROOT
ATOM      1  C   UNL     1     103.342 127.241  81.980  0.00  0.00    +0.000 C 
ATOM      2  O   UNL     1     103.556 128.079  81.118  0.00  0.00    +0.000 OA
ENDROOT
BRANCH   1   3
ATOM      3  C   UNL     1     103.770 125.818  81.855  0.00  0.00    +0.000 A 
ATOM      4  C   UNL     1     103.883 124.960  82.957  0.00  0.00    +0.000 A 
ATOM      5  C   UNL     1     104.291 123.634  82.778  0.00  0.00    +0.000 A 
ATOM      6  C   UNL     1     104.598 123.145  81.498  0.00  0.00    +0.000 A 
ATOM      7  C   UNL     1     104.475 124.006  80.397  0.00  0.00    +0.000 A 
ATOM      8  C   UNL     1     104.068 125.331  80.575  0.00  0.00    +0.000 A 
BRANCH   6   9
ATOM      9  C   UNL     1     105.016 121.705  81.310  0.00  0.00    +0.000 C 
ATOM     10  F   UNL     1     106.109 121.572  80.509  0.00  0.00    +0.000 F 
ATOM     11  F   UNL     1     105.338 121.104  82.487  0.00  0.00    +0.000 F 
ATOM     12  F   UNL     1     104.046 120.933  80.746  0.00  0.00    +0.000 F 
ENDBRANCH   6   9
ENDBRANCH   1   3
BRANCH   1  13
ATOM     13  O   UNL     1     102.693 127.429  83.186  0.00  0.00    +0.000 OA
BRANCH  13  16
ATOM     14  C   UNL     1      99.456 129.132  83.530  0.00  0.00    +0.000 A 
ATOM     15  C   UNL     1     100.828 128.879  83.575  0.00  0.00    +0.000 A 
ATOM     16  C   UNL     1     101.320 127.673  83.072  0.00  0.00    +0.000 A 
ATOM     17  C   UNL     1     100.464 126.702  82.559  0.00  0.00    +0.000 A 
ATOM     18  C   UNL     1      99.103 126.970  82.520  0.00  0.00    +0.000 A 
ATOM     19  C   UNL     1      98.591 128.175  82.997  0.00  0.00    +0.000 A 
ATOM     20  F   UNL     1      98.264 126.051  82.023  0.00  0.00    +0.000 F 
ENDBRANCH  13  16
ENDBRANCH   1  13
TORSDOF 4
ENDMDL
