MODEL 1
REMARK VINA RESULT:      -4.6      0.000      0.000
REMARK  Name = *****
REMARK  5 active torsions:
REMARK  status: ('A' for Active; 'I' for Inactive)
REMARK    1  A    between atoms: C_1  and  C_2
REMARK    2  A    between atoms: C_5  and  C_8
REMARK    3  A    between atoms: C_8  and  O_9
REMARK    4  A    between atoms: O_9  and  C_10
REMARK    5  A    between atoms: C_11  and  C_17
REMARK                            x       y       z     vdW  Elec       q    Type
REMARK                         _______ _______ _______ _____ _____    ______ ____
ROOT
ATOM      1  O   UNL     1      88.441  69.639  87.207  0.00  0.00    +0.000 OA
ENDROOT
BRANCH   1   2
ATOM      2  C   UNL     1      88.833  68.365  86.893  0.00  0.00    +0.000 A 
ATOM      3  C   UNL     1      87.991  67.339  87.364  0.00  0.00    +0.000 A 
ATOM      4  C   UNL     1      88.310  66.000  87.090  0.00  0.00    +0.000 A 
ATOM      5  C   UNL     1      89.454  65.686  86.360  0.00  0.00    +0.000 A 
ATOM      6  C   UNL     1      90.287  66.698  85.894  0.00  0.00    +0.000 A 
ATOM      7  C   UNL     1      89.978  68.036  86.159  0.00  0.00    +0.000 A 
ATOM      8 CL   UNL     1      89.838  64.043  86.029  0.00  0.00    +0.000 Cl
ATOM      9  C   UNL     1      86.752  67.665  88.153  0.00  0.00    +0.000 C 
ENDBRANCH   1   2
BRANCH   1  10
ATOM     10  C   UNL     1      88.124  70.520  86.132  0.00  0.00    +0.000 C 
BRANCH  10  15
ATOM     11  C   UNL     1      83.025  73.097  87.282  0.00  0.00    +0.000 C 
ATOM     12  C   UNL     1      84.323  72.407  86.986  0.00  0.00    +0.000 A 
ATOM     13  C   UNL     1      84.763  72.257  85.666  0.00  0.00    +0.000 A 
ATOM     14  C   UNL     1      85.989  71.646  85.394  0.00  0.00    +0.000 A 
ATOM     15  C   UNL     1      86.803  71.182  86.437  0.00  0.00    +0.000 A 
ATOM     16  C   UNL     1      86.370  71.352  87.758  0.00  0.00    +0.000 A 
ATOM     17  C   UNL     1      85.144  71.963  88.029  0.00  0.00    +0.000 A 
ENDBRANCH  10  15
ENDBRANCH   1  10
TORSDOF 3
ENDMDL
