MODEL 1
REMARK VINA RESULT:      -4.2      0.000      0.000
REMARK  Name = *****
REMARK  2 active torsions:
REMARK  status: ('A' for Active; 'I' for Inactive)
REMARK    1  A    between atoms: C_4  and  N_7
REMARK    2  A    between atoms: C_8  and  C_9
REMARK                            x       y       z     vdW  Elec       q    Type
REMARK                         _______ _______ _______ _____ _____    ______ ____
ROOT
ATOM      1  N   UNL     1     101.663 125.850  83.907  0.00  0.00    +0.000 NA
ATOM      2  C   UNL     1     102.813 125.775  83.308  0.00  0.00    +0.000 C 
ATOM      3 CL   UNL     1     103.728 124.351  83.701  0.00  0.00    +0.000 Cl
ENDROOT
BRANCH   2   4
ATOM      4  C   UNL     1     103.391 126.757  82.355  0.00  0.00    +0.000 A 
ATOM      5  C   UNL     1     103.150 126.644  80.982  0.00  0.00    +0.000 A 
ATOM      6  C   UNL     1     103.691 127.582  80.100  0.00  0.00    +0.000 A 
ATOM      7  C   UNL     1     104.461 128.636  80.596  0.00  0.00    +0.000 A 
ATOM      8  C   UNL     1     104.692 128.761  81.966  0.00  0.00    +0.000 A 
ATOM      9  C   UNL     1     104.153 127.824  82.851  0.00  0.00    +0.000 A 
ATOM     10 CL   UNL     1     105.127 129.791  79.510  0.00  0.00    +0.000 Cl
ENDBRANCH   2   4
BRANCH   1  14
ATOM     11  C   UNL     1      98.980 129.006  83.205  0.00  0.00    +0.000 A 
ATOM     12  C   UNL     1      98.858 127.823  82.480  0.00  0.00    +0.000 A 
ATOM     13  C   UNL     1      99.745 126.769  82.709  0.00  0.00    +0.000 A 
ATOM     14  C   UNL     1     100.772 126.899  83.649  0.00  0.00    +0.000 A 
ATOM     15  C   UNL     1     100.868 128.078  84.392  0.00  0.00    +0.000 A 
ATOM     16  C   UNL     1      99.982 129.134  84.166  0.00  0.00    +0.000 A 
ENDBRANCH   1  14
TORSDOF 2
ENDMDL
