MODEL 1
REMARK VINA RESULT:      -4.7      0.000      0.000
REMARK  Name = *****
REMARK  4 active torsions:
REMARK  status: ('A' for Active; 'I' for Inactive)
REMARK    1  A    between atoms: C_1  and  C_2
REMARK    2  A    between atoms: C_3  and  C_16
REMARK    3  A    between atoms: C_5  and  C_7
REMARK    4  A    between atoms: C_8  and  C_9
REMARK                            x       y       z     vdW  Elec       q    Type
REMARK                         _______ _______ _______ _____ _____    ______ ____
ROOT
ATOM      1  C   UNL     1     103.062 126.776  81.423  0.00  0.00    +0.000 C 
ATOM      2  C   UNL     1     102.051 126.516  82.268  0.00  0.00    +0.000 C 
ENDROOT
BRANCH   1   7
ATOM      3  C   UNL     1     105.178 122.276  80.443  0.00  0.00    +0.000 C 
ATOM      4  C   UNL     1     104.806 123.710  80.398  0.00  0.00    +0.000 A 
ATOM      5  C   UNL     1     105.269 124.672  79.526  0.00  0.00    +0.000 A 
ATOM      6  O   UNL     1     104.693 125.872  79.795  0.00  0.00    +0.000 OA
ATOM      7  C   UNL     1     103.836 125.723  80.862  0.00  0.00    +0.000 A 
ATOM      8  C   UNL     1     103.893 124.390  81.250  0.00  0.00    +0.000 A 
ATOM      9  C   UNL     1     106.223 124.656  78.398  0.00  0.00    +0.000 C 
ENDBRANCH   1   7
BRANCH   2  10
ATOM     10  C   UNL     1     101.220 127.555  82.891  0.00  0.00    +0.000 A 
ATOM     11  C   UNL     1      99.819 127.520  82.840  0.00  0.00    +0.000 A 
ATOM     12  C   UNL     1      99.061 128.511  83.470  0.00  0.00    +0.000 A 
ATOM     13  C   UNL     1      99.701 129.536  84.163  0.00  0.00    +0.000 A 
ATOM     14  C   UNL     1     101.090 129.575  84.237  0.00  0.00    +0.000 A 
ATOM     15  C   UNL     1     101.847 128.583  83.607  0.00  0.00    +0.000 A 
ATOM     16 CL   UNL     1      98.767 130.755  84.939  0.00  0.00    +0.000 Cl
ENDBRANCH   2  10
TORSDOF 2
ENDMDL
