MODEL 1
REMARK VINA RESULT:      -4.1      0.000      0.000
REMARK  Name = *****
REMARK  2 active torsions:
REMARK  status: ('A' for Active; 'I' for Inactive)
REMARK    1  A    between atoms: N_5  and  S_6
REMARK    2  A    between atoms: S_6  and  C_7
REMARK                            x       y       z     vdW  Elec       q    Type
REMARK                         _______ _______ _______ _____ _____    ______ ____
ROOT
ATOM      1  C   UNL     1      87.418  63.733  90.421  0.00  0.00    +0.000 C 
ATOM      2  C   UNL     1      88.739  63.725  89.652  0.00  0.00    +0.000 C 
ATOM      3  C   UNL     1      88.542  64.065  88.177  0.00  0.00    +0.000 C 
ATOM      4  C   UNL     1      87.786  65.380  88.061  0.00  0.00    +0.000 C 
ATOM      5  N   UNL     1      88.118  66.436  87.385  0.00  0.00    +0.000 NA
ATOM      6  C   UNL     1      86.467  65.430  88.813  0.00  0.00    +0.000 C 
ATOM      7  C   UNL     1      86.698  65.074  90.276  0.00  0.00    +0.000 C 
ENDROOT
BRANCH   5   8
ATOM      8  S   UNL     1      89.538  66.464  86.518  0.00  0.00    +0.000 S 
BRANCH   8   9
ATOM      9  C   UNL     1      89.659  68.193  86.072  0.00  0.00    +0.000 A 
ATOM     10  C   UNL     1      89.522  69.237  86.994  0.00  0.00    +0.000 A 
ATOM     11  C   UNL     1      89.632  70.569  86.585  0.00  0.00    +0.000 A 
ATOM     12  C   UNL     1      89.883  70.871  85.248  0.00  0.00    +0.000 A 
ATOM     13  C   UNL     1      90.023  69.842  84.320  0.00  0.00    +0.000 A 
ATOM     14  C   UNL     1      89.913  68.510  84.730  0.00  0.00    +0.000 A 
ENDBRANCH   8   9
ENDBRANCH   5   8
TORSDOF 2
ENDMDL
