MODEL 1
REMARK VINA RESULT:      -4.8      0.000      0.000
REMARK  Name = *****
REMARK  2 active torsions:
REMARK  status: ('A' for Active; 'I' for Inactive)
REMARK    1  A    between atoms: C_2  and  C_11
REMARK    2  A    between atoms: C_3  and  C_4
REMARK                            x       y       z     vdW  Elec       q    Type
REMARK                         _______ _______ _______ _____ _____    ______ ____
ROOT
ATOM      1  C   UNL     1     103.684 128.199  81.947  0.00  0.00    +0.000 C 
ATOM      2  C   UNL     1     102.746 127.138  82.465  0.00  0.00    +0.000 C 
ATOM      3  C   UNL     1     103.258 127.080  81.032  0.00  0.00    +0.000 C 
ENDROOT
BRANCH   3   4
ATOM      4  C   UNL     1     104.245 126.007  80.635  0.00  0.00    +0.000 A 
ATOM      5  C   UNL     1     103.915 124.642  80.731  0.00  0.00    +0.000 A 
ATOM      6  C   UNL     1     104.822 123.648  80.356  0.00  0.00    +0.000 A 
ATOM      7  C   UNL     1     106.072 124.009  79.873  0.00  0.00    +0.000 A 
ATOM      8  C   UNL     1     106.428 125.345  79.754  0.00  0.00    +0.000 A 
ATOM      9  C   UNL     1     105.517 126.336  80.129  0.00  0.00    +0.000 A 
ATOM     10  F   UNL     1     106.944 123.058  79.514  0.00  0.00    +0.000 F 
ENDBRANCH   3   4
BRANCH   2  11
ATOM     11  C   UNL     1     101.303 127.485  82.744  0.00  0.00    +0.000 A 
ATOM     12  C   UNL     1     100.254 126.636  82.357  0.00  0.00    +0.000 A 
ATOM     13  C   UNL     1      98.921 126.951  82.633  0.00  0.00    +0.000 A 
ATOM     14  C   UNL     1      98.609 128.125  83.314  0.00  0.00    +0.000 A 
ATOM     15  C   UNL     1      99.630 128.979  83.719  0.00  0.00    +0.000 A 
ATOM     16  C   UNL     1     100.961 128.658  83.437  0.00  0.00    +0.000 A 
ENDBRANCH   2  11
TORSDOF 2
ENDMDL
