MODEL 1
REMARK VINA RESULT:      -5.1      0.000      0.000
REMARK  Name = *****
REMARK  1 active torsions:
REMARK  status: ('A' for Active; 'I' for Inactive)
REMARK    1  A    between atoms: C_10  and  C_11
REMARK                            x       y       z     vdW  Elec       q    Type
REMARK                         _______ _______ _______ _____ _____    ______ ____
ROOT
ATOM      1  C   UNL     1     106.372 123.743  80.248  0.00  0.00    +0.000 C 
ATOM      2  C   UNL     1     105.092 122.960  80.549  0.00  0.00    +0.000 C 
ATOM      3  C   UNL     1     104.125 123.760  81.436  0.00  0.00    +0.000 C 
ATOM      4  C   UNL     1     104.037 125.192  81.015  0.00  0.00    +0.000 C 
ATOM      5  C   UNL     1     104.901 125.769  80.167  0.00  0.00    +0.000 C 
ATOM      6  C   UNL     1     106.078 125.082  79.560  0.00  0.00    +0.000 C 
ATOM      7  C   UNL     1     104.567 127.197  79.887  0.00  0.00    +0.000 C 
ATOM      8  C   UNL     1     103.301 127.442  80.718  0.00  0.00    +0.000 C 
ATOM      9  C   UNL     1     103.023 126.138  81.432  0.00  0.00    +0.000 C 
ATOM     10  C   UNL     1     102.028 125.895  82.300  0.00  0.00    +0.000 C 
ENDROOT
BRANCH  10  11
ATOM     11  C   UNL     1     101.035 126.900  82.679  0.00  0.00    +0.000 A 
ATOM     12  C   UNL     1      99.693 126.734  82.320  0.00  0.00    +0.000 A 
ATOM     13  C   UNL     1      98.748 127.697  82.676  0.00  0.00    +0.000 A 
ATOM     14  C   UNL     1      99.139 128.829  83.390  0.00  0.00    +0.000 A 
ATOM     15  C   UNL     1     100.476 129.000  83.749  0.00  0.00    +0.000 A 
ATOM     16  C   UNL     1     101.423 128.038  83.394  0.00  0.00    +0.000 A 
ENDBRANCH  10  11
TORSDOF 1
ENDMDL
