MODEL 1
REMARK VINA RESULT:      -3.8      0.000      0.000
REMARK  Name = *****
REMARK  5 active torsions:
REMARK  status: ('A' for Active; 'I' for Inactive)
REMARK    1  A    between atoms: C_1  and  C_2
REMARK    2  A    between atoms: C_4  and  C_8
REMARK    3  A    between atoms: C_8  and  S_9
REMARK    4  A    between atoms: S_9  and  C_10
REMARK    5  A    between atoms: C_10  and  C_11
REMARK                            x       y       z     vdW  Elec       q    Type
REMARK                         _______ _______ _______ _____ _____    ______ ____
ROOT
ATOM      1  C   UNL     1      86.269  63.267  86.551  0.00  0.00    +0.000 C 
ENDROOT
BRANCH   1   5
ATOM      2  C   UNL     1      85.575  60.405  90.648  0.00  0.00    +0.000 C 
ATOM      3  C   UNL     1      85.061  61.422  89.673  0.00  0.00    +0.000 A 
ATOM      4  C   UNL     1      85.872  61.867  88.619  0.00  0.00    +0.000 A 
ATOM      5  C   UNL     1      85.389  62.792  87.679  0.00  0.00    +0.000 A 
ATOM      6  C   UNL     1      84.069  63.247  87.792  0.00  0.00    +0.000 A 
ATOM      7  C   UNL     1      83.252  62.797  88.829  0.00  0.00    +0.000 A 
ATOM      8  C   UNL     1      83.745  61.887  89.764  0.00  0.00    +0.000 A 
ENDBRANCH   1   5
BRANCH   1   9
ATOM      9  S   UNL     1      86.208  65.072  86.364  0.00  0.00    +0.000 S 
BRANCH   9  10
ATOM     10  C   UNL     1      87.717  65.481  87.290  0.00  0.00    +0.000 C 
BRANCH  10  11
ATOM     11  C   UNL     1      87.618  65.061  88.734  0.00  0.00    +0.000 A 
ATOM     12  C   UNL     1      88.588  64.221  89.301  0.00  0.00    +0.000 A 
ATOM     13  C   UNL     1      88.491  63.828  90.636  0.00  0.00    +0.000 A 
ATOM     14  C   UNL     1      87.423  64.264  91.418  0.00  0.00    +0.000 A 
ATOM     15  C   UNL     1      86.446  65.090  90.863  0.00  0.00    +0.000 A 
ATOM     16  C   UNL     1      86.541  65.484  89.527  0.00  0.00    +0.000 A 
ENDBRANCH  10  11
ENDBRANCH   9  10
ENDBRANCH   1   9
TORSDOF 4
ENDMDL
