REMARK  Name = *****
REMARK  4 active torsions:
REMARK  status: ('A' for Active; 'I' for Inactive)
REMARK    1  A    between atoms: C_1  and  C_2
REMARK    2  A    between atoms: C_2  and  C_8
REMARK    3  A    between atoms: C_8  and  C_9
REMARK    4  A    between atoms: C_9  and  C_10
REMARK                            x       y       z     vdW  Elec       q    Type
REMARK                         _______ _______ _______ _____ _____    ______ ____
ROOT
ATOM      1  C   UNL     1       2.876   0.359   1.480  0.00  0.00    +0.000 C 
ENDROOT
BRANCH   1   3
ATOM      2  C   UNL     1       2.704  -1.450  -0.301  0.00  0.00    +0.000 C 
ATOM      3  C   UNL     1       2.315  -0.015   0.076  0.00  0.00    +0.000 C 
ATOM      4  S   UNL     1       0.483   0.143   0.226  0.00  0.00    +0.000 S 
ATOM      5  C   UNL     1      -0.053  -0.156  -1.481  0.00  0.00    +0.000 C 
ATOM      6  C   UNL     1       0.536   0.828  -2.479  0.00  0.00    +0.000 C 
ATOM      7  C   UNL     1       2.043   0.713  -2.640  0.00  0.00    +0.000 C 
ATOM      8  S   UNL     1       2.952   1.201  -1.149  0.00  0.00    +0.000 S 
ENDBRANCH   1   3
BRANCH   1   9
ATOM      9  C   UNL     1       4.408   0.250   1.646  0.00  0.00    +0.000 C 
BRANCH   9  10
ATOM     10  C   UNL     1       4.894   0.619   3.060  0.00  0.00    +0.000 C 
ATOM     11  S   UNL     1       4.546   2.331   3.583  0.00  0.00    +0.000 S 
ATOM     12  C   UNL     1       5.598   3.244   2.421  0.00  0.00    +0.000 C 
ATOM     13  C   UNL     1       7.073   2.896   2.564  0.00  0.00    +0.000 C 
ATOM     14  C   UNL     1       7.417   1.462   2.187  0.00  0.00    +0.000 C 
ATOM     15  S   UNL     1       6.663   0.228   3.287  0.00  0.00    +0.000 S 
ENDBRANCH   9  10
ENDBRANCH   1   9
TORSDOF 3
