REMARK  Name = *****
REMARK  4 active torsions:
REMARK  status: ('A' for Active; 'I' for Inactive)
REMARK    1  A    between atoms: C_4  and  C_7
REMARK    2  A    between atoms: C_7  and  O_8
REMARK    3  A    between atoms: O_8  and  C_9
REMARK    4  A    between atoms: C_9  and  C_11
REMARK                            x       y       z     vdW  Elec       q    Type
REMARK                         _______ _______ _______ _____ _____    ______ ____
ROOT
ATOM      1  C   UNL     1      -4.947  -0.682  -0.256  0.00  0.00    +0.000 C 
ATOM      2  O   UNL     1      -5.584   0.317   0.035  0.00  0.00    +0.000 OA
ENDROOT
BRANCH   1   3
ATOM      3  C   UNL     1      -5.585  -1.986  -0.511  0.00  0.00    +0.000 A 
ATOM      4  C   UNL     1      -5.134  -3.187   0.050  0.00  0.00    +0.000 A 
ATOM      5  C   UNL     1      -5.803  -4.381  -0.248  0.00  0.00    +0.000 A 
ATOM      6  C   UNL     1      -6.920  -4.374  -1.087  0.00  0.00    +0.000 A 
ATOM      7  C   UNL     1      -7.376  -3.172  -1.624  0.00  0.00    +0.000 A 
ATOM      8  C   UNL     1      -6.719  -1.978  -1.338  0.00  0.00    +0.000 A 
ATOM      9 CL   UNL     1      -8.759  -3.163  -2.645  0.00  0.00    +0.000 Cl
ATOM     10 CL   UNL     1      -3.812  -3.276   1.157  0.00  0.00    +0.000 Cl
ENDBRANCH   1   3
BRANCH   1  11
ATOM     11  O   UNL     1      -3.626  -0.762  -0.530  0.00  0.00    +0.000 OA
BRANCH  11  12
ATOM     12  C   UNL     1      -2.887   0.455  -0.377  0.00  0.00    +0.000 C 
BRANCH  12  16
ATOM     13  C   UNL     1      -0.936   0.495   3.468  0.00  0.00    +0.000 A 
ATOM     14  C   UNL     1      -0.279  -0.038   2.360  0.00  0.00    +0.000 A 
ATOM     15  C   UNL     1      -0.910  -0.054   1.114  0.00  0.00    +0.000 A 
ATOM     16  C   UNL     1      -2.200   0.474   0.964  0.00  0.00    +0.000 A 
ATOM     17  C   UNL     1      -2.855   0.994   2.089  0.00  0.00    +0.000 A 
ATOM     18  C   UNL     1      -2.225   1.007   3.334  0.00  0.00    +0.000 A 
ENDBRANCH  12  16
ENDBRANCH  11  12
ENDBRANCH   1  11
TORSDOF 4
