REMARK  Name = *****
REMARK  4 active torsions:
REMARK  status: ('A' for Active; 'I' for Inactive)
REMARK    1  A    between atoms: C_1  and  O_2
REMARK    2  A    between atoms: O_2  and  C_3
REMARK    3  A    between atoms: C_7  and  C_9
REMARK    4  A    between atoms: C_10  and  C_11
REMARK                            x       y       z     vdW  Elec       q    Type
REMARK                         _______ _______ _______ _____ _____    ______ ____
ROOT
ATOM      1  C   UNL     1       3.427  -1.017  -0.764  0.00  0.00    +0.000 A 
ATOM      2  C   UNL     1       2.693  -2.059  -1.330  0.00  0.00    +0.000 A 
ATOM      3  C   UNL     1       3.198  -3.361  -1.307  0.00  0.00    +0.000 A 
ATOM      4  C   UNL     1       4.440  -3.625  -0.725  0.00  0.00    +0.000 A 
ATOM      5  C   UNL     1       5.198  -2.588  -0.170  0.00  0.00    +0.000 A 
ATOM      6  C   UNL     1       4.671  -1.289  -0.185  0.00  0.00    +0.000 A 
ENDROOT
BRANCH   1   8
ATOM      7  C   UNL     1       1.784   0.625  -1.274  0.00  0.00    +0.000 C 
ATOM      8  O   UNL     1       3.047   0.297  -0.710  0.00  0.00    +0.000 OA
ENDBRANCH   1   8
BRANCH   5   9
ATOM      9  C   UNL     1       6.494  -2.822   0.485  0.00  0.00    +0.000 C 
ATOM     10  C   UNL     1       7.394  -3.728   0.069  0.00  0.00    +0.000 C 
BRANCH  10  11
ATOM     11  C   UNL     1       8.695  -3.948   0.718  0.00  0.00    +0.000 A 
ATOM     12  C   UNL     1       8.856  -3.901   2.110  0.00  0.00    +0.000 A 
ATOM     13  C   UNL     1      10.103  -4.147   2.691  0.00  0.00    +0.000 A 
ATOM     14  C   UNL     1      11.199  -4.455   1.888  0.00  0.00    +0.000 A 
ATOM     15  C   UNL     1      11.048  -4.522   0.505  0.00  0.00    +0.000 A 
ATOM     16  C   UNL     1       9.802  -4.275  -0.076  0.00  0.00    +0.000 A 
ENDBRANCH  10  11
ENDBRANCH   5   9
TORSDOF 3
