MODEL 1
REMARK VINA RESULT:      -4.0      0.000      0.000
REMARK  Name = *****
REMARK  1 active torsions:
REMARK  status: ('A' for Active; 'I' for Inactive)
REMARK    1  A    between atoms: C_8  and  C_10
REMARK                            x       y       z     vdW  Elec       q    Type
REMARK                         _______ _______ _______ _____ _____    ______ ____
ROOT
ATOM      1  C   UNL     1      99.045 129.384  83.400  0.00  0.00    +0.000 C 
ATOM      2  C   UNL     1      99.989 129.779  84.546  0.00  0.00    +0.000 C 
ATOM      3  C   UNL     1     101.465 129.584  84.164  0.00  0.00    +0.000 C 
ATOM      4  C   UNL     1     101.657 128.273  83.467  0.00  0.00    +0.000 A 
ATOM      5  C   UNL     1     100.647 127.510  82.919  0.00  0.00    +0.000 A 
ATOM      6  C   UNL     1      99.205 127.904  83.019  0.00  0.00    +0.000 C 
ATOM      7  C   UNL     1     101.168 126.332  82.301  0.00  0.00    +0.000 A 
ATOM      8  C   UNL     1     102.549 126.233  82.386  0.00  0.00    +0.000 A 
ATOM      9  S   UNL     1     103.193 127.591  83.230  0.00  0.00    +0.000 S 
ENDROOT
BRANCH   8  10
ATOM     10  C   UNL     1     103.406 125.182  81.871  0.00  0.00    +0.000 A 
ATOM     11  C   UNL     1     103.791 124.958  80.558  0.00  0.00    +0.000 A 
ATOM     12  C   UNL     1     104.643 123.824  80.409  0.00  0.00    +0.000 A 
ATOM     13  C   UNL     1     104.889 123.206  81.612  0.00  0.00    +0.000 A 
ATOM     14  S   UNL     1     104.099 123.991  82.905  0.00  0.00    +0.000 S 
ENDBRANCH   8  10
TORSDOF 1
ENDMDL
