REMARK  Name = *****
REMARK  3 active torsions:
REMARK  status: ('A' for Active; 'I' for Inactive)
REMARK    1  A    between atoms: C_4  and  S_7
REMARK    2  A    between atoms: S_7  and  N_8
REMARK    3  A    between atoms: N_8  and  C_9
REMARK                            x       y       z     vdW  Elec       q    Type
REMARK                         _______ _______ _______ _____ _____    ______ ____
ROOT
ATOM      1  N   UNL     1      -4.745  -0.060   0.135  0.00  0.00    +0.000 N 
ATOM      2  H   UNL     1      -4.293  -0.530   0.872  0.00  0.00    +0.000 HD
ENDROOT
BRANCH   1   3
ATOM      3  C   UNL     1      -5.837  -0.695  -0.498  0.00  0.00    +0.000 A 
ATOM      4  C   UNL     1      -6.807  -0.012  -1.248  0.00  0.00    +0.000 A 
ATOM      5  C   UNL     1      -7.909  -0.683  -1.792  0.00  0.00    +0.000 A 
ATOM      6  C   UNL     1      -8.067  -2.047  -1.570  0.00  0.00    +0.000 A 
ATOM      7  C   UNL     1      -7.139  -2.743  -0.804  0.00  0.00    +0.000 A 
ATOM      8  C   UNL     1      -6.040  -2.066  -0.263  0.00  0.00    +0.000 A 
ATOM      9 BR   UNL     1      -9.557  -2.953  -2.298  0.00  0.00    +0.000 Br
ENDBRANCH   1   3
BRANCH   1  10
ATOM     10  S   UNL     1      -4.186   1.445  -0.307  0.00  0.00    +0.000 S 
BRANCH  10  14
ATOM     11  C   UNL     1      -2.660   2.975   3.739  0.00  0.00    +0.000 A 
ATOM     12  C   UNL     1      -3.931   2.409   3.651  0.00  0.00    +0.000 A 
ATOM     13  C   UNL     1      -4.401   1.938   2.424  0.00  0.00    +0.000 A 
ATOM     14  C   UNL     1      -3.602   2.025   1.278  0.00  0.00    +0.000 A 
ATOM     15  C   UNL     1      -2.331   2.602   1.373  0.00  0.00    +0.000 A 
ATOM     16  C   UNL     1      -1.860   3.073   2.601  0.00  0.00    +0.000 A 
ENDBRANCH  10  14
ENDBRANCH   1  10
TORSDOF 3
