MODEL 1
REMARK VINA RESULT:      -4.5      0.000      0.000
REMARK  Name = *****
REMARK  3 active torsions:
REMARK  status: ('A' for Active; 'I' for Inactive)
REMARK    1  A    between atoms: C_1  and  C_2
REMARK    2  A    between atoms: C_2  and  C_9
REMARK    3  A    between atoms: C_4  and  C_5
REMARK                            x       y       z     vdW  Elec       q    Type
REMARK                         _______ _______ _______ _____ _____    ______ ____
ROOT
ATOM      1  C   UNL     1      88.711  70.476  88.495  0.00  0.00    +0.000 C 
ATOM      2  C   UNL     1      88.318  70.511  87.037  0.00  0.00    +0.000 C 
ATOM      3  C   UNL     1      89.429  70.693  86.015  0.00  0.00    +0.000 C 
ATOM      4  C   UNL     1      88.739  69.366  86.122  0.00  0.00    +0.000 C 
ENDROOT
BRANCH   2   5
ATOM      5  C   UNL     1      86.964  71.158  86.771  0.00  0.00    +0.000 A 
ATOM      6  C   UNL     1      86.084  71.463  87.824  0.00  0.00    +0.000 A 
ATOM      7  C   UNL     1      84.847  72.069  87.588  0.00  0.00    +0.000 A 
ATOM      8  C   UNL     1      84.465  72.389  86.289  0.00  0.00    +0.000 A 
ATOM      9  C   UNL     1      85.320  72.105  85.229  0.00  0.00    +0.000 A 
ATOM     10  C   UNL     1      86.556  71.499  85.470  0.00  0.00    +0.000 A 
ENDBRANCH   2   5
BRANCH   4  11
ATOM     11  C   UNL     1      89.427  68.105  86.588  0.00  0.00    +0.000 C 
ATOM     12  C   UNL     1      90.155  67.216  85.540  0.00  0.00    +0.000 C 
ATOM     13  C   UNL     1      89.724  65.995  86.376  0.00  0.00    +0.000 C 
ATOM     14  C   UNL     1      88.557  66.856  86.898  0.00  0.00    +0.000 C 
ENDBRANCH   4  11
TORSDOF 2
ENDMDL
