MODEL 1
REMARK VINA RESULT:      -4.3      0.000      0.000
REMARK  Name = *****
REMARK  6 active torsions:
REMARK  status: ('A' for Active; 'I' for Inactive)
REMARK    1  A    between atoms: C_1  and  C_2
REMARK    2  A    between atoms: C_2  and  C_3
REMARK    3  A    between atoms: C_2  and  S_17
REMARK    4  A    between atoms: C_8  and  O_9
REMARK    5  A    between atoms: O_9  and  C_10
REMARK    6  A    between atoms: C_10  and  C_11
REMARK                            x       y       z     vdW  Elec       q    Type
REMARK                         _______ _______ _______ _____ _____    ______ ____
ROOT
ATOM      1  C   UNL     1     103.015 126.896  81.992  0.00  0.00    +0.000 A 
ATOM      2  C   UNL     1     103.296 128.191  82.474  0.00  0.00    +0.000 A 
ATOM      3  C   UNL     1     104.301 128.970  81.901  0.00  0.00    +0.000 A 
ATOM      4  C   UNL     1     105.049 128.469  80.841  0.00  0.00    +0.000 A 
ATOM      5  C   UNL     1     104.788 127.193  80.346  0.00  0.00    +0.000 A 
ATOM      6  C   UNL     1     103.764 126.414  80.901  0.00  0.00    +0.000 A 
ENDROOT
BRANCH   1   8
ATOM      7  C   UNL     1     100.522 126.611  82.400  0.00  0.00    +0.000 C 
ATOM      8  C   UNL     1     101.926 126.046  82.629  0.00  0.00    +0.000 C 
BRANCH   8   9
ATOM      9  S   UNL     1     102.213 125.818  84.424  0.00  0.00    +0.000 S 
ATOM     10  H   UNL     1     102.990 124.720  84.623  0.00  0.00    +0.000 HD
ENDBRANCH   8   9
ENDBRANCH   1   8
BRANCH   6  11
ATOM     11  O   UNL     1     103.487 125.146  80.461  0.00  0.00    +0.000 OA
BRANCH  11  12
ATOM     12  C   UNL     1     104.629 124.325  80.216  0.00  0.00    +0.000 C 
BRANCH  12  13
ATOM     13  C   UNL     1     104.578 123.159  81.172  0.00  0.00    +0.000 A 
ATOM     14  C   UNL     1     104.621 121.846  80.682  0.00  0.00    +0.000 A 
ATOM     15  C   UNL     1     104.580 120.760  81.557  0.00  0.00    +0.000 A 
ATOM     16  C   UNL     1     104.500 120.975  82.932  0.00  0.00    +0.000 A 
ATOM     17  C   UNL     1     104.467 122.276  83.431  0.00  0.00    +0.000 A 
ATOM     18  C   UNL     1     104.507 123.364  82.557  0.00  0.00    +0.000 A 
ENDBRANCH  12  13
ENDBRANCH  11  12
ENDBRANCH   6  11
TORSDOF 5
ENDMDL
