MODEL 1
REMARK VINA RESULT:      -4.3      0.000      0.000
REMARK  Name = *****
REMARK  2 active torsions:
REMARK  status: ('A' for Active; 'I' for Inactive)
REMARK    1  A    between atoms: C_5  and  C_7
REMARK    2  A    between atoms: C_8  and  C_9
REMARK                            x       y       z     vdW  Elec       q    Type
REMARK                         _______ _______ _______ _____ _____    ______ ____
ROOT
ATOM      1  C   UNL     1      98.892 127.309  82.770  0.00  0.00    +0.000 A 
ATOM      2  C   UNL     1      99.169 128.486  83.464  0.00  0.00    +0.000 A 
ATOM      3  C   UNL     1     100.492 128.897  83.639  0.00  0.00    +0.000 A 
ATOM      4  C   UNL     1     101.540 128.131  83.117  0.00  0.00    +0.000 A 
ATOM      5  C   UNL     1     101.267 126.948  82.418  0.00  0.00    +0.000 A 
ATOM      6  C   UNL     1      99.937 126.543  82.249  0.00  0.00    +0.000 A 
ATOM      7 BR   UNL     1     103.313 128.758  83.396  0.00  0.00    +0.000 Br
ENDROOT
BRANCH   5   8
ATOM      8  C   UNL     1     102.302 126.128  81.862  0.00  0.00    +0.000 C 
ATOM      9  C   UNL     1     103.170 125.439  81.396  0.00  0.00    +0.000 C 
BRANCH   9  10
ATOM     10  C   UNL     1     104.196 124.626  80.835  0.00  0.00    +0.000 A 
ATOM     11  C   UNL     1     104.406 123.298  81.142  0.00  0.00    +0.000 A 
ATOM     12  C   UNL     1     105.508 122.746  80.424  0.00  0.00    +0.000 A 
ATOM     13  C   UNL     1     106.099 123.675  79.595  0.00  0.00    +0.000 A 
ATOM     14  S   UNL     1     105.325 125.200  79.687  0.00  0.00    +0.000 S 
ENDBRANCH   9  10
ENDBRANCH   5   8
TORSDOF 2
ENDMDL
