MODEL 1
REMARK VINA RESULT:      -5.0      0.000      0.000
REMARK  Name = *****
REMARK  4 active torsions:
REMARK  status: ('A' for Active; 'I' for Inactive)
REMARK    1  A    between atoms: C_4  and  C_7
REMARK    2  A    between atoms: C_7  and  N_8
REMARK    3  A    between atoms: N_8  and  C_9
REMARK    4  A    between atoms: C_12  and  C_15
REMARK                            x       y       z     vdW  Elec       q    Type
REMARK                         _______ _______ _______ _____ _____    ______ ____
ROOT
ATOM      1  C   UNL     1     103.750 125.895  81.742  0.00  0.00    +0.000 A 
ATOM      2  C   UNL     1     104.102 125.421  80.474  0.00  0.00    +0.000 A 
ATOM      3  C   UNL     1     104.503 124.091  80.324  0.00  0.00    +0.000 A 
ATOM      4  C   UNL     1     104.559 123.231  81.434  0.00  0.00    +0.000 A 
ATOM      5  C   UNL     1     104.227 123.732  82.704  0.00  0.00    +0.000 A 
ATOM      6  C   UNL     1     103.826 125.060  82.860  0.00  0.00    +0.000 A 
ENDROOT
BRANCH   4   7
ATOM      7  C   UNL     1     105.016 121.800  81.278  0.00  0.00    +0.000 C 
ATOM      8  F   UNL     1     104.073 120.994  80.713  0.00  0.00    +0.000 F 
ATOM      9  F   UNL     1     106.122 121.690  80.492  0.00  0.00    +0.000 F 
ATOM     10  F   UNL     1     105.340 121.214  82.464  0.00  0.00    +0.000 F 
ENDBRANCH   4   7
BRANCH   1  11
ATOM     11  N   UNL     1     103.345 127.282  81.932  0.00  0.00    +0.000 N 
ATOM     12  O   UNL     1     103.751 128.160  81.102  0.00  0.00    +0.000 OA
BRANCH  11  13
ATOM     13  C   UNL     1     102.621 127.557  82.994  0.00  0.00    +0.000 C 
BRANCH  13  17
ATOM     14  C   UNL     1      98.367 127.930  82.939  0.00  0.00    +0.000 A 
ATOM     15  C   UNL     1      99.123 128.961  83.492  0.00  0.00    +0.000 A 
ATOM     16  C   UNL     1     100.518 128.871  83.533  0.00  0.00    +0.000 A 
ATOM     17  C   UNL     1     101.160 127.739  83.026  0.00  0.00    +0.000 A 
ATOM     18  C   UNL     1     100.397 126.711  82.458  0.00  0.00    +0.000 A 
ATOM     19  C   UNL     1      99.004 126.805  82.419  0.00  0.00    +0.000 A 
ENDBRANCH  13  17
ENDBRANCH  11  13
ENDBRANCH   1  11
TORSDOF 4
ENDMDL
