MODEL 1
REMARK VINA RESULT:      -4.2      0.000      0.000
REMARK  Name = *****
REMARK  3 active torsions:
REMARK  status: ('A' for Active; 'I' for Inactive)
REMARK    1  A    between atoms: C_4  and  O_7
REMARK    2  A    between atoms: O_7  and  C_8
REMARK    3  A    between atoms: C_9  and  C_10
REMARK                            x       y       z     vdW  Elec       q    Type
REMARK                         _______ _______ _______ _____ _____    ______ ____
ROOT
ATOM      1  C   UNL     1      99.988 126.656  82.662  0.00  0.00    +0.000 C 
ATOM      2  C   UNL     1      99.044 127.605  82.709  0.00  0.00    +0.000 C 
ENDROOT
BRANCH   2   3
ATOM      3  C   UNL     1      98.958 128.703  83.684  0.00  0.00    +0.000 A 
ATOM      4  C   UNL     1      99.459 129.983  83.419  0.00  0.00    +0.000 A 
ATOM      5  C   UNL     1      99.324 131.010  84.357  0.00  0.00    +0.000 A 
ATOM      6  C   UNL     1      98.677 130.770  85.567  0.00  0.00    +0.000 A 
ATOM      7  C   UNL     1      98.160 129.504  85.836  0.00  0.00    +0.000 A 
ATOM      8  C   UNL     1      98.294 128.478  84.898  0.00  0.00    +0.000 A 
ENDBRANCH   2   3
BRANCH   1   9
ATOM      9  O   UNL     1     101.047 126.579  83.524  0.00  0.00    +0.000 OA
BRANCH   9  13
ATOM     10  C   UNL     1     103.855 127.527  80.490  0.00  0.00    +0.000 C 
ATOM     11  C   UNL     1     103.951 128.297  81.804  0.00  0.00    +0.000 C 
ATOM     12  C   UNL     1     102.679 128.153  82.635  0.00  0.00    +0.000 C 
ATOM     13  C   UNL     1     102.326 126.681  82.882  0.00  0.00    +0.000 C 
ATOM     14  C   UNL     1     102.227 125.923  81.554  0.00  0.00    +0.000 C 
ATOM     15  C   UNL     1     103.496 126.062  80.723  0.00  0.00    +0.000 C 
ENDBRANCH   9  13
ENDBRANCH   1   9
TORSDOF 3
ENDMDL
