MODEL 1
REMARK VINA RESULT:      -4.5      0.000      0.000
REMARK  Name = *****
REMARK  3 active torsions:
REMARK  status: ('A' for Active; 'I' for Inactive)
REMARK    1  A    between atoms: C_4  and  C_8
REMARK    2  A    between atoms: C_8  and  O_10
REMARK    3  A    between atoms: O_10  and  C_11
REMARK                            x       y       z     vdW  Elec       q    Type
REMARK                         _______ _______ _______ _____ _____    ______ ____
ROOT
ATOM      1  C   UNL     1     101.748 126.011  82.755  0.00  0.00    +0.000 C 
ATOM      2  O   UNL     1     102.244 125.344  83.647  0.00  0.00    +0.000 OA
ENDROOT
BRANCH   1   6
ATOM      3  C   UNL     1      99.263 129.394  83.491  0.00  0.00    +0.000 A 
ATOM      4  C   UNL     1     100.600 129.400  83.889  0.00  0.00    +0.000 A 
ATOM      5  C   UNL     1     101.406 128.290  83.638  0.00  0.00    +0.000 A 
ATOM      6  C   UNL     1     100.889 127.173  82.990  0.00  0.00    +0.000 A 
ATOM      7  C   UNL     1      99.553 127.168  82.603  0.00  0.00    +0.000 A 
ATOM      8  C   UNL     1      98.737 128.272  82.847  0.00  0.00    +0.000 A 
ATOM      9  F   UNL     1      99.014 126.094  82.006  0.00  0.00    +0.000 F 
ATOM     10  F   UNL     1     102.692 128.337  84.012  0.00  0.00    +0.000 F 
ENDBRANCH   1   6
BRANCH   1  11
ATOM     11  O   UNL     1     101.912 125.873  81.389  0.00  0.00    +0.000 OA
BRANCH  11  12
ATOM     12  C   UNL     1     103.238 125.986  80.966  0.00  0.00    +0.000 A 
ATOM     13  C   UNL     1     103.931 124.867  80.502  0.00  0.00    +0.000 A 
ATOM     14  C   UNL     1     105.237 125.020  80.035  0.00  0.00    +0.000 A 
ATOM     15  C   UNL     1     105.824 126.287  80.021  0.00  0.00    +0.000 A 
ATOM     16  C   UNL     1     105.117 127.405  80.466  0.00  0.00    +0.000 A 
ATOM     17  C   UNL     1     103.811 127.257  80.936  0.00  0.00    +0.000 A 
ATOM     18 CL   UNL     1     107.433 126.473  79.438  0.00  0.00    +0.000 Cl
ENDBRANCH  11  12
ENDBRANCH   1  11
TORSDOF 3
ENDMDL
