MODEL 1
REMARK VINA RESULT:      -4.7      0.000      0.000
REMARK  Name = *****
REMARK  3 active torsions:
REMARK  status: ('A' for Active; 'I' for Inactive)
REMARK    1  A    between atoms: C_6  and  C_7
REMARK    2  A    between atoms: C_7  and  S_8
REMARK    3  A    between atoms: S_8  and  C_9
REMARK                            x       y       z     vdW  Elec       q    Type
REMARK                         _______ _______ _______ _____ _____    ______ ____
ROOT
ATOM      1  S   UNL     1     103.135 127.383  83.399  0.00  0.00    +0.000 S 
ENDROOT
BRANCH   1   2
ATOM      2  C   UNL     1     101.400 127.755  83.212  0.00  0.00    +0.000 A 
ATOM      3  C   UNL     1     100.845 128.967  83.632  0.00  0.00    +0.000 A 
ATOM      4  C   UNL     1      99.479 129.196  83.475  0.00  0.00    +0.000 A 
ATOM      5  C   UNL     1      98.648 128.238  82.915  0.00  0.00    +0.000 A 
ATOM      6  C   UNL     1      99.202 127.031  82.517  0.00  0.00    +0.000 A 
ATOM      7  C   UNL     1     100.564 126.779  82.663  0.00  0.00    +0.000 A 
ATOM      8  F   UNL     1      98.413 126.090  81.981  0.00  0.00    +0.000 F 
ATOM      9  F   UNL     1      98.960 130.363  83.877  0.00  0.00    +0.000 F 
ENDBRANCH   1   2
BRANCH   1  10
ATOM     10  C   UNL     1     103.061 125.627  83.893  0.00  0.00    +0.000 C 
BRANCH  10  16
ATOM     11  C   UNL     1     103.679 125.154  81.485  0.00  0.00    +0.000 A 
ATOM     12  C   UNL     1     104.230 124.332  80.501  0.00  0.00    +0.000 A 
ATOM     13  C   UNL     1     104.754 123.095  80.856  0.00  0.00    +0.000 A 
ATOM     14  C   UNL     1     104.739 122.664  82.177  0.00  0.00    +0.000 A 
ATOM     15  C   UNL     1     104.189 123.483  83.163  0.00  0.00    +0.000 A 
ATOM     16  C   UNL     1     103.645 124.735  82.826  0.00  0.00    +0.000 A 
ATOM     17  F   UNL     1     105.284 122.306  79.911  0.00  0.00    +0.000 F 
ENDBRANCH  10  16
ENDBRANCH   1  10
TORSDOF 3
ENDMDL
