MODEL 1
REMARK VINA RESULT:      -3.7      0.000      0.000
REMARK  Name = *****
REMARK  3 active torsions:
REMARK  status: ('A' for Active; 'I' for Inactive)
REMARK    1  A    between atoms: C_4  and  S_14
REMARK    2  A    between atoms: C_5  and  N_7
REMARK    3  A    between atoms: C_8  and  C_9
REMARK                            x       y       z     vdW  Elec       q    Type
REMARK                         _______ _______ _______ _____ _____    ______ ____
ROOT
ATOM      1  C   UNL     1     101.235 130.582  84.532  0.00  0.00    +0.000 A 
ATOM      2  C   UNL     1      99.877 130.768  84.280  0.00  0.00    +0.000 A 
ATOM      3  C   UNL     1      99.132 129.748  83.685  0.00  0.00    +0.000 A 
ATOM      4  C   UNL     1      99.743 128.537  83.335  0.00  0.00    +0.000 A 
ATOM      5  C   UNL     1     101.120 128.355  83.566  0.00  0.00    +0.000 A 
ATOM      6  C   UNL     1     101.850 129.380  84.181  0.00  0.00    +0.000 A 
ENDROOT
BRANCH   5   7
ATOM      7  N   UNL     1     101.780 127.155  83.230  0.00  0.00    +0.000 NA
ATOM      8  C   UNL     1     102.468 127.186  82.131  0.00  0.00    +0.000 C 
BRANCH   8   9
ATOM      9  C   UNL     1     103.184 126.017  81.684  0.00  0.00    +0.000 A 
ATOM     10  C   UNL     1     103.580 125.679  80.406  0.00  0.00    +0.000 A 
ATOM     11  C   UNL     1     104.272 124.434  80.367  0.00  0.00    +0.000 A 
ATOM     12  C   UNL     1     104.380 123.865  81.616  0.00  0.00    +0.000 A 
ATOM     13  S   UNL     1     103.648 124.832  82.825  0.00  0.00    +0.000 S 
ENDBRANCH   8   9
ENDBRANCH   5   7
BRANCH   4  14
ATOM     14  S   UNL     1      98.738 127.257  82.592  0.00  0.00    +0.000 S 
ATOM     15  H   UNL     1      97.438 127.438  82.947  0.00  0.00    +0.000 HD
ENDBRANCH   4  14
TORSDOF 3
ENDMDL
