MODEL 1
REMARK VINA RESULT:      -4.7      0.000      0.000
REMARK  Name = *****
REMARK  3 active torsions:
REMARK  status: ('A' for Active; 'I' for Inactive)
REMARK    1  A    between atoms: C_4  and  C_7
REMARK    2  A    between atoms: C_7  and  C_8
REMARK    3  A    between atoms: C_8  and  C_9
REMARK                            x       y       z     vdW  Elec       q    Type
REMARK                         _______ _______ _______ _____ _____    ______ ____
ROOT
ATOM      1  C   UNL     1      88.724  70.340  86.905  0.00  0.00    +0.000 C 
ATOM      2  F   UNL     1      89.947  70.931  86.728  0.00  0.00    +0.000 F 
ENDROOT
BRANCH   1   3
ATOM      3  C   UNL     1      88.827  68.830  86.875  0.00  0.00    +0.000 A 
ATOM      4  C   UNL     1      87.809  68.037  87.423  0.00  0.00    +0.000 A 
ATOM      5  C   UNL     1      87.911  66.645  87.412  0.00  0.00    +0.000 A 
ATOM      6  C   UNL     1      89.033  66.033  86.855  0.00  0.00    +0.000 A 
ATOM      7  C   UNL     1      90.052  66.810  86.309  0.00  0.00    +0.000 A 
ATOM      8  C   UNL     1      89.951  68.203  86.319  0.00  0.00    +0.000 A 
ENDBRANCH   1   3
BRANCH   1   9
ATOM      9  C   UNL     1      87.782  70.850  85.805  0.00  0.00    +0.000 C 
BRANCH   9  13
ATOM     10  C   UNL     1      84.107  72.475  87.386  0.00  0.00    +0.000 A 
ATOM     11  C   UNL     1      84.330  72.463  86.012  0.00  0.00    +0.000 A 
ATOM     12  C   UNL     1      85.515  71.934  85.500  0.00  0.00    +0.000 A 
ATOM     13  C   UNL     1      86.493  71.414  86.360  0.00  0.00    +0.000 A 
ATOM     14  C   UNL     1      86.259  71.432  87.742  0.00  0.00    +0.000 A 
ATOM     15  C   UNL     1      85.071  71.960  88.251  0.00  0.00    +0.000 A 
ENDBRANCH   9  13
ENDBRANCH   1   9
TORSDOF 3
ENDMDL
