MODEL 1
REMARK VINA RESULT:      -4.3      0.000      0.000
REMARK  Name = *****
REMARK  5 active torsions:
REMARK  status: ('A' for Active; 'I' for Inactive)
REMARK    1  A    between atoms: N_2  and  C_3
REMARK    2  A    between atoms: C_3  and  C_4
REMARK    3  A    between atoms: C_3  and  C_11
REMARK    4  A    between atoms: C_4  and  C_5
REMARK    5  A    between atoms: C_11  and  C_12
REMARK                            x       y       z     vdW  Elec       q    Type
REMARK                         _______ _______ _______ _____ _____    ______ ____
ROOT
ATOM      1  C   UNL     1      89.216  69.832  85.825  0.00  0.00    +0.000 C 
ENDROOT
BRANCH   1   3
ATOM      2  C   UNL     1      89.912  67.481  84.917  0.00  0.00    +0.000 C 
ATOM      3  N   UNL     1      89.603  68.534  85.329  0.00  0.00    +0.000 NA
ENDBRANCH   1   3
BRANCH   1   4
ATOM      4  C   UNL     1      89.435  69.889  87.347  0.00  0.00    +0.000 C 
BRANCH   4   5
ATOM      5  C   UNL     1      88.298  70.564  88.079  0.00  0.00    +0.000 A 
ATOM      6  C   UNL     1      87.086  70.827  87.427  0.00  0.00    +0.000 A 
ATOM      7  C   UNL     1      86.046  71.466  88.103  0.00  0.00    +0.000 A 
ATOM      8  C   UNL     1      86.205  71.847  89.433  0.00  0.00    +0.000 A 
ATOM      9  C   UNL     1      87.406  71.591  90.091  0.00  0.00    +0.000 A 
ATOM     10  C   UNL     1      88.450  70.954  89.417  0.00  0.00    +0.000 A 
ENDBRANCH   4   5
ENDBRANCH   1   4
BRANCH   1  11
ATOM     11  C   UNL     1      90.055  70.920  85.133  0.00  0.00    +0.000 C 
BRANCH  11  12
ATOM     12  C   UNL     1      89.216  71.884  84.326  0.00  0.00    +0.000 A 
ATOM     13  C   UNL     1      87.854  71.632  84.110  0.00  0.00    +0.000 A 
ATOM     14  C   UNL     1      87.082  72.514  83.352  0.00  0.00    +0.000 A 
ATOM     15  C   UNL     1      87.664  73.653  82.801  0.00  0.00    +0.000 A 
ATOM     16  C   UNL     1      89.017  73.912  83.006  0.00  0.00    +0.000 A 
ATOM     17  C   UNL     1      89.791  73.033  83.765  0.00  0.00    +0.000 A 
ENDBRANCH  11  12
ENDBRANCH   1  11
TORSDOF 5
ENDMDL
