MODEL 1
REMARK VINA RESULT:      -4.3      0.000      0.000
REMARK  Name = *****
REMARK  4 active torsions:
REMARK  status: ('A' for Active; 'I' for Inactive)
REMARK    1  A    between atoms: C_4  and  C_7
REMARK    2  A    between atoms: C_7  and  P_9
REMARK    3  A    between atoms: P_9  and  C_10
REMARK    4  A    between atoms: C_10  and  C_12
REMARK                            x       y       z     vdW  Elec       q    Type
REMARK                         _______ _______ _______ _____ _____    ______ ____
ROOT
ATOM      1  P   UNL     1      88.555  65.994  85.569  0.00  0.00    +0.000 P 
ATOM      2  H   UNL     1      87.338  66.639  85.644  0.00  0.00    +0.000 HD
ENDROOT
BRANCH   1   3
ATOM      3  C   UNL     1      88.716  64.695  86.796  0.00  0.00    +0.000 C 
ATOM      4  O   UNL     1      89.164  63.642  86.363  0.00  0.00    +0.000 OA
BRANCH   3   8
ATOM      5  C   UNL     1      86.849  64.288  90.688  0.00  0.00    +0.000 C 
ATOM      6  C   UNL     1      88.319  63.905  90.550  0.00  0.00    +0.000 C 
ATOM      7  C   UNL     1      88.717  63.721  89.087  0.00  0.00    +0.000 C 
ATOM      8  C   UNL     1      88.380  64.960  88.251  0.00  0.00    +0.000 C 
ATOM      9  C   UNL     1      86.900  65.332  88.390  0.00  0.00    +0.000 C 
ATOM     10  C   UNL     1      86.505  65.518  89.853  0.00  0.00    +0.000 C 
ENDBRANCH   3   8
ENDBRANCH   1   3
BRANCH   1  11
ATOM     11  C   UNL     1      89.913  67.028  86.133  0.00  0.00    +0.000 C 
ATOM     12  O   UNL     1      91.020  66.508  86.105  0.00  0.00    +0.000 OA
BRANCH  11  13
ATOM     13  C   UNL     1      89.650  68.466  86.539  0.00  0.00    +0.000 C 
ATOM     14  C   UNL     1      88.262  68.571  87.181  0.00  0.00    +0.000 C 
ATOM     15  C   UNL     1      87.912  70.016  87.529  0.00  0.00    +0.000 C 
ATOM     16  C   UNL     1      88.039  70.935  86.318  0.00  0.00    +0.000 C 
ATOM     17  C   UNL     1      89.420  70.832  85.676  0.00  0.00    +0.000 C 
ATOM     18  C   UNL     1      89.766  69.389  85.320  0.00  0.00    +0.000 C 
ENDBRANCH  11  13
ENDBRANCH   1  11
TORSDOF 4
ENDMDL
