MODEL 1
REMARK VINA RESULT:      -4.4      0.000      0.000
REMARK  Name = *****
REMARK  4 active torsions:
REMARK  status: ('A' for Active; 'I' for Inactive)
REMARK    1  A    between atoms: C_6  and  C_7
REMARK    2  A    between atoms: C_7  and  O_8
REMARK    3  A    between atoms: O_8  and  C_9
REMARK    4  A    between atoms: C_9  and  C_10
REMARK                            x       y       z     vdW  Elec       q    Type
REMARK                         _______ _______ _______ _____ _____    ______ ____
ROOT
ATOM      1  O   UNL     1     103.492 125.087  80.096  0.00  0.00    +0.000 OA
ENDROOT
BRANCH   1   2
ATOM      2  C   UNL     1     103.614 126.489  80.322  0.00  0.00    +0.000 C 
BRANCH   2   8
ATOM      3  C   UNL     1     103.160 128.077  82.252  0.00  0.00    +0.000 A 
ATOM      4  C   UNL     1     102.482 128.412  83.426  0.00  0.00    +0.000 A 
ATOM      5  C   UNL     1     101.515 127.551  83.928  0.00  0.00    +0.000 A 
ATOM      6  C   UNL     1     101.215 126.358  83.280  0.00  0.00    +0.000 A 
ATOM      7  C   UNL     1     101.891 126.022  82.106  0.00  0.00    +0.000 A 
ATOM      8  C   UNL     1     102.863 126.885  81.571  0.00  0.00    +0.000 A 
ATOM      9  F   UNL     1     100.865 127.871  85.054  0.00  0.00    +0.000 F 
ENDBRANCH   2   8
ENDBRANCH   1   2
BRANCH   1  10
ATOM     10  C   UNL     1     104.746 124.422  80.223  0.00  0.00    +0.000 C 
BRANCH  10  11
ATOM     11  C   UNL     1     104.626 123.253  81.172  0.00  0.00    +0.000 A 
ATOM     12  C   UNL     1     104.678 121.940  80.675  0.00  0.00    +0.000 A 
ATOM     13  C   UNL     1     104.604 120.850  81.545  0.00  0.00    +0.000 A 
ATOM     14  C   UNL     1     104.489 121.070  82.913  0.00  0.00    +0.000 A 
ATOM     15  C   UNL     1     104.451 122.358  83.428  0.00  0.00    +0.000 A 
ATOM     16  C   UNL     1     104.525 123.448  82.560  0.00  0.00    +0.000 A 
ATOM     17  F   UNL     1     104.420 120.022  83.745  0.00  0.00    +0.000 F 
ENDBRANCH  10  11
ENDBRANCH   1  10
TORSDOF 4
ENDMDL
