REMARK  Name = *****
REMARK  4 active torsions:
REMARK  status: ('A' for Active; 'I' for Inactive)
REMARK    1  A    between atoms: C_4  and  C_7
REMARK    2  A    between atoms: C_7  and  O_8
REMARK    3  A    between atoms: O_8  and  C_9
REMARK    4  A    between atoms: C_9  and  C_11
REMARK                            x       y       z     vdW  Elec       q    Type
REMARK                         _______ _______ _______ _____ _____    ______ ____
ROOT
ATOM      1  C   UNL     1       3.499  -2.935  -0.882  0.00  0.00    +0.000 C 
ATOM      2  O   UNL     1       3.328  -2.815  -2.084  0.00  0.00    +0.000 OA
ENDROOT
BRANCH   1   3
ATOM      3  C   UNL     1       3.955  -4.201  -0.246  0.00  0.00    +0.000 A 
ATOM      4  C   UNL     1       4.078  -4.342   1.142  0.00  0.00    +0.000 A 
ATOM      5  C   UNL     1       4.507  -5.556   1.678  0.00  0.00    +0.000 A 
ATOM      6  C   UNL     1       4.814  -6.633   0.846  0.00  0.00    +0.000 A 
ATOM      7  C   UNL     1       4.692  -6.498  -0.536  0.00  0.00    +0.000 A 
ATOM      8  C   UNL     1       4.263  -5.286  -1.081  0.00  0.00    +0.000 A 
ATOM      9 CL   UNL     1       4.657  -5.729   3.384  0.00  0.00    +0.000 Cl
ENDBRANCH   1   3
BRANCH   1  10
ATOM     10  O   UNL     1       3.308  -1.978   0.057  0.00  0.00    +0.000 OA
BRANCH  10  11
ATOM     11  C   UNL     1       2.852  -0.695  -0.405  0.00  0.00    +0.000 C 
BRANCH  11  15
ATOM     12  C   UNL     1      -1.399   0.324  -0.182  0.00  0.00    +0.000 C 
ATOM     13  C   UNL     1      -0.987  -1.105   0.154  0.00  0.00    +0.000 C 
ATOM     14  C   UNL     1       0.418  -1.424  -0.352  0.00  0.00    +0.000 C 
ATOM     15  C   UNL     1       1.454  -0.410   0.161  0.00  0.00    +0.000 C 
ATOM     16  C   UNL     1       1.026   1.025  -0.178  0.00  0.00    +0.000 C 
ATOM     17  C   UNL     1      -0.379   1.334   0.332  0.00  0.00    +0.000 C 
ENDBRANCH  11  15
ENDBRANCH  10  11
ENDBRANCH   1  10
TORSDOF 4
