REMARK  Name = *****
REMARK  3 active torsions:
REMARK  status: ('A' for Active; 'I' for Inactive)
REMARK    1  A    between atoms: C_3  and  C_8
REMARK    2  A    between atoms: C_9  and  C_10
REMARK    3  A    between atoms: C_13  and  C_16
REMARK                            x       y       z     vdW  Elec       q    Type
REMARK                         _______ _______ _______ _____ _____    ______ ____
ROOT
ATOM      1  C   UNL     1      -3.885  -3.973   0.151  0.00  0.00    +0.000 A 
ATOM      2  C   UNL     1      -3.329  -5.111   0.748  0.00  0.00    +0.000 A 
ATOM      3  C   UNL     1      -4.009  -6.333   0.724  0.00  0.00    +0.000 A 
ATOM      4  C   UNL     1      -5.264  -6.439   0.107  0.00  0.00    +0.000 A 
ATOM      5  C   UNL     1      -5.829  -5.293  -0.471  0.00  0.00    +0.000 A 
ATOM      6  C   UNL     1      -5.148  -4.072  -0.445  0.00  0.00    +0.000 A 
ENDROOT
BRANCH   4   7
ATOM      7  C   UNL     1      -6.016  -7.747   0.087  0.00  0.00    +0.000 C 
ATOM      8  F   UNL     1      -5.252  -8.819   0.437  0.00  0.00    +0.000 F 
ATOM      9  F   UNL     1      -7.076  -7.748   0.941  0.00  0.00    +0.000 F 
ATOM     10  F   UNL     1      -6.526  -8.040  -1.142  0.00  0.00    +0.000 F 
ENDBRANCH   4   7
BRANCH   1  12
ATOM     11  C   UNL     1      -1.900  -2.500  -0.034  0.00  0.00    +0.000 C 
ATOM     12  C   UNL     1      -3.215  -2.665   0.186  0.00  0.00    +0.000 C 
BRANCH  11  15
ATOM     13  C   UNL     1      -1.142   1.284  -0.319  0.00  0.00    +0.000 C 
ATOM     14  C   UNL     1      -1.941   0.063   0.135  0.00  0.00    +0.000 C 
ATOM     15  C   UNL     1      -1.173  -1.233  -0.014  0.00  0.00    +0.000 C 
ATOM     16  C   UNL     1       0.167  -1.249  -0.138  0.00  0.00    +0.000 C 
ATOM     17  C   UNL     1       0.969  -0.005  -0.051  0.00  0.00    +0.000 C 
ATOM     18  O   UNL     1       2.191  -0.068  -0.164  0.00  0.00    +0.000 OA
ATOM     19  C   UNL     1       0.258   1.287   0.269  0.00  0.00    +0.000 C 
ENDBRANCH  11  15
ENDBRANCH   1  12
TORSDOF 3
