MODEL 1
REMARK VINA RESULT:      -4.5      0.000      0.000
REMARK  Name = *****
REMARK  4 active torsions:
REMARK  status: ('A' for Active; 'I' for Inactive)
REMARK    1  A    between atoms: C_4  and  C_7
REMARK    2  A    between atoms: N_8  and  O_9
REMARK    3  A    between atoms: O_9  and  C_10
REMARK    4  A    between atoms: C_10  and  C_11
REMARK                            x       y       z     vdW  Elec       q    Type
REMARK                         _______ _______ _______ _____ _____    ______ ____
ROOT
ATOM      1  C   UNL     1     101.847 126.077  83.203  0.00  0.00    +0.000 C 
ATOM      2  N   UNL     1     100.643 126.392  83.570  0.00  0.00    +0.000 NA
ENDROOT
BRANCH   1   6
ATOM      3  C   UNL     1     104.779 126.374  80.048  0.00  0.00    +0.000 C 
ATOM      4  C   UNL     1     104.136 125.013  80.298  0.00  0.00    +0.000 C 
ATOM      5  C   UNL     1     103.431 124.963  81.651  0.00  0.00    +0.000 C 
ATOM      6  C   UNL     1     102.411 126.098  81.797  0.00  0.00    +0.000 C 
ATOM      7  C   UNL     1     103.063 127.462  81.548  0.00  0.00    +0.000 C 
ATOM      8  C   UNL     1     103.770 127.509  80.195  0.00  0.00    +0.000 C 
ENDBRANCH   1   6
BRANCH   2   9
ATOM      9  O   UNL     1      99.854 126.769  82.471  0.00  0.00    +0.000 OA
BRANCH   9  10
ATOM     10  C   UNL     1      98.573 127.208  82.929  0.00  0.00    +0.000 C 
BRANCH  10  11
ATOM     11  C   UNL     1      98.710 128.478  83.730  0.00  0.00    +0.000 A 
ATOM     12  C   UNL     1      98.200 128.551  85.034  0.00  0.00    +0.000 A 
ATOM     13  C   UNL     1      98.319 129.726  85.778  0.00  0.00    +0.000 A 
ATOM     14  C   UNL     1      98.942 130.843  85.221  0.00  0.00    +0.000 A 
ATOM     15  C   UNL     1      99.439 130.787  83.920  0.00  0.00    +0.000 A 
ATOM     16  C   UNL     1      99.321 129.612  83.176  0.00  0.00    +0.000 A 
ENDBRANCH  10  11
ENDBRANCH   9  10
ENDBRANCH   2   9
TORSDOF 4
ENDMDL
