MODEL 1
REMARK VINA RESULT:      -5.4      0.000      0.000
REMARK  Name = *****
REMARK  2 active torsions:
REMARK  status: ('A' for Active; 'I' for Inactive)
REMARK    1  A    between atoms: C_1  and  C_2
REMARK    2  A    between atoms: C_9  and  C_11
REMARK                            x       y       z     vdW  Elec       q    Type
REMARK                         _______ _______ _______ _____ _____    ______ ____
ROOT
ATOM      1  C   UNL     1      99.238 130.481  84.579  0.00  0.00    +0.000 C 
ATOM      2  C   UNL     1      99.728 129.257  83.860  0.00  0.00    +0.000 A 
ATOM      3  C   UNL     1     101.110 129.003  83.750  0.00  0.00    +0.000 A 
ATOM      4  C   UNL     1     101.525 127.848  83.074  0.00  0.00    +0.000 A 
ATOM      5  C   UNL     1     100.569 127.002  82.541  0.00  0.00    +0.000 A 
ATOM      6  C   UNL     1      99.198 127.205  82.620  0.00  0.00    +0.000 A 
ATOM      7  C   UNL     1      98.796 128.364  83.299  0.00  0.00    +0.000 A 
ATOM      8  O   UNL     1     101.217 125.962  81.944  0.00  0.00    +0.000 OA
ATOM      9  C   UNL     1     102.545 126.233  82.149  0.00  0.00    +0.000 A 
ATOM     10  N   UNL     1     102.779 127.350  82.818  0.00  0.00    +0.000 NA
ENDROOT
BRANCH   9  11
ATOM     11  C   UNL     1     103.514 125.277  81.623  0.00  0.00    +0.000 A 
ATOM     12  C   UNL     1     104.031 125.472  80.330  0.00  0.00    +0.000 A 
ATOM     13  C   UNL     1     104.960 124.580  79.802  0.00  0.00    +0.000 A 
ATOM     14  C   UNL     1     105.389 123.487  80.544  0.00  0.00    +0.000 A 
ATOM     15  C   UNL     1     104.894 123.272  81.822  0.00  0.00    +0.000 A 
ATOM     16  C   UNL     1     103.963 124.164  82.352  0.00  0.00    +0.000 A 
ATOM     17  F   UNL     1     103.510 123.920  83.591  0.00  0.00    +0.000 F 
ATOM     18  F   UNL     1     106.284 122.632  80.032  0.00  0.00    +0.000 F 
ATOM     19  F   UNL     1     105.440 124.786  78.568  0.00  0.00    +0.000 F 
ENDBRANCH   9  11
TORSDOF 1
ENDMDL
