MODEL 1
REMARK VINA RESULT:      -3.7      0.000      0.000
REMARK  Name = *****
REMARK  5 active torsions:
REMARK  status: ('A' for Active; 'I' for Inactive)
REMARK    1  A    between atoms: C_1  and  C_2
REMARK    2  A    between atoms: C_5  and  C_8
REMARK    3  A    between atoms: C_8  and  O_10
REMARK    4  A    between atoms: O_10  and  C_11
REMARK    5  A    between atoms: C_11  and  C_12
REMARK                            x       y       z     vdW  Elec       q    Type
REMARK                         _______ _______ _______ _____ _____    ______ ____
ROOT
ATOM      1  C   UNL     1      89.545  67.695  86.363  0.00  0.00    +0.000 C 
ATOM      2  O   UNL     1      89.587  66.517  86.683  0.00  0.00    +0.000 OA
ENDROOT
BRANCH   1   7
ATOM      3  C   UNL     1      86.233  71.649  89.022  0.00  0.00    +0.000 C 
ATOM      4  C   UNL     1      87.077  70.634  88.308  0.00  0.00    +0.000 A 
ATOM      5  C   UNL     1      88.473  70.720  88.349  0.00  0.00    +0.000 A 
ATOM      6  C   UNL     1      89.260  69.757  87.709  0.00  0.00    +0.000 A 
ATOM      7  C   UNL     1      88.660  68.690  87.030  0.00  0.00    +0.000 A 
ATOM      8  C   UNL     1      87.264  68.593  87.002  0.00  0.00    +0.000 A 
ATOM      9  C   UNL     1      86.479  69.558  87.642  0.00  0.00    +0.000 A 
ENDBRANCH   1   7
BRANCH   1  10
ATOM     10  O   UNL     1      90.281  68.288  85.392  0.00  0.00    +0.000 OA
BRANCH  10  11
ATOM     11  C   UNL     1      89.667  68.429  84.105  0.00  0.00    +0.000 C 
BRANCH  11  12
ATOM     12  C   UNL     1      89.832  69.830  83.511  0.00  0.00    +0.000 C 
ATOM     13  C   UNL     1      90.337  70.930  84.498  0.00  0.00    +0.000 C 
ATOM     14  C   UNL     1      89.350  72.093  84.251  0.00  0.00    +0.000 C 
ATOM     15  C   UNL     1      89.046  71.932  82.759  0.00  0.00    +0.000 C 
ATOM     16  C   UNL     1      88.551  70.486  82.920  0.00  0.00    +0.000 C 
ATOM     17  C   UNL     1      87.521  70.727  83.998  0.00  0.00    +0.000 C 
ATOM     18  C   UNL     1      88.005  71.683  84.805  0.00  0.00    +0.000 C 
ENDBRANCH  11  12
ENDBRANCH  10  11
ENDBRANCH   1  10
TORSDOF 4
ENDMDL
