MODEL 1
REMARK VINA RESULT:      -4.2      0.000      0.000
REMARK  Name = *****
REMARK  5 active torsions:
REMARK  status: ('A' for Active; 'I' for Inactive)
REMARK    1  A    between atoms: C_1  and  O_2
REMARK    2  A    between atoms: O_2  and  P_3
REMARK    3  A    between atoms: P_3  and  C_5
REMARK    4  A    between atoms: P_3  and  O_11
REMARK    5  A    between atoms: O_11  and  C_12
REMARK                            x       y       z     vdW  Elec       q    Type
REMARK                         _______ _______ _______ _____ _____    ______ ____
ROOT
ATOM      1  P   UNL     1      88.157  70.240  86.576  0.00  0.00    +0.000 P 
ATOM      2  O   UNL     1      89.253  70.050  87.588  0.00  0.00    +0.000 OA
ENDROOT
BRANCH   1   3
ATOM      3  C   UNL     1      86.698  71.092  87.111  0.00  0.00    +0.000 A 
ATOM      4  C   UNL     1      86.417  71.250  88.477  0.00  0.00    +0.000 A 
ATOM      5  C   UNL     1      85.265  71.919  88.893  0.00  0.00    +0.000 A 
ATOM      6  C   UNL     1      84.385  72.441  87.948  0.00  0.00    +0.000 A 
ATOM      7  C   UNL     1      84.652  72.295  86.588  0.00  0.00    +0.000 A 
ATOM      8  C   UNL     1      85.803  71.624  86.172  0.00  0.00    +0.000 A 
ENDBRANCH   1   3
BRANCH   1  10
ATOM      9  C   UNL     1      90.090  71.077  85.072  0.00  0.00    +0.000 C 
ATOM     10  O   UNL     1      88.691  71.056  85.279  0.00  0.00    +0.000 OA
ENDBRANCH   1  10
BRANCH   1  11
ATOM     11  O   UNL     1      87.615  68.853  85.928  0.00  0.00    +0.000 OA
BRANCH  11  12
ATOM     12  C   UNL     1      87.951  67.651  86.495  0.00  0.00    +0.000 A 
ATOM     13  C   UNL     1      87.181  67.095  87.519  0.00  0.00    +0.000 A 
ATOM     14  C   UNL     1      87.552  65.874  88.091  0.00  0.00    +0.000 A 
ATOM     15  C   UNL     1      88.675  65.192  87.623  0.00  0.00    +0.000 A 
ATOM     16  C   UNL     1      89.420  65.722  86.570  0.00  0.00    +0.000 A 
ATOM     17  C   UNL     1      89.054  66.944  86.001  0.00  0.00    +0.000 A 
ATOM     18 CL   UNL     1      89.975  67.527  84.661  0.00  0.00    +0.000 Cl
ATOM     19 CL   UNL     1      85.726  67.838  88.072  0.00  0.00    +0.000 Cl
ENDBRANCH  11  12
ENDBRANCH   1  11
TORSDOF 4
ENDMDL
