MODEL 1
REMARK VINA RESULT:      -4.6      0.000      0.000
REMARK  Name = *****
REMARK  4 active torsions:
REMARK  status: ('A' for Active; 'I' for Inactive)
REMARK    1  A    between atoms: C_1  and  C_2
REMARK    2  A    between atoms: C_5  and  O_8
REMARK    3  A    between atoms: O_8  and  C_9
REMARK    4  A    between atoms: C_9  and  C_11
REMARK                            x       y       z     vdW  Elec       q    Type
REMARK                         _______ _______ _______ _____ _____    ______ ____
ROOT
ATOM      1  O   UNL     1     103.358 125.051  80.260  0.00  0.00    +0.000 OA
ENDROOT
BRANCH   1   6
ATOM      2  C   UNL     1     102.059 129.161  83.974  0.00  0.00    +0.000 C 
ATOM      3  C   UNL     1     102.382 128.093  82.971  0.00  0.00    +0.000 A 
ATOM      4  C   UNL     1     101.594 126.935  82.891  0.00  0.00    +0.000 A 
ATOM      5  C   UNL     1     101.908 125.928  81.978  0.00  0.00    +0.000 A 
ATOM      6  C   UNL     1     103.011 126.092  81.148  0.00  0.00    +0.000 A 
ATOM      7  C   UNL     1     103.831 127.213  81.230  0.00  0.00    +0.000 A 
ATOM      8  C   UNL     1     103.511 128.217  82.145  0.00  0.00    +0.000 A 
ENDBRANCH   1   6
BRANCH   1   9
ATOM      9  C   UNL     1     104.618 124.447  80.234  0.00  0.00    +0.000 C 
ATOM     10  S   UNL     1     105.888 124.965  79.286  0.00  0.00    +0.000 S 
BRANCH   9  11
ATOM     11  C   UNL     1     104.595 123.278  81.147  0.00  0.00    +0.000 A 
ATOM     12  C   UNL     1     104.632 121.977  80.623  0.00  0.00    +0.000 A 
ATOM     13  C   UNL     1     104.608 120.871  81.476  0.00  0.00    +0.000 A 
ATOM     14  C   UNL     1     104.546 121.055  82.856  0.00  0.00    +0.000 A 
ATOM     15  C   UNL     1     104.507 122.343  83.387  0.00  0.00    +0.000 A 
ATOM     16  C   UNL     1     104.531 123.453  82.537  0.00  0.00    +0.000 A 
ENDBRANCH   9  11
ENDBRANCH   1   9
TORSDOF 3
ENDMDL
