MODEL 1
REMARK VINA RESULT:      -4.7      0.000      0.000
REMARK  Name = *****
REMARK  6 active torsions:
REMARK  status: ('A' for Active; 'I' for Inactive)
REMARK    1  A    between atoms: C_1  and  C_2
REMARK    2  A    between atoms: C_2  and  N_3
REMARK    3  A    between atoms: N_3  and  C_4
REMARK    4  A    between atoms: N_3  and  C_12
REMARK    5  A    between atoms: C_4  and  C_5
REMARK    6  A    between atoms: C_16  and  C_18
REMARK                            x       y       z     vdW  Elec       q    Type
REMARK                         _______ _______ _______ _____ _____    ______ ____
ROOT
ATOM      1  N   UNL     1      88.704  69.931  86.843  0.00  0.00    +0.000 N 
ENDROOT
BRANCH   1   2
ATOM      2  C   UNL     1      88.842  68.529  86.816  0.00  0.00    +0.000 A 
ATOM      3  C   UNL     1      87.868  67.711  87.418  0.00  0.00    +0.000 A 
ATOM      4  C   UNL     1      87.963  66.316  87.409  0.00  0.00    +0.000 A 
ATOM      5  C   UNL     1      89.037  65.695  86.783  0.00  0.00    +0.000 A 
ATOM      6  C   UNL     1      90.014  66.467  86.153  0.00  0.00    +0.000 A 
ATOM      7  C   UNL     1      89.912  67.870  86.186  0.00  0.00    +0.000 A 
ATOM      8  C   UNL     1      91.194  65.814  85.495  0.00  0.00    +0.000 C 
ENDBRANCH   1   2
BRANCH   1  10
ATOM      9  C   UNL     1      89.591  71.265  84.936  0.00  0.00    +0.000 C 
ATOM     10  C   UNL     1      89.823  70.752  86.352  0.00  0.00    +0.000 C 
ENDBRANCH   1  10
BRANCH   1  11
ATOM     11  C   UNL     1      87.972  70.450  88.018  0.00  0.00    +0.000 C 
BRANCH  11  12
ATOM     12  C   UNL     1      86.682  71.174  87.663  0.00  0.00    +0.000 A 
ATOM     13  C   UNL     1      86.271  71.406  86.339  0.00  0.00    +0.000 A 
ATOM     14  C   UNL     1      85.070  72.063  86.067  0.00  0.00    +0.000 A 
ATOM     15  C   UNL     1      84.269  72.489  87.119  0.00  0.00    +0.000 A 
ATOM     16  C   UNL     1      84.648  72.270  88.437  0.00  0.00    +0.000 A 
ATOM     17  C   UNL     1      85.850  71.614  88.708  0.00  0.00    +0.000 A 
ATOM     18  F   UNL     1      83.115  73.117  86.859  0.00  0.00    +0.000 F 
ENDBRANCH  11  12
ENDBRANCH   1  11
TORSDOF 4
ENDMDL
