REMARK  Name = *****
REMARK  3 active torsions:
REMARK  status: ('A' for Active; 'I' for Inactive)
REMARK    1  A    between atoms: C_1  and  C_2
REMARK    2  A    between atoms: C_5  and  N_7
REMARK    3  A    between atoms: C_9  and  C_12
REMARK                            x       y       z     vdW  Elec       q    Type
REMARK                         _______ _______ _______ _____ _____    ______ ____
ROOT
ATOM      1  N   UNL     1      -2.404   1.437   0.142  0.00  0.00    +0.000 N 
ATOM      2  C   UNL     1      -3.202   2.352  -0.481  0.00  0.00    +0.000 A 
ATOM      3  C   UNL     1      -4.201   2.593   0.434  0.00  0.00    +0.000 A 
ATOM      4  N   UNL     1      -3.981   1.836   1.555  0.00  0.00    +0.000 NA
ATOM      5  N   UNL     1      -2.874   1.129   1.365  0.00  0.00    +0.000 NA
ENDROOT
BRANCH   1  10
ATOM      6  C   UNL     1       1.821  -0.148  -0.777  0.00  0.00    +0.000 C 
ATOM      7  C   UNL     1       0.933  -0.026   0.460  0.00  0.00    +0.000 C 
ATOM      8  C   UNL     1      -0.100  -1.147   0.550  0.00  0.00    +0.000 C 
ATOM      9  C   UNL     1      -1.230  -0.709  -0.377  0.00  0.00    +0.000 C 
ATOM     10  C   UNL     1      -1.195   0.829  -0.371  0.00  0.00    +0.000 C 
ATOM     11  C   UNL     1       0.061   1.229   0.422  0.00  0.00    +0.000 C 
ENDBRANCH   1  10
BRANCH   3  12
ATOM     12  C   UNL     1      -5.354   3.520   0.273  0.00  0.00    +0.000 A 
ATOM     13  C   UNL     1      -6.317   3.707   1.243  0.00  0.00    +0.000 A 
ATOM     14  C   UNL     1      -7.312   4.647   0.840  0.00  0.00    +0.000 A 
ATOM     15  C   UNL     1      -7.071   5.143  -0.422  0.00  0.00    +0.000 A 
ATOM     16  S   UNL     1      -5.653   4.476  -1.111  0.00  0.00    +0.000 S 
ENDBRANCH   3  12
TORSDOF 2
