MODEL 1
REMARK VINA RESULT:      -3.3      0.000      0.000
REMARK  Name = *****
REMARK  5 active torsions:
REMARK  status: ('A' for Active; 'I' for Inactive)
REMARK    1  A    between atoms: C_4  and  C_6
REMARK    2  A    between atoms: C_6  and  C_7
REMARK    3  A    between atoms: C_7  and  S_8
REMARK    4  A    between atoms: S_8  and  C_9
REMARK    5  A    between atoms: C_9  and  C_10
REMARK                            x       y       z     vdW  Elec       q    Type
REMARK                         _______ _______ _______ _____ _____    ______ ____
ROOT
ATOM      1  S   UNL     1      86.462  65.350  86.170  0.00  0.00    +0.000 S 
ENDROOT
BRANCH   1   2
ATOM      2  C   UNL     1      86.236  63.543  86.311  0.00  0.00    +0.000 C 
BRANCH   2   3
ATOM      3  C   UNL     1      84.878  63.171  86.913  0.00  0.00    +0.000 C 
BRANCH   3   7
ATOM      4  C   UNL     1      85.685  61.055  89.961  0.00  0.00    +0.000 C 
ATOM      5  C   UNL     1      84.520  61.882  90.498  0.00  0.00    +0.000 C 
ATOM      6  C   UNL     1      84.049  62.618  89.286  0.00  0.00    +0.000 C 
ATOM      7  C   UNL     1      84.931  62.551  88.280  0.00  0.00    +0.000 C 
ATOM      8  C   UNL     1      86.136  61.745  88.674  0.00  0.00    +0.000 C 
ENDBRANCH   3   7
ENDBRANCH   2   3
ENDBRANCH   1   2
BRANCH   1   9
ATOM      9  C   UNL     1      87.959  65.546  87.186  0.00  0.00    +0.000 C 
BRANCH   9  10
ATOM     10  C   UNL     1      87.717  65.119  88.613  0.00  0.00    +0.000 A 
ATOM     11  C   UNL     1      86.609  65.603  89.324  0.00  0.00    +0.000 A 
ATOM     12  C   UNL     1      86.389  65.213  90.645  0.00  0.00    +0.000 A 
ATOM     13  C   UNL     1      87.277  64.340  91.273  0.00  0.00    +0.000 A 
ATOM     14  C   UNL     1      88.388  63.861  90.580  0.00  0.00    +0.000 A 
ATOM     15  C   UNL     1      88.610  64.251  89.258  0.00  0.00    +0.000 A 
ENDBRANCH   9  10
ENDBRANCH   1   9
TORSDOF 5
ENDMDL
