REMARK  Name = *****
REMARK  3 active torsions:
REMARK  status: ('A' for Active; 'I' for Inactive)
REMARK    1  A    between atoms: C_1  and  C_2
REMARK    2  A    between atoms: C_5  and  S_8
REMARK    3  A    between atoms: S_8  and  C_9
REMARK                            x       y       z     vdW  Elec       q    Type
REMARK                         _______ _______ _______ _____ _____    ______ ____
ROOT
ATOM      1  C   UNL     1      -4.071   0.851  -1.467  0.00  0.00    +0.000 A 
ATOM      2  N   UNL     1      -5.324   1.020  -1.853  0.00  0.00    +0.000 NA
ATOM      3  C   UNL     1      -5.217   1.628  -3.076  0.00  0.00    +0.000 A 
ATOM      4  C   UNL     1      -6.196   2.064  -3.978  0.00  0.00    +0.000 A 
ATOM      5  C   UNL     1      -5.772   2.671  -5.170  0.00  0.00    +0.000 A 
ATOM      6  C   UNL     1      -4.409   2.837  -5.453  0.00  0.00    +0.000 A 
ATOM      7  C   UNL     1      -3.420   2.404  -4.561  0.00  0.00    +0.000 A 
ATOM      8  C   UNL     1      -3.884   1.809  -3.394  0.00  0.00    +0.000 A 
ATOM      9  O   UNL     1      -3.140   1.308  -2.369  0.00  0.00    +0.000 OA
ENDROOT
BRANCH   1  10
ATOM     10  S   UNL     1      -3.673   0.124   0.070  0.00  0.00    +0.000 S 
BRANCH  10  15
ATOM     11  C   UNL     1       2.420   0.015  -0.073  0.00  0.00    +0.000 C 
ATOM     12  C   UNL     1       0.920   0.062  -0.066  0.00  0.00    +0.000 A 
ATOM     13  C   UNL     1       0.238   1.277   0.058  0.00  0.00    +0.000 A 
ATOM     14  C   UNL     1      -1.159   1.305   0.086  0.00  0.00    +0.000 A 
ATOM     15  C   UNL     1      -1.895   0.120  -0.022  0.00  0.00    +0.000 A 
ATOM     16  C   UNL     1      -1.213  -1.096  -0.134  0.00  0.00    +0.000 A 
ATOM     17  C   UNL     1       0.184  -1.125  -0.157  0.00  0.00    +0.000 A 
ENDBRANCH  10  15
ENDBRANCH   1  10
TORSDOF 2
