MODEL 1
REMARK VINA RESULT:      -4.3      0.000      0.000
REMARK  Name = *****
REMARK  3 active torsions:
REMARK  status: ('A' for Active; 'I' for Inactive)
REMARK    1  A    between atoms: C_4  and  N_7
REMARK    2  A    between atoms: N_7  and  O_8
REMARK    3  A    between atoms: O_8  and  C_9
REMARK                            x       y       z     vdW  Elec       q    Type
REMARK                         _______ _______ _______ _____ _____    ______ ____
ROOT
ATOM      1  N   UNL     1      89.134  63.851  87.962  0.00  0.00    +0.000 N 
ATOM      2  H   UNL     1      90.087  63.755  88.185  0.00  0.00    +0.000 HD
ENDROOT
BRANCH   1   6
ATOM      3  C   UNL     1      86.030  62.740  90.601  0.00  0.00    +0.000 A 
ATOM      4  C   UNL     1      86.953  63.710  90.987  0.00  0.00    +0.000 A 
ATOM      5  C   UNL     1      87.990  64.071  90.124  0.00  0.00    +0.000 A 
ATOM      6  C   UNL     1      88.136  63.450  88.878  0.00  0.00    +0.000 A 
ATOM      7  C   UNL     1      87.178  62.506  88.486  0.00  0.00    +0.000 A 
ATOM      8  C   UNL     1      86.138  62.142  89.347  0.00  0.00    +0.000 A 
ENDBRANCH   1   6
BRANCH   1   9
ATOM      9  O   UNL     1      88.740  64.384  86.731  0.00  0.00    +0.000 OA
BRANCH   9  10
ATOM     10  C   UNL     1      88.821  65.757  86.748  0.00  0.00    +0.000 A 
ATOM     11  C   UNL     1      87.838  66.582  87.304  0.00  0.00    +0.000 A 
ATOM     12  C   UNL     1      88.012  67.967  87.309  0.00  0.00    +0.000 A 
ATOM     13  C   UNL     1      89.172  68.522  86.770  0.00  0.00    +0.000 A 
ATOM     14  C   UNL     1      90.163  67.703  86.231  0.00  0.00    +0.000 A 
ATOM     15  C   UNL     1      89.989  66.318  86.226  0.00  0.00    +0.000 A 
ATOM     16 CL   UNL     1      89.387  70.230  86.777  0.00  0.00    +0.000 Cl
ENDBRANCH   9  10
ENDBRANCH   1   9
TORSDOF 3
ENDMDL
