MODEL 1
REMARK VINA RESULT:      -4.1      0.000      0.000
REMARK  Name = *****
REMARK  2 active torsions:
REMARK  status: ('A' for Active; 'I' for Inactive)
REMARK    1  A    between atoms: C_4  and  C_7
REMARK    2  A    between atoms: C_8  and  C_9
REMARK                            x       y       z     vdW  Elec       q    Type
REMARK                         _______ _______ _______ _____ _____    ______ ____
ROOT
ATOM      1  C   UNL     1     102.859 125.718  81.577  0.00  0.00    +0.000 C 
ATOM      2  C   UNL     1     101.999 126.389  82.080  0.00  0.00    +0.000 C 
ENDROOT
BRANCH   1   6
ATOM      3  C   UNL     1     105.934 123.447  79.785  0.00  0.00    +0.000 A 
ATOM      4  C   UNL     1     105.605 124.701  79.271  0.00  0.00    +0.000 A 
ATOM      5  C   UNL     1     104.584 125.452  79.857  0.00  0.00    +0.000 A 
ATOM      6  C   UNL     1     103.891 124.945  80.959  0.00  0.00    +0.000 A 
ATOM      7  C   UNL     1     104.219 123.687  81.470  0.00  0.00    +0.000 A 
ATOM      8  C   UNL     1     105.240 122.938  80.882  0.00  0.00    +0.000 A 
ENDBRANCH   1   6
BRANCH   2   9
ATOM      9  C   UNL     1     100.986 127.210  82.658  0.00  0.00    +0.000 A 
ATOM     10  C   UNL     1     101.178 128.333  83.429  0.00  0.00    +0.000 A 
ATOM     11  C   UNL     1      99.966 128.925  83.875  0.00  0.00    +0.000 A 
ATOM     12  C   UNL     1      98.868 128.225  83.422  0.00  0.00    +0.000 A 
ATOM     13  S   UNL     1      99.315 126.876  82.468  0.00  0.00    +0.000 S 
ATOM     14 BR   UNL     1     102.847 129.086  83.906  0.00  0.00    +0.000 Br
ENDBRANCH   2   9
TORSDOF 2
ENDMDL
