REMARK  Name = *****
REMARK  4 active torsions:
REMARK  status: ('A' for Active; 'I' for Inactive)
REMARK    1  A    between atoms: C_4  and  C_8
REMARK    2  A    between atoms: C_8  and  O_9
REMARK    3  A    between atoms: O_9  and  C_10
REMARK    4  A    between atoms: C_10  and  C_12
REMARK                            x       y       z     vdW  Elec       q    Type
REMARK                         _______ _______ _______ _____ _____    ______ ____
ROOT
ATOM      1  O   UNL     1       1.148  -3.503   0.589  0.00  0.00    +0.000 OA
ENDROOT
BRANCH   1   2
ATOM      2  C   UNL     1       1.108  -3.700   1.930  0.00  0.00    +0.000 C 
ATOM      3  O   UNL     1       1.000  -2.831   2.780  0.00  0.00    +0.000 OA
BRANCH   2   4
ATOM      4  C   UNL     1       1.218  -5.150   2.248  0.00  0.00    +0.000 A 
ATOM      5  C   UNL     1       1.142  -5.540   3.592  0.00  0.00    +0.000 A 
ATOM      6  C   UNL     1       1.242  -6.888   3.942  0.00  0.00    +0.000 A 
ATOM      7  C   UNL     1       1.419  -7.854   2.952  0.00  0.00    +0.000 A 
ATOM      8  C   UNL     1       1.498  -7.475   1.612  0.00  0.00    +0.000 A 
ATOM      9  C   UNL     1       1.398  -6.127   1.258  0.00  0.00    +0.000 A 
ENDBRANCH   2   4
ENDBRANCH   1   2
BRANCH   1  10
ATOM     10  C   UNL     1       1.066  -2.136   0.153  0.00  0.00    +0.000 C 
BRANCH  10  14
ATOM     11  C   UNL     1       3.105  -1.452  -2.197  0.00  0.00    +0.000 C 
ATOM     12  C   UNL     1       3.417  -0.077  -1.600  0.00  0.00    +0.000 C 
ATOM     13  C   UNL     1       2.430  -0.037  -0.412  0.00  0.00    +0.000 C 
ATOM     14  C   UNL     1       2.459  -1.507   0.114  0.00  0.00    +0.000 C 
ATOM     15  C   UNL     1       3.417  -2.199  -0.894  0.00  0.00    +0.000 C 
ATOM     16  C   UNL     1       4.803  -1.642  -0.644  0.00  0.00    +0.000 C 
ATOM     17  C   UNL     1       4.798  -0.365  -1.059  0.00  0.00    +0.000 C 
ENDBRANCH  10  14
ENDBRANCH   1  10
TORSDOF 4
