MODEL 1
REMARK VINA RESULT:      -4.6      0.000      0.000
REMARK  Name = *****
REMARK  4 active torsions:
REMARK  status: ('A' for Active; 'I' for Inactive)
REMARK    1  A    between atoms: C_1  and  C_2
REMARK    2  A    between atoms: C_5  and  C_8
REMARK    3  A    between atoms: C_8  and  O_10
REMARK    4  A    between atoms: O_10  and  C_11
REMARK                            x       y       z     vdW  Elec       q    Type
REMARK                         _______ _______ _______ _____ _____    ______ ____
ROOT
ATOM      1  C   UNL     1     103.310 127.247  82.053  0.00  0.00    +0.000 C 
ATOM      2  O   UNL     1     103.577 128.225  81.372  0.00  0.00    +0.000 OA
ENDROOT
BRANCH   1   7
ATOM      3  C   UNL     1     105.028 121.825  80.887  0.00  0.00    +0.000 C 
ATOM      4  C   UNL     1     104.614 123.238  81.178  0.00  0.00    +0.000 A 
ATOM      5  C   UNL     1     104.566 124.189  80.152  0.00  0.00    +0.000 A 
ATOM      6  C   UNL     1     104.149 125.498  80.414  0.00  0.00    +0.000 A 
ATOM      7  C   UNL     1     103.765 125.870  81.709  0.00  0.00    +0.000 A 
ATOM      8  C   UNL     1     103.798 124.913  82.733  0.00  0.00    +0.000 A 
ATOM      9  C   UNL     1     104.214 123.606  82.467  0.00  0.00    +0.000 A 
ENDBRANCH   1   7
BRANCH   1  10
ATOM     10  O   UNL     1     102.563 127.212  83.216  0.00  0.00    +0.000 OA
BRANCH  10  11
ATOM     11  C   UNL     1     101.216 127.563  83.069  0.00  0.00    +0.000 A 
ATOM     12  C   UNL     1     100.730 128.769  83.573  0.00  0.00    +0.000 A 
ATOM     13  C   UNL     1      99.369 129.055  83.462  0.00  0.00    +0.000 A 
ATOM     14  C   UNL     1      98.508 128.131  82.867  0.00  0.00    +0.000 A 
ATOM     15  C   UNL     1      99.002 126.917  82.384  0.00  0.00    +0.000 A 
ATOM     16  C   UNL     1     100.361 126.626  82.492  0.00  0.00    +0.000 A 
ENDBRANCH  10  11
ENDBRANCH   1  10
TORSDOF 3
ENDMDL
