REMARK  Name = *****
REMARK  3 active torsions:
REMARK  status: ('A' for Active; 'I' for Inactive)
REMARK    1  A    between atoms: C_4  and  C_7
REMARK    2  A    between atoms: C_8  and  C_9
REMARK    3  A    between atoms: C_11  and  C_15
REMARK                            x       y       z     vdW  Elec       q    Type
REMARK                         _______ _______ _______ _____ _____    ______ ____
ROOT
ATOM      1  C   UNL     1      -5.139  -0.278  -0.601  0.00  0.00    +0.000 A 
ATOM      2  C   UNL     1      -5.624   0.780  -1.385  0.00  0.00    +0.000 A 
ATOM      3  C   UNL     1      -7.004   0.977  -1.548  0.00  0.00    +0.000 A 
ATOM      4  C   UNL     1      -7.899   0.093  -0.928  0.00  0.00    +0.000 A 
ATOM      5  C   UNL     1      -7.424  -0.971  -0.162  0.00  0.00    +0.000 A 
ATOM      6  C   UNL     1      -6.051  -1.158  -0.005  0.00  0.00    +0.000 A 
ENDROOT
BRANCH   3   7
ATOM      7  C   UNL     1      -7.554   2.104  -2.371  0.00  0.00    +0.000 C 
ATOM      8  O   UNL     1      -8.777   2.172  -2.487  0.00  0.00    +0.000 OA
ATOM      9 CL   UNL     1      -6.467   3.258  -3.116  0.00  0.00    +0.000 Cl
ENDBRANCH   3   7
BRANCH   1  11
ATOM     10  C   UNL     1      -2.784   0.438  -0.275  0.00  0.00    +0.000 C 
ATOM     11  C   UNL     1      -3.700  -0.532  -0.434  0.00  0.00    +0.000 C 
BRANCH  10  15
ATOM     12  C   UNL     1       1.411  -0.201   0.265  0.00  0.00    +0.000 A 
ATOM     13  C   UNL     1       0.702  -1.014  -0.616  0.00  0.00    +0.000 A 
ATOM     14  C   UNL     1      -0.671  -0.821  -0.796  0.00  0.00    +0.000 A 
ATOM     15  C   UNL     1      -1.349   0.180  -0.089  0.00  0.00    +0.000 A 
ATOM     16  C   UNL     1      -0.620   1.003   0.780  0.00  0.00    +0.000 A 
ATOM     17  C   UNL     1       0.752   0.810   0.961  0.00  0.00    +0.000 A 
ENDBRANCH  10  15
ENDBRANCH   1  11
TORSDOF 3
