MODEL 1
REMARK VINA RESULT:      -4.3      0.000      0.000
REMARK  Name = *****
REMARK  5 active torsions:
REMARK  status: ('A' for Active; 'I' for Inactive)
REMARK    1  A    between atoms: C_1  and  C_2
REMARK    2  A    between atoms: C_7  and  C_8
REMARK    3  A    between atoms: C_8  and  O_10
REMARK    4  A    between atoms: O_10  and  C_11
REMARK    5  A    between atoms: C_16  and  C_17
REMARK                            x       y       z     vdW  Elec       q    Type
REMARK                         _______ _______ _______ _____ _____    ______ ____
ROOT
ATOM      1  C   UNL     1      88.426  70.608  85.475  0.00  0.00    +0.000 C 
ATOM      2  O   UNL     1      89.498  71.191  85.428  0.00  0.00    +0.000 OA
ENDROOT
BRANCH   1   9
ATOM      3  C   UNL     1      88.385  70.380  88.453  0.00  0.00    +0.000 C 
ATOM      4  C   UNL     1      87.240  70.971  87.675  0.00  0.00    +0.000 A 
ATOM      5  C   UNL     1      86.123  71.454  88.379  0.00  0.00    +0.000 A 
ATOM      6  C   UNL     1      85.037  72.014  87.704  0.00  0.00    +0.000 A 
ATOM      7  C   UNL     1      85.052  72.108  86.316  0.00  0.00    +0.000 A 
ATOM      8  C   UNL     1      86.156  71.644  85.600  0.00  0.00    +0.000 A 
ATOM      9  C   UNL     1      87.253  71.073  86.269  0.00  0.00    +0.000 A 
ENDBRANCH   1   9
BRANCH   1  10
ATOM     10  O   UNL     1      88.089  69.413  84.862  0.00  0.00    +0.000 OA
BRANCH  10  11
ATOM     11  C   UNL     1      88.461  68.265  85.575  0.00  0.00    +0.000 A 
ATOM     12  C   UNL     1      89.811  67.915  85.659  0.00  0.00    +0.000 A 
ATOM     13  C   UNL     1      90.172  66.743  86.318  0.00  0.00    +0.000 A 
ATOM     14  C   UNL     1      89.188  65.924  86.871  0.00  0.00    +0.000 A 
ATOM     15  C   UNL     1      87.838  66.272  86.765  0.00  0.00    +0.000 A 
ATOM     16  C   UNL     1      87.456  67.447  86.105  0.00  0.00    +0.000 A 
ATOM     17  C   UNL     1      86.009  67.819  85.984  0.00  0.00    +0.000 C 
ENDBRANCH  10  11
ENDBRANCH   1  10
TORSDOF 3
ENDMDL
