MODEL 1
REMARK VINA RESULT:      -4.5      0.000      0.000
REMARK  Name = *****
REMARK  2 active torsions:
REMARK  status: ('A' for Active; 'I' for Inactive)
REMARK    1  A    between atoms: C_7  and  C_8
REMARK    2  A    between atoms: C_9  and  C_10
REMARK                            x       y       z     vdW  Elec       q    Type
REMARK                         _______ _______ _______ _____ _____    ______ ____
ROOT
ATOM      1  C   UNL     1      87.395  64.249  91.229  0.00  0.00    +0.000 C 
ATOM      2  C   UNL     1      86.641  65.426  90.618  0.00  0.00    +0.000 C 
ATOM      3  C   UNL     1      86.011  65.037  89.284  0.00  0.00    +0.000 C 
ATOM      4  C   UNL     1      87.016  64.445  88.340  0.00  0.00    +0.000 C 
ATOM      5  C   UNL     1      88.276  63.808  88.875  0.00  0.00    +0.000 C 
ATOM      6  C   UNL     1      88.562  63.808  90.349  0.00  0.00    +0.000 C 
ATOM      7  C   UNL     1      87.231  62.950  88.207  0.00  0.00    +0.000 C 
ATOM      8  F   UNL     1      87.565  62.533  86.920  0.00  0.00    +0.000 F 
ENDROOT
BRANCH   7   9
ATOM      9  C   UNL     1      86.466  62.000  88.952  0.00  0.00    +0.000 C 
ATOM     10  C   UNL     1      85.824  61.210  89.590  0.00  0.00    +0.000 C 
BRANCH  10  11
ATOM     11  C   UNL     1      85.059  60.265  90.342  0.00  0.00    +0.000 A 
ATOM     12  C   UNL     1      85.679  59.141  90.890  0.00  0.00    +0.000 A 
ATOM     13  C   UNL     1      84.931  58.219  91.627  0.00  0.00    +0.000 A 
ATOM     14  C   UNL     1      83.564  58.422  91.815  0.00  0.00    +0.000 A 
ATOM     15  C   UNL     1      82.943  59.545  91.268  0.00  0.00    +0.000 A 
ATOM     16  C   UNL     1      83.689  60.467  90.532  0.00  0.00    +0.000 A 
ENDBRANCH  10  11
ENDBRANCH   7   9
TORSDOF 2
ENDMDL
