REMARK  Name = *****
REMARK  4 active torsions:
REMARK  status: ('A' for Active; 'I' for Inactive)
REMARK    1  A    between atoms: C_1  and  C_2
REMARK    2  A    between atoms: C_4  and  C_8
REMARK    3  A    between atoms: C_9  and  C_10
REMARK    4  A    between atoms: C_14  and  C_16
REMARK                            x       y       z     vdW  Elec       q    Type
REMARK                         _______ _______ _______ _____ _____    ______ ____
ROOT
ATOM      1  C   UNL     1      -1.778   2.537   0.001  0.00  0.00    +0.000 C 
ATOM      2  C   UNL     1      -1.205   3.751   0.029  0.00  0.00    +0.000 C 
ENDROOT
BRANCH   1   6
ATOM      3  C   UNL     1       2.105  -0.345   1.400  0.00  0.00    +0.000 C 
ATOM      4  C   UNL     1       0.856  -0.137   0.596  0.00  0.00    +0.000 A 
ATOM      5  C   UNL     1       0.164   1.081   0.661  0.00  0.00    +0.000 A 
ATOM      6  C   UNL     1      -1.019   1.279  -0.066  0.00  0.00    +0.000 A 
ATOM      7  C   UNL     1      -1.526   0.223  -0.832  0.00  0.00    +0.000 A 
ATOM      8  C   UNL     1      -0.852  -0.998  -0.891  0.00  0.00    +0.000 A 
ATOM      9  C   UNL     1       0.333  -1.178  -0.179  0.00  0.00    +0.000 A 
ENDBRANCH   1   6
BRANCH   2  10
ATOM     10  C   UNL     1      -1.960   5.012   0.077  0.00  0.00    +0.000 A 
ATOM     11  C   UNL     1      -3.120   5.159   0.847  0.00  0.00    +0.000 A 
ATOM     12  C   UNL     1      -3.786   6.385   0.900  0.00  0.00    +0.000 A 
ATOM     13  C   UNL     1      -3.295   7.479   0.188  0.00  0.00    +0.000 A 
ATOM     14  C   UNL     1      -2.138   7.356  -0.587  0.00  0.00    +0.000 A 
ATOM     15  C   UNL     1      -1.468   6.124  -0.621  0.00  0.00    +0.000 A 
ATOM     16  C   UNL     1      -1.581   8.539  -1.322  0.00  0.00    +0.000 C 
ENDBRANCH   2  10
TORSDOF 2
