MODEL 1
REMARK VINA RESULT:      -4.4      0.000      0.000
REMARK  Name = *****
REMARK  3 active torsions:
REMARK  status: ('A' for Active; 'I' for Inactive)
REMARK    1  A    between atoms: C_5  and  S_7
REMARK    2  A    between atoms: S_7  and  C_8
REMARK    3  A    between atoms: C_8  and  C_9
REMARK                            x       y       z     vdW  Elec       q    Type
REMARK                         _______ _______ _______ _____ _____    ______ ____
ROOT
ATOM      1  S   UNL     1     103.005 127.289  83.526  0.00  0.00    +0.000 S 
ENDROOT
BRANCH   1   6
ATOM      2  C   UNL     1      99.028 127.042  82.458  0.00  0.00    +0.000 A 
ATOM      3  C   UNL     1      98.574 128.309  82.816  0.00  0.00    +0.000 A 
ATOM      4  C   UNL     1      99.465 129.216  83.371  0.00  0.00    +0.000 A 
ATOM      5  C   UNL     1     100.800 128.879  83.575  0.00  0.00    +0.000 A 
ATOM      6  C   UNL     1     101.272 127.608  83.220  0.00  0.00    +0.000 A 
ATOM      7  C   UNL     1     100.370 126.695  82.660  0.00  0.00    +0.000 A 
ATOM      8  F   UNL     1      99.033 130.435  83.718  0.00  0.00    +0.000 F 
ENDBRANCH   1   6
BRANCH   1   9
ATOM      9  C   UNL     1     103.048 125.523  83.977  0.00  0.00    +0.000 C 
BRANCH   9  10
ATOM     10  C   UNL     1     103.639 124.691  82.864  0.00  0.00    +0.000 A 
ATOM     11  C   UNL     1     104.238 123.451  83.143  0.00  0.00    +0.000 A 
ATOM     12  C   UNL     1     104.796 122.689  82.115  0.00  0.00    +0.000 A 
ATOM     13  C   UNL     1     104.762 123.167  80.810  0.00  0.00    +0.000 A 
ATOM     14  C   UNL     1     104.183 124.395  80.513  0.00  0.00    +0.000 A 
ATOM     15  C   UNL     1     103.624 125.159  81.539  0.00  0.00    +0.000 A 
ATOM     16  F   UNL     1     105.298 122.435  79.825  0.00  0.00    +0.000 F 
ENDBRANCH   9  10
ENDBRANCH   1   9
TORSDOF 3
ENDMDL
