MODEL 1
REMARK VINA RESULT:      -4.0      0.000      0.000
REMARK  Name = *****
REMARK  3 active torsions:
REMARK  status: ('A' for Active; 'I' for Inactive)
REMARK    1  A    between atoms: C_4  and  S_7
REMARK    2  A    between atoms: S_7  and  C_8
REMARK    3  A    between atoms: C_8  and  C_10
REMARK                            x       y       z     vdW  Elec       q    Type
REMARK                         _______ _______ _______ _____ _____    ______ ____
ROOT
ATOM      1  S   UNL     1     103.044 127.390  83.124  0.00  0.00    +0.000 S 
ENDROOT
BRANCH   1   5
ATOM      2  C   UNL     1      98.508 127.966  82.846  0.00  0.00    +0.000 A 
ATOM      3  C   UNL     1      99.298 128.958  83.426  0.00  0.00    +0.000 A 
ATOM      4  C   UNL     1     100.680 128.785  83.522  0.00  0.00    +0.000 A 
ATOM      5  C   UNL     1     101.279 127.612  83.048  0.00  0.00    +0.000 A 
ATOM      6  C   UNL     1     100.483 126.626  82.458  0.00  0.00    +0.000 A 
ATOM      7  C   UNL     1      99.100 126.801  82.361  0.00  0.00    +0.000 A 
ENDBRANCH   1   5
BRANCH   1   8
ATOM      8  C   UNL     1     103.433 126.864  81.477  0.00  0.00    +0.000 C 
ATOM      9  O   UNL     1     103.309 127.624  80.523  0.00  0.00    +0.000 OA
BRANCH   8  10
ATOM     10  C   UNL     1     103.886 125.478  81.391  0.00  0.00    +0.000 A 
ATOM     11  C   UNL     1     104.258 124.695  80.308  0.00  0.00    +0.000 A 
ATOM     12  C   UNL     1     104.640 123.372  80.682  0.00  0.00    +0.000 A 
ATOM     13  C   UNL     1     104.553 123.176  82.039  0.00  0.00    +0.000 A 
ATOM     14  S   UNL     1     104.014 124.575  82.854  0.00  0.00    +0.000 S 
ENDBRANCH   8  10
ENDBRANCH   1   8
TORSDOF 3
ENDMDL
