MODEL 1
REMARK VINA RESULT:      -4.7      0.000      0.000
REMARK  Name = *****
REMARK  4 active torsions:
REMARK  status: ('A' for Active; 'I' for Inactive)
REMARK    1  A    between atoms: C_1  and  C_2
REMARK    2  A    between atoms: C_5  and  S_8
REMARK    3  A    between atoms: S_8  and  N_10
REMARK    4  A    between atoms: N_10  and  C_11
REMARK                            x       y       z     vdW  Elec       q    Type
REMARK                         _______ _______ _______ _____ _____    ______ ____
ROOT
ATOM      1  S   UNL     1      88.892  64.110  86.360  0.00  0.00    +0.000 S 
ATOM      2  O   UNL     1      90.080  63.746  85.522  0.00  0.00    +0.000 OA
ENDROOT
BRANCH   1   7
ATOM      3  C   UNL     1      89.092  70.177  87.121  0.00  0.00    +0.000 C 
ATOM      4  C   UNL     1      89.029  68.692  86.909  0.00  0.00    +0.000 A 
ATOM      5  C   UNL     1      90.101  68.012  86.317  0.00  0.00    +0.000 A 
ATOM      6  C   UNL     1      90.055  66.626  86.154  0.00  0.00    +0.000 A 
ATOM      7  C   UNL     1      88.940  65.901  86.590  0.00  0.00    +0.000 A 
ATOM      8  C   UNL     1      87.878  66.575  87.199  0.00  0.00    +0.000 A 
ATOM      9  C   UNL     1      87.924  67.962  87.361  0.00  0.00    +0.000 A 
ENDBRANCH   1   7
BRANCH   1  10
ATOM     10  N   UNL     1      89.196  63.791  87.967  0.00  0.00    +0.000 N 
ATOM     11  H   UNL     1      90.136  63.797  88.260  0.00  0.00    +0.000 HD
BRANCH  10  12
ATOM     12  C   UNL     1      88.216  63.515  88.938  0.00  0.00    +0.000 A 
ATOM     13  C   UNL     1      88.160  64.134  90.194  0.00  0.00    +0.000 A 
ATOM     14  C   UNL     1      87.134  63.833  91.094  0.00  0.00    +0.000 A 
ATOM     15  C   UNL     1      86.135  62.924  90.756  0.00  0.00    +0.000 A 
ATOM     16  C   UNL     1      86.157  62.319  89.504  0.00  0.00    +0.000 A 
ATOM     17  C   UNL     1      87.184  62.619  88.604  0.00  0.00    +0.000 A 
ATOM     18 CL   UNL     1      87.099  64.595  92.637  0.00  0.00    +0.000 Cl
ENDBRANCH  10  12
ENDBRANCH   1  10
TORSDOF 3
ENDMDL
