REMARK  Name = *****
REMARK  4 active torsions:
REMARK  status: ('A' for Active; 'I' for Inactive)
REMARK    1  A    between atoms: C_4  and  C_7
REMARK    2  A    between atoms: C_7  and  O_9
REMARK    3  A    between atoms: O_9  and  C_10
REMARK    4  A    between atoms: C_10  and  C_11
REMARK                            x       y       z     vdW  Elec       q    Type
REMARK                         _______ _______ _______ _____ _____    ______ ____
ROOT
ATOM      1  O   UNL     1      -3.640  -0.518  -0.260  0.00  0.00    +0.000 OA
ENDROOT
BRANCH   1   2
ATOM      2  C   UNL     1      -2.868   0.577  -0.458  0.00  0.00    +0.000 C 
ATOM      3  O   UNL     1      -3.257   1.683  -0.798  0.00  0.00    +0.000 OA
BRANCH   2   7
ATOM      4  C   UNL     1       1.288  -0.263   0.184  0.00  0.00    +0.000 A 
ATOM      5  C   UNL     1       0.347  -1.263   0.426  0.00  0.00    +0.000 A 
ATOM      6  C   UNL     1      -1.012  -1.010   0.224  0.00  0.00    +0.000 A 
ATOM      7  C   UNL     1      -1.435   0.250  -0.223  0.00  0.00    +0.000 A 
ATOM      8  C   UNL     1      -0.481   1.250  -0.463  0.00  0.00    +0.000 A 
ATOM      9  C   UNL     1       0.876   0.992  -0.260  0.00  0.00    +0.000 A 
ENDBRANCH   2   7
ENDBRANCH   1   2
BRANCH   1  10
ATOM     10  C   UNL     1      -5.052  -0.342  -0.465  0.00  0.00    +0.000 C 
BRANCH  10  11
ATOM     11  C   UNL     1      -5.525  -0.878  -1.800  0.00  0.00    +0.000 A 
ATOM     12  C   UNL     1      -4.640  -1.504  -2.697  0.00  0.00    +0.000 A 
ATOM     13  C   UNL     1      -5.088  -1.997  -3.926  0.00  0.00    +0.000 A 
ATOM     14  C   UNL     1      -6.428  -1.878  -4.280  0.00  0.00    +0.000 A 
ATOM     15  C   UNL     1      -7.323  -1.268  -3.404  0.00  0.00    +0.000 A 
ATOM     16  C   UNL     1      -6.877  -0.774  -2.174  0.00  0.00    +0.000 A 
ATOM     17 CL   UNL     1      -8.053  -0.045  -1.135  0.00  0.00    +0.000 Cl
ENDBRANCH  10  11
ENDBRANCH   1  10
TORSDOF 4
