MODEL 1
REMARK VINA RESULT:      -4.8      0.000      0.000
REMARK  Name = *****
REMARK  5 active torsions:
REMARK  status: ('A' for Active; 'I' for Inactive)
REMARK    1  A    between atoms: C_1  and  C_2
REMARK    2  A    between atoms: C_2  and  C_4
REMARK    3  A    between atoms: C_7  and  C_10
REMARK    4  A    between atoms: C_10  and  C_11
REMARK    5  A    between atoms: C_11  and  C_12
REMARK                            x       y       z     vdW  Elec       q    Type
REMARK                         _______ _______ _______ _____ _____    ______ ____
ROOT
ATOM      1  C   UNL     1     104.772 123.103  81.434  0.00  0.00    +0.000 A 
ATOM      2  C   UNL     1     104.208 123.660  82.587  0.00  0.00    +0.000 A 
ATOM      3  C   UNL     1     103.627 124.932  82.541  0.00  0.00    +0.000 A 
ATOM      4  C   UNL     1     103.602 125.663  81.346  0.00  0.00    +0.000 A 
ATOM      5  C   UNL     1     104.173 125.104  80.196  0.00  0.00    +0.000 A 
ATOM      6  C   UNL     1     104.751 123.833  80.239  0.00  0.00    +0.000 A 
ENDROOT
BRANCH   1   8
ATOM      7  C   UNL     1     104.745 120.633  82.195  0.00  0.00    +0.000 C 
ATOM      8  C   UNL     1     105.405 121.750  81.428  0.00  0.00    +0.000 C 
ATOM      9  O   UNL     1     106.448 121.562  80.805  0.00  0.00    +0.000 OA
ENDBRANCH   1   8
BRANCH   4  10
ATOM     10  C   UNL     1     102.995 127.044  81.305  0.00  0.00    +0.000 C 
BRANCH  10  11
ATOM     11  C   UNL     1     102.557 127.509  82.697  0.00  0.00    +0.000 C 
BRANCH  11  12
ATOM     12  C   UNL     1     101.053 127.549  82.824  0.00  0.00    +0.000 A 
ATOM     13  C   UNL     1     100.426 128.610  83.495  0.00  0.00    +0.000 A 
ATOM     14  C   UNL     1      99.037 128.636  83.627  0.00  0.00    +0.000 A 
ATOM     15  C   UNL     1      98.278 127.602  83.092  0.00  0.00    +0.000 A 
ATOM     16  C   UNL     1      98.881 126.541  82.429  0.00  0.00    +0.000 A 
ATOM     17  C   UNL     1     100.269 126.512  82.295  0.00  0.00    +0.000 A 
ATOM     18  F   UNL     1      96.945 127.629  83.221  0.00  0.00    +0.000 F 
ENDBRANCH  11  12
ENDBRANCH  10  11
ENDBRANCH   4  10
TORSDOF 4
ENDMDL
