MODEL 1
REMARK VINA RESULT:      -4.7      0.000      0.000
REMARK  Name = *****
REMARK  3 active torsions:
REMARK  status: ('A' for Active; 'I' for Inactive)
REMARK    1  A    between atoms: C_1  and  C_2
REMARK    2  A    between atoms: C_5  and  N_8
REMARK    3  A    between atoms: C_9  and  C_10
REMARK                            x       y       z     vdW  Elec       q    Type
REMARK                         _______ _______ _______ _____ _____    ______ ____
ROOT
ATOM      1  N   UNL     1     102.790 126.041  81.651  0.00  0.00    +0.000 NA
ATOM      2  C   UNL     1     101.891 125.949  82.580  0.00  0.00    +0.000 C 
ENDROOT
BRANCH   1   7
ATOM      3  C   UNL     1     106.240 121.518  81.109  0.00  0.00    +0.000 C 
ATOM      4  C   UNL     1     105.361 122.724  81.260  0.00  0.00    +0.000 A 
ATOM      5  C   UNL     1     104.748 123.004  82.487  0.00  0.00    +0.000 A 
ATOM      6  C   UNL     1     103.898 124.107  82.617  0.00  0.00    +0.000 A 
ATOM      7  C   UNL     1     103.651 124.942  81.526  0.00  0.00    +0.000 A 
ATOM      8  C   UNL     1     104.236 124.646  80.294  0.00  0.00    +0.000 A 
ATOM      9  C   UNL     1     105.085 123.544  80.159  0.00  0.00    +0.000 A 
ENDBRANCH   1   7
BRANCH   2  10
ATOM     10  C   UNL     1     100.917 127.028  82.828  0.00  0.00    +0.000 A 
ATOM     11  C   UNL     1     101.315 128.227  83.424  0.00  0.00    +0.000 A 
ATOM     12  C   UNL     1     100.367 129.219  83.641  0.00  0.00    +0.000 A 
ATOM     13  C   UNL     1      99.037 129.038  83.275  0.00  0.00    +0.000 A 
ATOM     14  C   UNL     1      98.641 127.839  82.680  0.00  0.00    +0.000 A 
ATOM     15  C   UNL     1      99.581 126.831  82.455  0.00  0.00    +0.000 A 
ATOM     16  F   UNL     1     100.739 130.372  84.212  0.00  0.00    +0.000 F 
ENDBRANCH   2  10
TORSDOF 2
ENDMDL
