MODEL 1
REMARK VINA RESULT:      -3.7      0.000      0.000
REMARK  Name = *****
REMARK  4 active torsions:
REMARK  status: ('A' for Active; 'I' for Inactive)
REMARK    1  A    between atoms: C_1  and  C_2
REMARK    2  A    between atoms: C_3  and  O_9
REMARK    3  A    between atoms: C_4  and  C_8
REMARK    4  A    between atoms: O_9  and  P_10
REMARK                            x       y       z     vdW  Elec       q    Type
REMARK                         _______ _______ _______ _____ _____    ______ ____
ROOT
ATOM      1  C   UNL     1      88.083  70.581  88.709  0.00  0.00    +0.000 C 
ATOM      2  C   UNL     1      86.812  71.151  88.144  0.00  0.00    +0.000 A 
ATOM      3  C   UNL     1      86.539  71.313  86.769  0.00  0.00    +0.000 A 
ATOM      4  C   UNL     1      85.344  71.964  86.369  0.00  0.00    +0.000 A 
ATOM      5  C   UNL     1      84.401  72.357  87.329  0.00  0.00    +0.000 A 
ATOM      6  C   UNL     1      84.643  72.145  88.678  0.00  0.00    +0.000 A 
ATOM      7  C   UNL     1      85.838  71.556  89.080  0.00  0.00    +0.000 A 
ATOM      8  C   UNL     1      85.040  72.225  84.917  0.00  0.00    +0.000 C 
ENDROOT
BRANCH   3   9
ATOM      9  O   UNL     1      87.336  70.933  85.713  0.00  0.00    +0.000 OA
BRANCH   9  10
ATOM     10  P   UNL     1      87.592  69.480  85.070  0.00  0.00    +0.000 P 
ATOM     11  S   UNL     1      89.667  69.351  85.348  0.00  0.00    +0.000 S 
ATOM     12  C   UNL     1      90.408  70.855  84.666  0.00  0.00    +0.000 C 
ATOM     13  C   UNL     1      90.186  71.013  83.165  0.00  0.00    +0.000 C 
ATOM     14  C   UNL     1      88.746  71.334  82.772  0.00  0.00    +0.000 C 
ATOM     15  S   UNL     1      87.603  69.957  83.025  0.00  0.00    +0.000 S 
ENDBRANCH   9  10
ENDBRANCH   3   9
TORSDOF 2
ENDMDL
