MODEL 1
REMARK VINA RESULT:      -4.8      0.000      0.000
REMARK  Name = *****
REMARK  5 active torsions:
REMARK  status: ('A' for Active; 'I' for Inactive)
REMARK    1  A    between atoms: C_1  and  C_2
REMARK    2  A    between atoms: C_5  and  C_8
REMARK    3  A    between atoms: C_8  and  C_9
REMARK    4  A    between atoms: C_9  and  C_10
REMARK    5  A    between atoms: C_9  and  C_12
REMARK                            x       y       z     vdW  Elec       q    Type
REMARK                         _______ _______ _______ _____ _____    ______ ____
ROOT
ATOM      1  C   UNL     1     100.944 127.349  83.001  0.00  0.00    +0.000 C 
ENDROOT
BRANCH   1   2
ATOM      2  C   UNL     1     100.866 128.755  83.588  0.00  0.00    +0.000 A 
ATOM      3  C   UNL     1      99.677 129.505  83.538  0.00  0.00    +0.000 A 
ATOM      4  C   UNL     1      99.626 130.793  84.072  0.00  0.00    +0.000 A 
ATOM      5  C   UNL     1     100.759 131.353  84.656  0.00  0.00    +0.000 A 
ATOM      6  C   UNL     1     101.946 130.625  84.708  0.00  0.00    +0.000 A 
ATOM      7  C   UNL     1     102.001 129.334  84.178  0.00  0.00    +0.000 A 
ENDBRANCH   1   2
BRANCH   1   8
ATOM      8  C   UNL     1      99.627 126.898  82.494  0.00  0.00    +0.000 C 
ATOM      9  N   UNL     1      98.589 126.546  82.110  0.00  0.00    +0.000 NA
ENDBRANCH   1   8
BRANCH   1  10
ATOM     10  C   UNL     1     102.018 127.297  81.894  0.00  0.00    +0.000 C 
BRANCH  10  15
ATOM     11  C   UNL     1     105.181 122.401  81.974  0.00  0.00    +0.000 C 
ATOM     12  C   UNL     1     104.352 123.651  81.952  0.00  0.00    +0.000 A 
ATOM     13  C   UNL     1     104.117 124.325  80.749  0.00  0.00    +0.000 A 
ATOM     14  C   UNL     1     103.367 125.503  80.732  0.00  0.00    +0.000 A 
ATOM     15  C   UNL     1     102.849 126.035  81.920  0.00  0.00    +0.000 A 
ATOM     16  C   UNL     1     103.099 125.368  83.126  0.00  0.00    +0.000 A 
ATOM     17  C   UNL     1     103.848 124.189  83.142  0.00  0.00    +0.000 A 
ENDBRANCH  10  15
ENDBRANCH   1  10
TORSDOF 4
ENDMDL
