MODEL 1
REMARK VINA RESULT:      -4.6      0.000      0.000
REMARK  Name = *****
REMARK  4 active torsions:
REMARK  status: ('A' for Active; 'I' for Inactive)
REMARK    1  A    between atoms: C_1  and  C_2
REMARK    2  A    between atoms: C_5  and  C_7
REMARK    3  A    between atoms: N_8  and  C_9
REMARK    4  A    between atoms: C_12  and  C_15
REMARK                            x       y       z     vdW  Elec       q    Type
REMARK                         _______ _______ _______ _____ _____    ______ ____
ROOT
ATOM      1  C   UNL     1     103.409 125.141  81.749  0.00  0.00    +0.000 A 
ATOM      2  C   UNL     1     103.727 124.384  82.878  0.00  0.00    +0.000 A 
ATOM      3  C   UNL     1     104.577 123.279  82.773  0.00  0.00    +0.000 A 
ATOM      4  C   UNL     1     105.117 122.912  81.531  0.00  0.00    +0.000 A 
ATOM      5  C   UNL     1     104.773 123.662  80.396  0.00  0.00    +0.000 A 
ATOM      6  C   UNL     1     103.924 124.766  80.507  0.00  0.00    +0.000 A 
ENDROOT
BRANCH   4   7
ATOM      7  C   UNL     1     106.013 121.703  81.413  0.00  0.00    +0.000 C 
ATOM      8  F   UNL     1     106.876 121.781  80.361  0.00  0.00    +0.000 F 
ATOM      9  F   UNL     1     106.786 121.519  82.518  0.00  0.00    +0.000 F 
ATOM     10  F   UNL     1     105.324 120.540  81.240  0.00  0.00    +0.000 F 
ENDBRANCH   4   7
BRANCH   1  12
ATOM     11  C   UNL     1     101.582 126.120  82.712  0.00  0.00    +0.000 C 
ATOM     12  N   UNL     1     102.545 126.240  81.852  0.00  0.00    +0.000 NA
BRANCH  11  17
ATOM     13  C   UNL     1      99.338 130.715  84.017  0.00  0.00    +0.000 C 
ATOM     14  C   UNL     1      99.580 129.335  83.512  0.00  0.00    +0.000 A 
ATOM     15  C   UNL     1      98.685 128.466  82.925  0.00  0.00    +0.000 A 
ATOM     16  C   UNL     1      99.291 127.225  82.573  0.00  0.00    +0.000 A 
ATOM     17  C   UNL     1     100.631 127.187  82.902  0.00  0.00    +0.000 A 
ATOM     18  S   UNL     1     101.142 128.644  83.631  0.00  0.00    +0.000 S 
ENDBRANCH  11  17
ENDBRANCH   1  12
TORSDOF 3
ENDMDL
