MODEL 1
REMARK VINA RESULT:      -3.9      0.000      0.000
REMARK  Name = *****
REMARK  5 active torsions:
REMARK  status: ('A' for Active; 'I' for Inactive)
REMARK    1  A    between atoms: C_1  and  C_2
REMARK    2  A    between atoms: C_3  and  C_6
REMARK    3  A    between atoms: C_6  and  C_7
REMARK    4  A    between atoms: C_7  and  C_8
REMARK    5  A    between atoms: C_9  and  C_12
REMARK                            x       y       z     vdW  Elec       q    Type
REMARK                         _______ _______ _______ _____ _____    ______ ____
ROOT
ATOM      1  C   UNL     1     102.076 128.020  83.776  0.00  0.00    +0.000 C 
ENDROOT
BRANCH   1   4
ATOM      2  C   UNL     1      99.417 130.208  83.763  0.00  0.00    +0.000 C 
ATOM      3  C   UNL     1      99.602 128.791  83.269  0.00  0.00    +0.000 C 
ATOM      4  C   UNL     1     100.642 127.927  83.271  0.00  0.00    +0.000 C 
ATOM      5  C   UNL     1      99.850 126.831  82.583  0.00  0.00    +0.000 C 
ATOM      6  C   UNL     1      98.669 127.815  82.582  0.00  0.00    +0.000 C 
ENDBRANCH   1   4
BRANCH   1   7
ATOM      7  C   UNL     1     103.092 128.335  82.704  0.00  0.00    +0.000 C 
BRANCH   7   8
ATOM      8  C   UNL     1     103.298 127.212  81.695  0.00  0.00    +0.000 C 
ATOM      9  C   UNL     1     103.403 125.870  81.809  0.00  0.00    +0.000 C 
ATOM     10  C   UNL     1     103.582 125.661  80.318  0.00  0.00    +0.000 C 
ATOM     11  C   UNL     1     103.463 127.188  80.187  0.00  0.00    +0.000 C 
ATOM     12  C   UNL     1     103.359 124.909  82.975  0.00  0.00    +0.000 C 
ENDBRANCH   7   8
ENDBRANCH   1   7
TORSDOF 3
ENDMDL
