REMARK  Name = *****
REMARK  6 active torsions:
REMARK  status: ('A' for Active; 'I' for Inactive)
REMARK    1  A    between atoms: C_1  and  C_2
REMARK    2  A    between atoms: C_4  and  N_9
REMARK    3  A    between atoms: C_5  and  C_8
REMARK    4  A    between atoms: N_9  and  C_10
REMARK    5  A    between atoms: N_9  and  C_11
REMARK    6  A    between atoms: C_11  and  C_12
REMARK                            x       y       z     vdW  Elec       q    Type
REMARK                         _______ _______ _______ _____ _____    ______ ____
ROOT
ATOM      1  N   UNL     1      -0.929   2.094  -0.959  0.00  0.00    +0.000 N 
ATOM      2  C   UNL     1      -2.331   2.138  -1.364  0.00  0.00    +0.000 C 
ENDROOT
BRANCH   1   6
ATOM      3  C   UNL     1       2.546  -1.354  -1.075  0.00  0.00    +0.000 C 
ATOM      4  C   UNL     1       1.301  -0.812  -0.442  0.00  0.00    +0.000 A 
ATOM      5  C   UNL     1       0.719   0.368  -0.921  0.00  0.00    +0.000 A 
ATOM      6  C   UNL     1      -0.472   0.896  -0.380  0.00  0.00    +0.000 A 
ATOM      7  C   UNL     1      -1.080   0.212   0.691  0.00  0.00    +0.000 A 
ATOM      8  C   UNL     1      -0.509  -0.993   1.147  0.00  0.00    +0.000 A 
ATOM      9  C   UNL     1       0.664  -1.501   0.587  0.00  0.00    +0.000 A 
ATOM     10  C   UNL     1      -2.330   0.685   1.378  0.00  0.00    +0.000 C 
ENDBRANCH   1   6
BRANCH   1  11
ATOM     11  C   UNL     1      -0.410   3.284  -0.265  0.00  0.00    +0.000 C 
BRANCH  11  12
ATOM     12  C   UNL     1      -0.362   4.491  -1.181  0.00  0.00    +0.000 A 
ATOM     13  C   UNL     1       0.249   4.409  -2.442  0.00  0.00    +0.000 A 
ATOM     14  C   UNL     1       0.321   5.528  -3.272  0.00  0.00    +0.000 A 
ATOM     15  C   UNL     1      -0.208   6.745  -2.847  0.00  0.00    +0.000 A 
ATOM     16  C   UNL     1      -0.807   6.844  -1.593  0.00  0.00    +0.000 A 
ATOM     17  C   UNL     1      -0.882   5.724  -0.762  0.00  0.00    +0.000 A 
ENDBRANCH  11  12
ENDBRANCH   1  11
TORSDOF 3
