MODEL 1
REMARK VINA RESULT:      -4.9      0.000      0.000
REMARK  Name = *****
REMARK  4 active torsions:
REMARK  status: ('A' for Active; 'I' for Inactive)
REMARK    1  A    between atoms: C_1  and  C_2
REMARK    2  A    between atoms: C_4  and  C_8
REMARK    3  A    between atoms: C_9  and  C_10
REMARK    4  A    between atoms: C_9  and  C_12
REMARK                            x       y       z     vdW  Elec       q    Type
REMARK                         _______ _______ _______ _____ _____    ______ ____
ROOT
ATOM      1  C   UNL     1     102.063 125.740  82.656  0.00  0.00    +0.000 C 
ATOM      2  C   UNL     1     103.025 125.706  81.712  0.00  0.00    +0.000 C 
ENDROOT
BRANCH   1   6
ATOM      3  C   UNL     1     101.013 130.288  84.507  0.00  0.00    +0.000 C 
ATOM      4  C   UNL     1     100.602 129.062  83.746  0.00  0.00    +0.000 A 
ATOM      5  C   UNL     1     101.509 128.008  83.557  0.00  0.00    +0.000 A 
ATOM      6  C   UNL     1     101.120 126.841  82.887  0.00  0.00    +0.000 A 
ATOM      7  C   UNL     1      99.815 126.736  82.395  0.00  0.00    +0.000 A 
ATOM      8  C   UNL     1      98.903 127.773  82.591  0.00  0.00    +0.000 A 
ATOM      9  C   UNL     1      99.294 128.928  83.270  0.00  0.00    +0.000 A 
ENDBRANCH   1   6
BRANCH   2  10
ATOM     10  C   UNL     1     103.899 124.515  81.635  0.00  0.00    +0.000 A 
ATOM     11  C   UNL     1     104.176 123.751  82.780  0.00  0.00    +0.000 A 
ATOM     12  C   UNL     1     104.999 122.625  82.700  0.00  0.00    +0.000 A 
ATOM     13  C   UNL     1     105.550 122.250  81.477  0.00  0.00    +0.000 A 
ATOM     14  C   UNL     1     105.279 122.996  80.332  0.00  0.00    +0.000 A 
ATOM     15  C   UNL     1     104.457 124.123  80.409  0.00  0.00    +0.000 A 
ENDBRANCH   2  10
BRANCH   2  16
ATOM     16  C   UNL     1     103.263 126.793  80.812  0.00  0.00    +0.000 C 
ATOM     17  N   UNL     1     103.455 127.663  80.067  0.00  0.00    +0.000 NA
ENDBRANCH   2  16
TORSDOF 3
ENDMDL
