REMARK  Name = *****
REMARK  4 active torsions:
REMARK  status: ('A' for Active; 'I' for Inactive)
REMARK    1  A    between atoms: C_4  and  C_7
REMARK    2  A    between atoms: C_7  and  C_8
REMARK    3  A    between atoms: C_8  and  C_9
REMARK    4  A    between atoms: C_9  and  C_10
REMARK                            x       y       z     vdW  Elec       q    Type
REMARK                         _______ _______ _______ _____ _____    ______ ____
ROOT
ATOM      1  C   UNL     1      -3.447  -0.904  -0.490  0.00  0.00    +0.000 C 
ATOM      2  F   UNL     1      -3.316  -1.817   0.515  0.00  0.00    +0.000 F 
ATOM      3  F   UNL     1      -4.775  -0.605  -0.574  0.00  0.00    +0.000 F 
ENDROOT
BRANCH   1   4
ATOM      4  C   UNL     1      -2.948  -1.501  -1.823  0.00  0.00    +0.000 C 
ATOM      5  F   UNL     1      -3.047  -0.539  -2.797  0.00  0.00    +0.000 F 
ATOM      6  F   UNL     1      -1.600  -1.738  -1.719  0.00  0.00    +0.000 F 
BRANCH   4   7
ATOM      7  C   UNL     1      -3.701  -2.759  -2.213  0.00  0.00    +0.000 A 
ATOM      8  C   UNL     1      -4.876  -2.680  -2.977  0.00  0.00    +0.000 A 
ATOM      9  C   UNL     1      -5.573  -3.837  -3.328  0.00  0.00    +0.000 A 
ATOM     10  C   UNL     1      -5.104  -5.085  -2.920  0.00  0.00    +0.000 A 
ATOM     11  C   UNL     1      -3.939  -5.178  -2.161  0.00  0.00    +0.000 A 
ATOM     12  C   UNL     1      -3.240  -4.022  -1.809  0.00  0.00    +0.000 A 
ENDBRANCH   4   7
ENDBRANCH   1   4
BRANCH   1  13
ATOM     13  C   UNL     1      -2.662   0.361  -0.135  0.00  0.00    +0.000 C 
BRANCH  13  17
ATOM     14  C   UNL     1      -3.945   2.168   3.569  0.00  0.00    +0.000 A 
ATOM     15  C   UNL     1      -2.933   1.210   3.574  0.00  0.00    +0.000 A 
ATOM     16  C   UNL     1      -2.516   0.626   2.377  0.00  0.00    +0.000 A 
ATOM     17  C   UNL     1      -3.106   0.999   1.162  0.00  0.00    +0.000 A 
ATOM     18  C   UNL     1      -4.129   1.958   1.169  0.00  0.00    +0.000 A 
ATOM     19  C   UNL     1      -4.544   2.540   2.367  0.00  0.00    +0.000 A 
ENDBRANCH  13  17
ENDBRANCH   1  13
TORSDOF 4
