MODEL 1
REMARK VINA RESULT:      -4.9      0.000      0.000
REMARK  Name = *****
REMARK  1 active torsions:
REMARK  status: ('A' for Active; 'I' for Inactive)
REMARK    1  A    between atoms: C_4  and  C_7
REMARK                            x       y       z     vdW  Elec       q    Type
REMARK                         _______ _______ _______ _____ _____    ______ ____
ROOT
ATOM      1  C   UNL     1     102.075 126.065  82.524  0.00  0.00    +0.000 A 
ATOM      2  N   UNL     1     102.600 125.167  83.341  0.00  0.00    +0.000 NA
ATOM      3  C   UNL     1     103.527 124.520  82.567  0.00  0.00    +0.000 A 
ATOM      4  C   UNL     1     103.531 125.057  81.290  0.00  0.00    +0.000 A 
ATOM      5  O   UNL     1     102.599 126.052  81.254  0.00  0.00    +0.000 OA
ATOM      6  C   UNL     1     104.351 124.634  80.253  0.00  0.00    +0.000 A 
ATOM      7  C   UNL     1     105.216 123.588  80.575  0.00  0.00    +0.000 A 
ATOM      8  C   UNL     1     105.253 123.010  81.847  0.00  0.00    +0.000 A 
ATOM      9  C   UNL     1     104.405 123.469  82.866  0.00  0.00    +0.000 A 
ATOM     10  F   UNL     1     106.042 123.120  79.629  0.00  0.00    +0.000 F 
ENDROOT
BRANCH   1  14
ATOM     11  C   UNL     1      99.055 128.979  83.334  0.00  0.00    +0.000 A 
ATOM     12  C   UNL     1     100.381 129.222  83.682  0.00  0.00    +0.000 A 
ATOM     13  C   UNL     1     101.361 128.263  83.412  0.00  0.00    +0.000 A 
ATOM     14  C   UNL     1     101.028 127.048  82.792  0.00  0.00    +0.000 A 
ATOM     15  C   UNL     1      99.687 126.820  82.448  0.00  0.00    +0.000 A 
ATOM     16  C   UNL     1      98.706 127.780  82.717  0.00  0.00    +0.000 A 
ENDBRANCH   1  14
TORSDOF 1
ENDMDL
