MODEL 1
REMARK VINA RESULT:      -4.6      0.000      0.000
REMARK  Name = *****
REMARK  4 active torsions:
REMARK  status: ('A' for Active; 'I' for Inactive)
REMARK    1  A    between atoms: C_1  and  C_2
REMARK    2  A    between atoms: C_6  and  O_8
REMARK    3  A    between atoms: O_8  and  C_9
REMARK    4  A    between atoms: C_9  and  C_11
REMARK                            x       y       z     vdW  Elec       q    Type
REMARK                         _______ _______ _______ _____ _____    ______ ____
ROOT
ATOM      1  O   UNL     1     102.437 126.700  83.322  0.00  0.00    +0.000 OA
ENDROOT
BRANCH   1   7
ATOM      2  C   UNL     1      99.490 130.589  83.863  0.00  0.00    +0.000 C 
ATOM      3  C   UNL     1      99.540 129.064  83.815  0.00  0.00    +0.000 C 
ATOM      4  C   UNL     1      98.663 128.528  82.675  0.00  0.00    +0.000 C 
ATOM      5  C   UNL     1      98.742 127.008  82.568  0.00  0.00    +0.000 C 
ATOM      6  C   UNL     1     100.182 126.528  82.431  0.00  0.00    +0.000 C 
ATOM      7  C   UNL     1     101.061 127.046  83.572  0.00  0.00    +0.000 C 
ATOM      8  C   UNL     1     100.984 128.574  83.664  0.00  0.00    +0.000 C 
ENDBRANCH   1   7
BRANCH   1   9
ATOM      9  C   UNL     1     102.808 125.443  83.672  0.00  0.00    +0.000 C 
ATOM     10  O   UNL     1     102.587 124.901  84.743  0.00  0.00    +0.000 OA
BRANCH   9  11
ATOM     11  C   UNL     1     103.535 124.784  82.552  0.00  0.00    +0.000 A 
ATOM     12  C   UNL     1     103.489 125.386  81.288  0.00  0.00    +0.000 A 
ATOM     13  C   UNL     1     104.157 124.808  80.206  0.00  0.00    +0.000 A 
ATOM     14  C   UNL     1     104.873 123.625  80.382  0.00  0.00    +0.000 A 
ATOM     15  C   UNL     1     104.924 123.018  81.637  0.00  0.00    +0.000 A 
ATOM     16  C   UNL     1     104.257 123.594  82.721  0.00  0.00    +0.000 A 
ENDBRANCH   9  11
ENDBRANCH   1   9
TORSDOF 3
ENDMDL
