MODEL 1
REMARK VINA RESULT:      -4.8      0.000      0.000
REMARK  Name = *****
REMARK  3 active torsions:
REMARK  status: ('A' for Active; 'I' for Inactive)
REMARK    1  A    between atoms: C_4  and  C_7
REMARK    2  A    between atoms: C_7  and  C_16
REMARK    3  A    between atoms: C_8  and  C_9
REMARK                            x       y       z     vdW  Elec       q    Type
REMARK                         _______ _______ _______ _____ _____    ______ ____
ROOT
ATOM      1  C   UNL     1     100.173 128.173  83.371  0.00  0.00    +0.000 C 
ATOM      2  C   UNL     1     101.516 128.078  83.291  0.00  0.00    +0.000 C 
ENDROOT
BRANCH   2   3
ATOM      3  C   UNL     1     102.261 127.080  82.515  0.00  0.00    +0.000 A 
ATOM      4  C   UNL     1     102.768 127.432  81.257  0.00  0.00    +0.000 A 
ATOM      5  C   UNL     1     103.496 126.505  80.507  0.00  0.00    +0.000 A 
ATOM      6  C   UNL     1     103.721 125.233  81.021  0.00  0.00    +0.000 A 
ATOM      7  C   UNL     1     103.234 124.872  82.272  0.00  0.00    +0.000 A 
ATOM      8  C   UNL     1     102.507 125.796  83.023  0.00  0.00    +0.000 A 
ATOM      9  F   UNL     1     104.422 124.346  80.303  0.00  0.00    +0.000 F 
ENDBRANCH   2   3
BRANCH   1  13
ATOM     10  C   UNL     1      98.476 131.305  85.755  0.00  0.00    +0.000 A 
ATOM     11  C   UNL     1      98.078 129.984  85.951  0.00  0.00    +0.000 A 
ATOM     12  C   UNL     1      98.630 128.963  85.174  0.00  0.00    +0.000 A 
ATOM     13  C   UNL     1      99.585 129.256  84.188  0.00  0.00    +0.000 A 
ATOM     14  C   UNL     1      99.980 130.590  84.004  0.00  0.00    +0.000 A 
ATOM     15  C   UNL     1      99.427 131.609  84.784  0.00  0.00    +0.000 A 
ENDBRANCH   1  13
BRANCH   1  16
ATOM     16  C   UNL     1      99.295 127.294  82.659  0.00  0.00    +0.000 C 
ATOM     17  N   UNL     1      98.577 126.586  82.084  0.00  0.00    +0.000 NA
ENDBRANCH   1  16
TORSDOF 3
ENDMDL
