MODEL 1
REMARK VINA RESULT:      -4.4      0.000      0.000
REMARK  Name = *****
REMARK  4 active torsions:
REMARK  status: ('A' for Active; 'I' for Inactive)
REMARK    1  A    between atoms: C_1  and  N_2
REMARK    2  A    between atoms: N_2  and  C_3
REMARK    3  A    between atoms: N_2  and  C_11
REMARK    4  A    between atoms: C_4  and  C_5
REMARK                            x       y       z     vdW  Elec       q    Type
REMARK                         _______ _______ _______ _____ _____    ______ ____
ROOT
ATOM      1  C   UNL     1     101.358 126.033  84.384  0.00  0.00    +0.000 C 
ATOM      2  N   UNL     1     101.163 126.633  83.058  0.00  0.00    +0.000 N 
ENDROOT
BRANCH   2   3
ATOM      3  C   UNL     1     102.289 127.303  82.498  0.00  0.00    +0.000 A 
ATOM      4  C   UNL     1     102.834 126.978  81.243  0.00  0.00    +0.000 A 
ATOM      5  C   UNL     1     103.937 127.663  80.716  0.00  0.00    +0.000 A 
ATOM      6  C   UNL     1     104.523 128.702  81.429  0.00  0.00    +0.000 A 
ATOM      7  C   UNL     1     104.003 129.058  82.668  0.00  0.00    +0.000 A 
ATOM      8  C   UNL     1     102.902 128.369  83.189  0.00  0.00    +0.000 A 
ENDBRANCH   2   3
BRANCH   2   9
ATOM      9  C   UNL     1      99.888 126.770  82.517  0.00  0.00    +0.000 C 
ATOM     10  C   UNL     1      98.917 127.676  82.712  0.00  0.00    +0.000 C 
BRANCH  10  11
ATOM     11  C   UNL     1      98.897 128.764  83.697  0.00  0.00    +0.000 A 
ATOM     12  C   UNL     1      99.436 130.010  83.356  0.00  0.00    +0.000 A 
ATOM     13  C   UNL     1      99.399 131.071  84.263  0.00  0.00    +0.000 A 
ATOM     14  C   UNL     1      98.811 130.898  85.516  0.00  0.00    +0.000 A 
ATOM     15  C   UNL     1      98.255 129.666  85.858  0.00  0.00    +0.000 A 
ATOM     16  C   UNL     1      98.293 128.606  84.950  0.00  0.00    +0.000 A 
ENDBRANCH  10  11
ENDBRANCH   2   9
TORSDOF 3
ENDMDL
