MODEL 1
REMARK VINA RESULT:      -4.3      0.000      0.000
REMARK  Name = *****
REMARK  4 active torsions:
REMARK  status: ('A' for Active; 'I' for Inactive)
REMARK    1  A    between atoms: C_1  and  N_2
REMARK    2  A    between atoms: N_2  and  C_3
REMARK    3  A    between atoms: C_10  and  C_12
REMARK    4  A    between atoms: C_17  and  S_18
REMARK                            x       y       z     vdW  Elec       q    Type
REMARK                         _______ _______ _______ _____ _____    ______ ____
ROOT
ATOM      1  C   UNL     1      87.820  63.417  85.427  0.00  0.00    +0.000 C 
ATOM      2  N   UNL     1      87.795  64.088  86.724  0.00  0.00    +0.000 N 
ATOM      3  C   UNL     1      87.302  63.345  87.811  0.00  0.00    +0.000 C 
ATOM      4  O   UNL     1      86.685  62.288  87.684  0.00  0.00    +0.000 OA
ENDROOT
BRANCH   2   5
ATOM      5  C   UNL     1      88.205  65.459  86.765  0.00  0.00    +0.000 A 
ATOM      6  C   UNL     1      89.514  65.822  86.409  0.00  0.00    +0.000 A 
ATOM      7  C   UNL     1      89.927  67.158  86.441  0.00  0.00    +0.000 A 
ATOM      8  C   UNL     1      89.028  68.152  86.813  0.00  0.00    +0.000 A 
ATOM      9  C   UNL     1      87.719  67.821  87.141  0.00  0.00    +0.000 A 
ATOM     10  C   UNL     1      87.309  66.482  87.110  0.00  0.00    +0.000 A 
ATOM     11 CL   UNL     1      89.535  69.795  86.854  0.00  0.00    +0.000 Cl
ENDBRANCH   2   5
BRANCH   3  12
ATOM     12  C   UNL     1      87.642  63.748  89.201  0.00  0.00    +0.000 A 
ATOM     13  C   UNL     1      88.958  63.540  89.650  0.00  0.00    +0.000 A 
ATOM     14  C   UNL     1      89.316  63.882  90.953  0.00  0.00    +0.000 A 
ATOM     15  C   UNL     1      88.363  64.416  91.817  0.00  0.00    +0.000 A 
ATOM     16  C   UNL     1      87.048  64.601  91.382  0.00  0.00    +0.000 A 
ATOM     17  C   UNL     1      86.668  64.259  90.076  0.00  0.00    +0.000 A 
BRANCH  17  18
ATOM     18  S   UNL     1      84.968  64.565  89.613  0.00  0.00    +0.000 S 
ATOM     19  H   UNL     1      84.660  65.868  89.852  0.00  0.00    +0.000 HD
ENDBRANCH  17  18
ENDBRANCH   3  12
TORSDOF 3
ENDMDL
