MODEL 1
REMARK VINA RESULT:      -5.0      0.000      0.000
REMARK  Name = *****
REMARK  1 active torsions:
REMARK  status: ('A' for Active; 'I' for Inactive)
REMARK    1  A    between atoms: C_4  and  C_7
REMARK                            x       y       z     vdW  Elec       q    Type
REMARK                         _______ _______ _______ _____ _____    ______ ____
ROOT
ATOM      1  C   UNL     1     102.643 125.874  82.448  0.00  0.00    +0.000 A 
ATOM      2  C   UNL     1     103.380 125.844  81.263  0.00  0.00    +0.000 A 
ATOM      3  C   UNL     1     104.291 124.783  81.026  0.00  0.00    +0.000 A 
ATOM      4  C   UNL     1     105.088 124.643  79.857  0.00  0.00    +0.000 A 
ATOM      5  C   UNL     1     105.963 123.568  79.699  0.00  0.00    +0.000 A 
ATOM      6  C   UNL     1     106.063 122.614  80.700  0.00  0.00    +0.000 A 
ATOM      7  C   UNL     1     105.287 122.744  81.852  0.00  0.00    +0.000 A 
ATOM      8  C   UNL     1     104.408 123.807  82.028  0.00  0.00    +0.000 A 
ATOM      9  N   UNL     1     103.694 123.880  83.158  0.00  0.00    +0.000 NA
ATOM     10  N   UNL     1     102.812 124.908  83.376  0.00  0.00    +0.000 NA
ATOM     11 CL   UNL     1     103.218 127.125  80.094  0.00  0.00    +0.000 Cl
ENDROOT
BRANCH   1  15
ATOM     12  C   UNL     1      99.752 128.867  83.492  0.00  0.00    +0.000 A 
ATOM     13  C   UNL     1     101.095 129.061  83.807  0.00  0.00    +0.000 A 
ATOM     14  C   UNL     1     102.041 128.089  83.469  0.00  0.00    +0.000 A 
ATOM     15  C   UNL     1     101.659 126.902  82.819  0.00  0.00    +0.000 A 
ATOM     16  C   UNL     1     100.301 126.735  82.498  0.00  0.00    +0.000 A 
ATOM     17  C   UNL     1      99.354 127.706  82.834  0.00  0.00    +0.000 A 
ENDBRANCH   1  15
TORSDOF 1
ENDMDL
