MODEL 1
REMARK VINA RESULT:      -4.7      0.000      0.000
REMARK  Name = *****
REMARK  3 active torsions:
REMARK  status: ('A' for Active; 'I' for Inactive)
REMARK    1  A    between atoms: C_3  and  O_8
REMARK    2  A    between atoms: O_8  and  C_9
REMARK    3  A    between atoms: C_9  and  C_11
REMARK                            x       y       z     vdW  Elec       q    Type
REMARK                         _______ _______ _______ _____ _____    ______ ____
ROOT
ATOM      1  C   UNL     1     103.195 126.745  81.648  0.00  0.00    +0.000 C 
ATOM      2  O   UNL     1     103.158 127.469  80.665  0.00  0.00    +0.000 OA
ENDROOT
BRANCH   1   3
ATOM      3  C   UNL     1     103.744 125.360  81.616  0.00  0.00    +0.000 A 
ATOM      4  C   UNL     1     104.197 124.752  80.436  0.00  0.00    +0.000 A 
ATOM      5  C   UNL     1     104.702 123.446  80.467  0.00  0.00    +0.000 A 
ATOM      6  C   UNL     1     104.756 122.749  81.674  0.00  0.00    +0.000 A 
ATOM      7  C   UNL     1     104.309 123.344  82.851  0.00  0.00    +0.000 A 
ATOM      8  C   UNL     1     103.804 124.647  82.823  0.00  0.00    +0.000 A 
ATOM      9 CL   UNL     1     105.378 121.147  81.706  0.00  0.00    +0.000 Cl
ENDBRANCH   1   3
BRANCH   1  10
ATOM     10  O   UNL     1     102.757 127.045  82.924  0.00  0.00    +0.000 OA
BRANCH  10  13
ATOM     11  C   UNL     1      99.117 126.971  82.445  0.00  0.00    +0.000 A 
ATOM     12  C   UNL     1     100.454 126.577  82.450  0.00  0.00    +0.000 A 
ATOM     13  C   UNL     1     101.417 127.437  82.976  0.00  0.00    +0.000 A 
ATOM     14  C   UNL     1     101.077 128.698  83.466  0.00  0.00    +0.000 A 
ATOM     15  C   UNL     1      99.738 129.080  83.456  0.00  0.00    +0.000 A 
ATOM     16  C   UNL     1      98.758 128.224  82.951  0.00  0.00    +0.000 A 
ATOM     17 CL   UNL     1      99.288 130.627  84.063  0.00  0.00    +0.000 Cl
ENDBRANCH  10  13
ENDBRANCH   1  10
TORSDOF 3
ENDMDL
