REMARK  Name = *****
REMARK  2 active torsions:
REMARK  status: ('A' for Active; 'I' for Inactive)
REMARK    1  A    between atoms: C_4  and  O_7
REMARK    2  A    between atoms: O_7  and  P_8
REMARK                            x       y       z     vdW  Elec       q    Type
REMARK                         _______ _______ _______ _____ _____    ______ ____
ROOT
ATOM      1  P   UNL     1      -2.294   0.072  -1.523  0.00  0.00    +0.000 P 
ATOM      2  O   UNL     1      -1.343   1.178  -1.888  0.00  0.00    +0.000 OA
ATOM      3  N   UNL     1      -2.072  -1.412  -2.220  0.00  0.00    +0.000 N 
ATOM      4  C   UNL     1      -3.273  -1.992  -2.674  0.00  0.00    +0.000 A 
ATOM      5  C   UNL     1      -3.330  -3.297  -3.155  0.00  0.00    +0.000 A 
ATOM      6  C   UNL     1      -4.535  -3.794  -3.660  0.00  0.00    +0.000 A 
ATOM      7  C   UNL     1      -5.673  -2.983  -3.706  0.00  0.00    +0.000 A 
ATOM      8  C   UNL     1      -5.616  -1.663  -3.257  0.00  0.00    +0.000 A 
ATOM      9  C   UNL     1      -4.416  -1.168  -2.752  0.00  0.00    +0.000 A 
ATOM     10  S   UNL     1      -4.250   0.514  -2.166  0.00  0.00    +0.000 S 
ATOM     11  H   UNL     1      -1.192  -1.846  -2.308  0.00  0.00    +0.000 HD
ENDROOT
BRANCH   1  12
ATOM     12  O   UNL     1      -2.313  -0.229   0.068  0.00  0.00    +0.000 OA
BRANCH  12  16
ATOM     13  C   UNL     1      -3.363   2.344   3.159  0.00  0.00    +0.000 A 
ATOM     14  C   UNL     1      -3.298   0.965   3.352  0.00  0.00    +0.000 A 
ATOM     15  C   UNL     1      -2.939   0.132   2.292  0.00  0.00    +0.000 A 
ATOM     16  C   UNL     1      -2.650   0.672   1.037  0.00  0.00    +0.000 A 
ATOM     17  C   UNL     1      -2.705   2.050   0.847  0.00  0.00    +0.000 A 
ATOM     18  C   UNL     1      -3.064   2.885   1.909  0.00  0.00    +0.000 A 
ENDBRANCH  12  16
ENDBRANCH   1  12
TORSDOF 2
