MODEL 1
REMARK VINA RESULT:      -4.4      0.000      0.000
REMARK  Name = *****
REMARK  4 active torsions:
REMARK  status: ('A' for Active; 'I' for Inactive)
REMARK    1  A    between atoms: C_1  and  O_2
REMARK    2  A    between atoms: O_2  and  C_3
REMARK    3  A    between atoms: C_9  and  C_10
REMARK    4  A    between atoms: C_10  and  C_11
REMARK                            x       y       z     vdW  Elec       q    Type
REMARK                         _______ _______ _______ _____ _____    ______ ____
ROOT
ATOM      1  C   UNL     1      87.996  64.546  87.359  0.00  0.00    +0.000 C 
ATOM      2  C   UNL     1      87.343  65.323  88.265  0.00  0.00    +0.000 C 
ATOM      3  C   UNL     1      87.408  66.656  87.993  0.00  0.00    +0.000 C 
ATOM      4  C   UNL     1      88.067  67.044  86.822  0.00  0.00    +0.000 C 
ATOM      5  C   UNL     1      89.325  66.563  86.492  0.00  0.00    +0.000 C 
ATOM      6  C   UNL     1      88.957  65.228  86.500  0.00  0.00    +0.000 C 
ATOM      7  C   UNL     1      89.672  67.957  86.530  0.00  0.00    +0.000 C 
ENDROOT
BRANCH   1   9
ATOM      8  C   UNL     1      86.983  62.557  88.222  0.00  0.00    +0.000 C 
ATOM      9  O   UNL     1      87.781  63.201  87.208  0.00  0.00    +0.000 OA
ENDBRANCH   1   9
BRANCH   7  10
ATOM     10  C   UNL     1      89.765  69.141  86.299  0.00  0.00    +0.000 C 
BRANCH  10  11
ATOM     11  C   UNL     1      89.418  70.533  86.607  0.00  0.00    +0.000 C 
ATOM     12  C   UNL     1      88.312  70.751  85.563  0.00  0.00    +0.000 C 
ATOM     13  C   UNL     1      86.965  71.243  86.034  0.00  0.00    +0.000 C 
ATOM     14  C   UNL     1      86.607  71.076  87.509  0.00  0.00    +0.000 C 
ATOM     15  C   UNL     1      87.708  70.694  88.436  0.00  0.00    +0.000 C 
ATOM     16  C   UNL     1      88.971  70.498  88.048  0.00  0.00    +0.000 C 
ENDBRANCH  10  11
ENDBRANCH   7  10
TORSDOF 3
ENDMDL
