MODEL 1
REMARK VINA RESULT:      -4.6      0.000      0.000
REMARK  Name = *****
REMARK  4 active torsions:
REMARK  status: ('A' for Active; 'I' for Inactive)
REMARK    1  A    between atoms: C_1  and  C_2
REMARK    2  A    between atoms: C_5  and  C_8
REMARK    3  A    between atoms: C_9  and  C_10
REMARK    4  A    between atoms: C_13  and  C_16
REMARK                            x       y       z     vdW  Elec       q    Type
REMARK                         _______ _______ _______ _____ _____    ______ ____
ROOT
ATOM      1  C   UNL     1      87.806  66.245  87.863  0.00  0.00    +0.000 C 
ATOM      2  C   UNL     1      87.382  65.232  88.351  0.00  0.00    +0.000 C 
ENDROOT
BRANCH   1   7
ATOM      3  C   UNL     1      89.816  71.015  85.390  0.00  0.00    +0.000 C 
ATOM      4  C   UNL     1      89.315  69.767  86.054  0.00  0.00    +0.000 A 
ATOM      5  C   UNL     1      89.909  68.526  85.794  0.00  0.00    +0.000 A 
ATOM      6  C   UNL     1      89.417  67.365  86.398  0.00  0.00    +0.000 A 
ATOM      7  C   UNL     1      88.323  67.436  87.263  0.00  0.00    +0.000 A 
ATOM      8  C   UNL     1      87.725  68.669  87.526  0.00  0.00    +0.000 A 
ATOM      9  C   UNL     1      88.217  69.829  86.922  0.00  0.00    +0.000 A 
ENDBRANCH   1   7
BRANCH   2  10
ATOM     10  C   UNL     1      86.894  64.011  88.914  0.00  0.00    +0.000 A 
ATOM     11  C   UNL     1      86.862  62.848  88.141  0.00  0.00    +0.000 A 
ATOM     12  C   UNL     1      86.366  61.660  88.684  0.00  0.00    +0.000 A 
ATOM     13  C   UNL     1      85.898  61.631  90.004  0.00  0.00    +0.000 A 
ATOM     14  C   UNL     1      85.936  62.797  90.777  0.00  0.00    +0.000 A 
ATOM     15  C   UNL     1      86.433  63.985  90.232  0.00  0.00    +0.000 A 
BRANCH  13  16
ATOM     16  C   UNL     1      85.381  60.413  90.559  0.00  0.00    +0.000 C 
ATOM     17  C   UNL     1      84.947  59.400  91.021  0.00  0.00    +0.000 C 
ENDBRANCH  13  16
ENDBRANCH   2  10
TORSDOF 3
ENDMDL
