REMARK  Name = *****
REMARK  3 active torsions:
REMARK  status: ('A' for Active; 'I' for Inactive)
REMARK    1  A    between atoms: C_2  and  O_8
REMARK    2  A    between atoms: O_8  and  C_9
REMARK    3  A    between atoms: C_9  and  C_11
REMARK                            x       y       z     vdW  Elec       q    Type
REMARK                         _______ _______ _______ _____ _____    ______ ____
ROOT
ATOM      1  O   UNL     1       2.253  -0.824  -1.486  0.00  0.00    +0.000 OA
ENDROOT
BRANCH   1   3
ATOM      2  C   UNL     1       0.549  -1.053   0.255  0.00  0.00    +0.000 C 
ATOM      3  C   UNL     1       1.680  -0.185  -0.316  0.00  0.00    +0.000 C 
ATOM      4  C   UNL     1       1.262   1.224  -0.749  0.00  0.00    +0.000 C 
ATOM      5  S   UNL     1       0.297   2.101   0.506  0.00  0.00    +0.000 S 
ATOM      6  C   UNL     1      -1.316   1.556   0.227  0.00  0.00    +0.000 C 
ATOM      7  C   UNL     1      -1.781   0.389  -0.241  0.00  0.00    +0.000 C 
ATOM      8  S   UNL     1      -0.952  -1.028  -0.771  0.00  0.00    +0.000 S 
ENDBRANCH   1   3
BRANCH   1   9
ATOM      9  C   UNL     1       3.163  -1.800  -1.251  0.00  0.00    +0.000 C 
ATOM     10  O   UNL     1       3.554  -2.161  -0.152  0.00  0.00    +0.000 OA
BRANCH   9  11
ATOM     11  C   UNL     1       3.651  -2.375  -2.532  0.00  0.00    +0.000 A 
ATOM     12  C   UNL     1       3.026  -2.110  -3.758  0.00  0.00    +0.000 A 
ATOM     13  C   UNL     1       3.520  -2.679  -4.934  0.00  0.00    +0.000 A 
ATOM     14  C   UNL     1       4.637  -3.514  -4.891  0.00  0.00    +0.000 A 
ATOM     15  C   UNL     1       5.261  -3.785  -3.674  0.00  0.00    +0.000 A 
ATOM     16  C   UNL     1       4.769  -3.220  -2.496  0.00  0.00    +0.000 A 
ENDBRANCH   9  11
ENDBRANCH   1   9
TORSDOF 3
