MODEL 1
REMARK VINA RESULT:      -4.8      0.000      0.000
REMARK  Name = *****
REMARK  5 active torsions:
REMARK  status: ('A' for Active; 'I' for Inactive)
REMARK    1  A    between atoms: C_1  and  C_2
REMARK    2  A    between atoms: C_3  and  N_9
REMARK    3  A    between atoms: C_4  and  C_8
REMARK    4  A    between atoms: N_11  and  C_12
REMARK    5  A    between atoms: N_11  and  C_13
REMARK                            x       y       z     vdW  Elec       q    Type
REMARK                         _______ _______ _______ _____ _____    ______ ____
ROOT
ATOM      1  N   UNL     1     104.286 124.987  82.895  0.00  0.00    +0.000 NA
ATOM      2  C   UNL     1     103.076 125.446  82.894  0.00  0.00    +0.000 C 
ATOM      3  N   UNL     1     102.681 126.692  83.329  0.00  0.00    +0.000 N 
ATOM      4  C   UNL     1     103.662 127.551  83.984  0.00  0.00    +0.000 C 
ENDROOT
BRANCH   1   7
ATOM      5  C   UNL     1     104.593 124.599  80.051  0.00  0.00    +0.000 C 
ATOM      6  C   UNL     1     104.594 123.450  81.022  0.00  0.00    +0.000 A 
ATOM      7  C   UNL     1     104.440 123.676  82.404  0.00  0.00    +0.000 A 
ATOM      8  C   UNL     1     104.472 122.587  83.299  0.00  0.00    +0.000 A 
ATOM      9  C   UNL     1     104.609 121.284  82.800  0.00  0.00    +0.000 A 
ATOM     10  C   UNL     1     104.735 121.061  81.430  0.00  0.00    +0.000 A 
ATOM     11  C   UNL     1     104.730 122.138  80.545  0.00  0.00    +0.000 A 
ATOM     12  C   UNL     1     104.341 122.806  84.781  0.00  0.00    +0.000 C 
ENDBRANCH   1   7
BRANCH   3  13
ATOM     13  C   UNL     1     101.269 127.053  83.520  0.00  0.00    +0.000 C 
ATOM     14  C   UNL     1     100.396 126.506  82.382  0.00  0.00    +0.000 C 
ATOM     15  C   UNL     1      98.931 126.899  82.567  0.00  0.00    +0.000 C 
ATOM     16  C   UNL     1      98.769 128.409  82.730  0.00  0.00    +0.000 C 
ATOM     17  C   UNL     1      99.635 128.952  83.863  0.00  0.00    +0.000 C 
ATOM     18  C   UNL     1     101.104 128.571  83.682  0.00  0.00    +0.000 C 
ENDBRANCH   3  13
TORSDOF 2
ENDMDL
