REMARK  Name = *****
REMARK  3 active torsions:
REMARK  status: ('A' for Active; 'I' for Inactive)
REMARK    1  A    between atoms: C_2  and  C_3
REMARK    2  A    between atoms: C_2  and  O_9
REMARK    3  A    between atoms: O_9  and  N_10
REMARK                            x       y       z     vdW  Elec       q    Type
REMARK                         _______ _______ _______ _____ _____    ______ ____
ROOT
ATOM      1  O   UNL     1       3.197  -0.033  -1.605  0.00  0.00    +0.000 OA
ENDROOT
BRANCH   1   2
ATOM      2  N   UNL     1       2.600  -0.872  -2.544  0.00  0.00    +0.000 N 
ATOM      3  C   UNL     1       2.582  -2.239  -2.522  0.00  0.00    +0.000 A 
ATOM      4  C   UNL     1       2.997  -3.204  -1.599  0.00  0.00    +0.000 A 
ATOM      5  C   UNL     1       2.782  -4.540  -1.955  0.00  0.00    +0.000 A 
ATOM      6  C   UNL     1       2.185  -4.881  -3.173  0.00  0.00    +0.000 A 
ATOM      7  C   UNL     1       1.783  -3.892  -4.081  0.00  0.00    +0.000 A 
ATOM      8  C   UNL     1       1.993  -2.549  -3.742  0.00  0.00    +0.000 A 
ATOM      9  N   UNL     1       1.716  -1.396  -4.432  0.00  0.00    +0.000 NA
ATOM     10  N   UNL     1       2.128  -0.368  -3.698  0.00  0.00    +0.000 NA
ENDBRANCH   1   2
BRANCH   1  12
ATOM     11  C   UNL     1       0.996   0.266  -0.586  0.00  0.00    +0.000 C 
ATOM     12  C   UNL     1       2.340   0.329  -0.574  0.00  0.00    +0.000 C 
BRANCH  12  13
ATOM     13  C   UNL     1       3.063   0.847   0.585  0.00  0.00    +0.000 C 
ATOM     14  C   UNL     1       2.769   2.037   1.143  0.00  0.00    +0.000 C 
ATOM     15  C   UNL     1       3.509   2.616   2.315  0.00  0.00    +0.000 C 
ATOM     16  C   UNL     1       4.815   1.888   2.629  0.00  0.00    +0.000 C 
ATOM     17  C   UNL     1       4.640   0.377   2.523  0.00  0.00    +0.000 C 
ATOM     18  C   UNL     1       4.177  -0.025   1.120  0.00  0.00    +0.000 C 
ENDBRANCH  12  13
ENDBRANCH   1  12
TORSDOF 3
