MODEL 1
REMARK VINA RESULT:      -4.7      0.000      0.000
REMARK  Name = *****
REMARK  3 active torsions:
REMARK  status: ('A' for Active; 'I' for Inactive)
REMARK    1  A    between atoms: C_1  and  C_2
REMARK    2  A    between atoms: C_5  and  C_7
REMARK    3  A    between atoms: N_8  and  C_9
REMARK                            x       y       z     vdW  Elec       q    Type
REMARK                         _______ _______ _______ _____ _____    ______ ____
ROOT
ATOM      1  C   UNL     1     103.625 125.352  81.712  0.00  0.00    +0.000 A 
ATOM      2  C   UNL     1     103.956 124.198  82.437  0.00  0.00    +0.000 A 
ATOM      3  C   UNL     1     104.792 123.226  81.896  0.00  0.00    +0.000 A 
ATOM      4  C   UNL     1     105.307 123.383  80.618  0.00  0.00    +0.000 A 
ATOM      5  C   UNL     1     104.985 124.511  79.879  0.00  0.00    +0.000 A 
ATOM      6  C   UNL     1     104.149 125.483  80.416  0.00  0.00    +0.000 A 
ATOM      7  F   UNL     1     103.852 126.567  79.683  0.00  0.00    +0.000 F 
ATOM      8  F   UNL     1     105.485 124.667  78.643  0.00  0.00    +0.000 F 
ATOM      9  F   UNL     1     106.116 122.448  80.100  0.00  0.00    +0.000 F 
ATOM     10  F   UNL     1     105.103 122.137  82.613  0.00  0.00    +0.000 F 
ATOM     11  F   UNL     1     103.471 124.024  83.676  0.00  0.00    +0.000 F 
ENDROOT
BRANCH   1  13
ATOM     12  C   UNL     1     101.466 126.128  82.059  0.00  0.00    +0.000 C 
ATOM     13  N   UNL     1     102.735 126.293  82.270  0.00  0.00    +0.000 NA
BRANCH  12  18
ATOM     14  C   UNL     1      99.241 130.193  84.584  0.00  0.00    +0.000 C 
ATOM     15  C   UNL     1      99.466 128.954  83.788  0.00  0.00    +0.000 A 
ATOM     16  C   UNL     1      98.529 128.136  83.189  0.00  0.00    +0.000 A 
ATOM     17  C   UNL     1      99.130 127.039  82.507  0.00  0.00    +0.000 A 
ATOM     18  C   UNL     1     100.506 127.054  82.606  0.00  0.00    +0.000 A 
ATOM     19  S   UNL     1     101.058 128.387  83.519  0.00  0.00    +0.000 S 
ENDBRANCH  12  18
ENDBRANCH   1  13
TORSDOF 2
ENDMDL
