MODEL 1
REMARK VINA RESULT:      -5.1      0.000      0.000
REMARK  Name = *****
REMARK  1 active torsions:
REMARK  status: ('A' for Active; 'I' for Inactive)
REMARK    1  A    between atoms: C_9  and  C_12
REMARK                            x       y       z     vdW  Elec       q    Type
REMARK                         _______ _______ _______ _____ _____    ______ ____
ROOT
ATOM      1  C   UNL     1     102.820 128.318  83.592  0.00  0.00    +0.000 C 
ATOM      2  C   UNL     1     101.349 128.158  83.310  0.00  0.00    +0.000 A 
ATOM      3  C   UNL     1     100.432 129.155  83.673  0.00  0.00    +0.000 A 
ATOM      4  C   UNL     1      99.074 129.001  83.390  0.00  0.00    +0.000 A 
ATOM      5  C   UNL     1      98.624 127.856  82.740  0.00  0.00    +0.000 A 
ATOM      6  C   UNL     1      99.531 126.859  82.374  0.00  0.00    +0.000 A 
ATOM      7  C   UNL     1     100.894 126.995  82.667  0.00  0.00    +0.000 A 
ATOM      8  C   UNL     1     101.834 125.956  82.230  0.00  0.00    +0.000 C 
ATOM      9  C   UNL     1     102.975 125.614  82.864  0.00  0.00    +0.000 C 
ATOM     10  N   UNL     1     103.416 126.078  84.084  0.00  0.00    +0.000 NA
ATOM     11  N   UNL     1     103.342 127.265  84.474  0.00  0.00    +0.000 NA
ENDROOT
BRANCH   9  12
ATOM     12  C   UNL     1     103.782 124.525  82.259  0.00  0.00    +0.000 A 
ATOM     13  C   UNL     1     104.252 123.453  83.035  0.00  0.00    +0.000 A 
ATOM     14  C   UNL     1     105.005 122.431  82.452  0.00  0.00    +0.000 A 
ATOM     15  C   UNL     1     105.291 122.466  81.088  0.00  0.00    +0.000 A 
ATOM     16  C   UNL     1     104.823 123.519  80.305  0.00  0.00    +0.000 A 
ATOM     17  C   UNL     1     104.069 124.541  80.887  0.00  0.00    +0.000 A 
ENDBRANCH   9  12
TORSDOF 1
ENDMDL
