MODEL 1
REMARK VINA RESULT:      -5.5      0.000      0.000
REMARK  Name = *****
REMARK  2 active torsions:
REMARK  status: ('A' for Active; 'I' for Inactive)
REMARK    1  A    between atoms: C_1  and  C_2
REMARK    2  A    between atoms: C_7  and  C_8
REMARK                            x       y       z     vdW  Elec       q    Type
REMARK                         _______ _______ _______ _____ _____    ______ ____
ROOT
ATOM      1  C   UNL     1     102.849 127.463  82.869  0.00  0.00    +0.000 C 
ATOM      2  C   UNL     1     101.571 127.667  83.250  0.00  0.00    +0.000 C 
ATOM      3  C   UNL     1     100.485 126.622  83.110  0.00  0.00    +0.000 C 
ATOM      4  C   UNL     1      99.285 127.211  82.379  0.00  0.00    +0.000 C 
ATOM      5  C   UNL     1      98.693 128.364  83.180  0.00  0.00    +0.000 C 
ATOM      6  C   UNL     1      99.734 129.327  83.700  0.00  0.00    +0.000 A 
ATOM      7  C   UNL     1      99.291 130.570  84.189  0.00  0.00    +0.000 A 
ATOM      8  C   UNL     1     100.190 131.482  84.736  0.00  0.00    +0.000 A 
ATOM      9  C   UNL     1     101.538 131.155  84.815  0.00  0.00    +0.000 A 
ATOM     10  C   UNL     1     101.988 129.920  84.339  0.00  0.00    +0.000 A 
ATOM     11  C   UNL     1     101.104 128.991  83.761  0.00  0.00    +0.000 A 
ENDROOT
BRANCH   1  18
ATOM     12  C   UNL     1     103.469 127.161  79.984  0.00  0.00    +0.000 C 
ATOM     13  C   UNL     1     103.683 126.046  80.970  0.00  0.00    +0.000 A 
ATOM     14  C   UNL     1     104.183 124.813  80.521  0.00  0.00    +0.000 A 
ATOM     15  C   UNL     1     104.382 123.756  81.410  0.00  0.00    +0.000 A 
ATOM     16  C   UNL     1     104.082 123.915  82.760  0.00  0.00    +0.000 A 
ATOM     17  C   UNL     1     103.583 125.133  83.221  0.00  0.00    +0.000 A 
ATOM     18  C   UNL     1     103.379 126.201  82.336  0.00  0.00    +0.000 A 
ENDBRANCH   1  18
TORSDOF 1
ENDMDL
