MODEL 1
REMARK VINA RESULT:      -4.7      0.000      0.000
REMARK  Name = *****
REMARK  5 active torsions:
REMARK  status: ('A' for Active; 'I' for Inactive)
REMARK    1  A    between atoms: C_1  and  C_2
REMARK    2  A    between atoms: C_7  and  C_8
REMARK    3  A    between atoms: C_8  and  O_9
REMARK    4  A    between atoms: O_9  and  C_10
REMARK    5  A    between atoms: C_14  and  C_16
REMARK                            x       y       z     vdW  Elec       q    Type
REMARK                         _______ _______ _______ _____ _____    ______ ____
ROOT
ATOM      1  O   UNL     1      87.207  69.100  87.780  0.00  0.00    +0.000 OA
ENDROOT
BRANCH   1   2
ATOM      2  C   UNL     1      88.130  68.226  87.276  0.00  0.00    +0.000 A 
ATOM      3  C   UNL     1      89.256  68.562  86.526  0.00  0.00    +0.000 A 
ATOM      4  C   UNL     1      90.120  67.561  86.074  0.00  0.00    +0.000 A 
ATOM      5  C   UNL     1      89.865  66.220  86.368  0.00  0.00    +0.000 A 
ATOM      6  C   UNL     1      88.737  65.870  87.121  0.00  0.00    +0.000 A 
ATOM      7  C   UNL     1      87.876  66.883  87.569  0.00  0.00    +0.000 A 
BRANCH   6   8
ATOM      8  C   UNL     1      88.420  64.444  87.464  0.00  0.00    +0.000 C 
ATOM      9  O   UNL     1      88.008  63.721  86.559  0.00  0.00    +0.000 OA
ATOM     10 CL   UNL     1      88.640  63.872  89.107  0.00  0.00    +0.000 Cl
ENDBRANCH   6   8
ENDBRANCH   1   2
BRANCH   1  11
ATOM     11  C   UNL     1      87.538  70.487  87.758  0.00  0.00    +0.000 C 
BRANCH  11  18
ATOM     12  C   UNL     1      86.904  71.135  84.892  0.00  0.00    +0.000 C 
ATOM     13  C   UNL     1      86.003  71.565  86.017  0.00  0.00    +0.000 A 
ATOM     14  C   UNL     1      84.838  72.292  85.717  0.00  0.00    +0.000 A 
ATOM     15  C   UNL     1      83.970  72.700  86.729  0.00  0.00    +0.000 A 
ATOM     16  C   UNL     1      84.252  72.388  88.054  0.00  0.00    +0.000 A 
ATOM     17  C   UNL     1      85.406  71.673  88.369  0.00  0.00    +0.000 A 
ATOM     18  C   UNL     1      86.301  71.265  87.364  0.00  0.00    +0.000 A 
ENDBRANCH  11  18
ENDBRANCH   1  11
TORSDOF 4
ENDMDL
