MODEL 1
REMARK VINA RESULT:      -4.8      0.000      0.000
REMARK  Name = *****
REMARK  6 active torsions:
REMARK  status: ('A' for Active; 'I' for Inactive)
REMARK    1  A    between atoms: C_1  and  C_2
REMARK    2  A    between atoms: C_4  and  C_8
REMARK    3  A    between atoms: C_8  and  C_9
REMARK    4  A    between atoms: C_9  and  C_10
REMARK    5  A    between atoms: C_9  and  C_12
REMARK    6  A    between atoms: C_17  and  C_18
REMARK                            x       y       z     vdW  Elec       q    Type
REMARK                         _______ _______ _______ _____ _____    ______ ____
ROOT
ATOM      1  C   UNL     1     104.779 124.535  80.689  0.00  0.00    +0.000 C 
ENDROOT
BRANCH   1   2
ATOM      2  C   UNL     1     104.657 123.189  81.419  0.00  0.00    +0.000 A 
ATOM      3  C   UNL     1     104.603 121.974  80.706  0.00  0.00    +0.000 A 
ATOM      4  C   UNL     1     104.496 120.742  81.357  0.00  0.00    +0.000 A 
ATOM      5  C   UNL     1     104.429 120.691  82.741  0.00  0.00    +0.000 A 
ATOM      6  C   UNL     1     104.453 121.874  83.473  0.00  0.00    +0.000 A 
ATOM      7  C   UNL     1     104.545 123.126  82.835  0.00  0.00    +0.000 A 
ATOM      8  C   UNL     1     104.559 124.346  83.720  0.00  0.00    +0.000 C 
ENDBRANCH   1   2
BRANCH   1   9
ATOM      9  C   UNL     1     105.612 124.471  79.467  0.00  0.00    +0.000 C 
ATOM     10  N   UNL     1     106.287 124.436  78.522  0.00  0.00    +0.000 NA
ENDBRANCH   1   9
BRANCH   1  11
ATOM     11  C   UNL     1     103.481 125.339  80.401  0.00  0.00    +0.000 C 
BRANCH  11  15
ATOM     12  C   UNL     1      99.863 126.808  83.693  0.00  0.00    +0.000 C 
ATOM     13  C   UNL     1     101.165 127.049  82.987  0.00  0.00    +0.000 A 
ATOM     14  C   UNL     1     101.654 126.110  82.064  0.00  0.00    +0.000 A 
ATOM     15  C   UNL     1     102.883 126.299  81.416  0.00  0.00    +0.000 A 
ATOM     16  C   UNL     1     103.622 127.454  81.723  0.00  0.00    +0.000 A 
ATOM     17  C   UNL     1     103.152 128.385  82.651  0.00  0.00    +0.000 A 
ATOM     18  C   UNL     1     101.931 128.181  83.284  0.00  0.00    +0.000 A 
ENDBRANCH  11  15
ENDBRANCH   1  11
TORSDOF 4
ENDMDL
