MODEL 1
REMARK VINA RESULT:      -4.1      0.000      0.000
REMARK  Name = *****
REMARK  4 active torsions:
REMARK  status: ('A' for Active; 'I' for Inactive)
REMARK    1  A    between atoms: C_1  and  C_2
REMARK    2  A    between atoms: C_5  and  O_8
REMARK    3  A    between atoms: O_8  and  C_9
REMARK    4  A    between atoms: C_9  and  C_10
REMARK                            x       y       z     vdW  Elec       q    Type
REMARK                         _______ _______ _______ _____ _____    ______ ____
ROOT
ATOM      1  O   UNL     1     103.402 126.699  83.201  0.00  0.00    +0.000 OA
ENDROOT
BRANCH   1   6
ATOM      2  C   UNL     1     105.397 125.036  79.278  0.00  0.00    +0.000 C 
ATOM      3  C   UNL     1     104.471 125.522  80.349  0.00  0.00    +0.000 C 
ATOM      4  C   UNL     1     103.758 126.831  80.104  0.00  0.00    +0.000 C 
ATOM      5  C   UNL     1     104.311 127.764  81.192  0.00  0.00    +0.000 C 
ATOM      6  C   UNL     1     104.572 126.853  82.404  0.00  0.00    +0.000 C 
ATOM      7  C   UNL     1     104.925 125.522  81.786  0.00  0.00    +0.000 C 
ATOM      8  C   UNL     1     103.883 124.533  81.325  0.00  0.00    +0.000 C 
ENDBRANCH   1   6
BRANCH   1   9
ATOM      9  C   UNL     1     102.802 127.945  83.549  0.00  0.00    +0.000 C 
BRANCH   9  10
ATOM     10  C   UNL     1     101.320 127.949  83.255  0.00  0.00    +0.000 A 
ATOM     11  C   UNL     1     100.747 126.837  82.616  0.00  0.00    +0.000 A 
ATOM     12  C   UNL     1      99.377 126.797  82.346  0.00  0.00    +0.000 A 
ATOM     13  C   UNL     1      98.562 127.865  82.715  0.00  0.00    +0.000 A 
ATOM     14  C   UNL     1      99.116 128.971  83.355  0.00  0.00    +0.000 A 
ATOM     15  C   UNL     1     100.484 129.011  83.627  0.00  0.00    +0.000 A 
ENDBRANCH   9  10
ENDBRANCH   1   9
TORSDOF 3
ENDMDL
