MODEL 1
REMARK VINA RESULT:      -5.6      0.000      0.000
REMARK  Name = *****
REMARK  2 active torsions:
REMARK  status: ('A' for Active; 'I' for Inactive)
REMARK    1  A    between atoms: C_10  and  C_11
REMARK    2  A    between atoms: C_12  and  C_13
REMARK                            x       y       z     vdW  Elec       q    Type
REMARK                         _______ _______ _______ _____ _____    ______ ____
ROOT
ATOM      1  C   UNL     1      89.404  71.205  85.359  0.00  0.00    +0.000 C 
ATOM      2  C   UNL     1      87.988  71.256  84.853  0.00  0.00    +0.000 C 
ATOM      3  C   UNL     1      86.934  71.176  85.679  0.00  0.00    +0.000 C 
ATOM      4  C   UNL     1      87.131  71.058  87.128  0.00  0.00    +0.000 A 
ATOM      5  C   UNL     1      86.051  71.248  87.998  0.00  0.00    +0.000 A 
ATOM      6  C   UNL     1      86.230  71.137  89.379  0.00  0.00    +0.000 A 
ATOM      7  C   UNL     1      87.485  70.829  89.899  0.00  0.00    +0.000 A 
ATOM      8  C   UNL     1      88.566  70.629  89.040  0.00  0.00    +0.000 A 
ATOM      9  C   UNL     1      88.400  70.744  87.650  0.00  0.00    +0.000 A 
ATOM     10  C   UNL     1      89.563  70.475  86.712  0.00  0.00    +0.000 C 
ENDROOT
BRANCH  10  11
ATOM     11  C   UNL     1      89.736  69.020  86.502  0.00  0.00    +0.000 C 
ATOM     12  C   UNL     1      89.880  67.840  86.329  0.00  0.00    +0.000 C 
BRANCH  12  13
ATOM     13  C   UNL     1      90.057  66.436  86.120  0.00  0.00    +0.000 A 
ATOM     14  C   UNL     1      89.116  65.532  86.619  0.00  0.00    +0.000 A 
ATOM     15  C   UNL     1      89.289  64.161  86.419  0.00  0.00    +0.000 A 
ATOM     16  C   UNL     1      90.402  63.694  85.718  0.00  0.00    +0.000 A 
ATOM     17  C   UNL     1      91.342  64.596  85.219  0.00  0.00    +0.000 A 
ATOM     18  C   UNL     1      91.170  65.967  85.420  0.00  0.00    +0.000 A 
ENDBRANCH  12  13
ENDBRANCH  10  11
TORSDOF 2
ENDMDL
