MODEL 1
REMARK VINA RESULT:      -4.8      0.000      0.000
REMARK  Name = *****
REMARK  2 active torsions:
REMARK  status: ('A' for Active; 'I' for Inactive)
REMARK    1  A    between atoms: C_8  and  C_17
REMARK    2  A    between atoms: C_9  and  C_11
REMARK                            x       y       z     vdW  Elec       q    Type
REMARK                         _______ _______ _______ _____ _____    ______ ____
ROOT
ATOM      1  C   UNL     1     103.255 129.634  84.537  0.00  0.00    +0.000 C 
ATOM      2  C   UNL     1     101.805 130.016  84.418  0.00  0.00    +0.000 A 
ATOM      3  C   UNL     1     101.365 131.214  85.009  0.00  0.00    +0.000 A 
ATOM      4  C   UNL     1     100.026 131.588  84.944  0.00  0.00    +0.000 A 
ATOM      5  C   UNL     1      99.115 130.769  84.292  0.00  0.00    +0.000 A 
ATOM      6  C   UNL     1      99.539 129.571  83.711  0.00  0.00    +0.000 A 
ATOM      7  C   UNL     1     100.883 129.162  83.772  0.00  0.00    +0.000 A 
ATOM      8  C   UNL     1     101.330 127.874  83.163  0.00  0.00    +0.000 C 
ATOM      9  C   UNL     1     102.621 127.660  82.810  0.00  0.00    +0.000 C 
ATOM     10  S   UNL     1     103.873 128.858  83.023  0.00  0.00    +0.000 S 
ENDROOT
BRANCH   9  11
ATOM     11  C   UNL     1     103.136 126.398  82.238  0.00  0.00    +0.000 A 
ATOM     12  C   UNL     1     103.477 125.323  83.070  0.00  0.00    +0.000 A 
ATOM     13  C   UNL     1     103.995 124.147  82.525  0.00  0.00    +0.000 A 
ATOM     14  C   UNL     1     104.181 124.038  81.148  0.00  0.00    +0.000 A 
ATOM     15  C   UNL     1     103.842 125.099  80.311  0.00  0.00    +0.000 A 
ATOM     16  C   UNL     1     103.318 126.274  80.852  0.00  0.00    +0.000 A 
ENDBRANCH   9  11
BRANCH   8  17
ATOM     17  C   UNL     1     100.355 126.760  82.912  0.00  0.00    +0.000 C 
ATOM     18  O   UNL     1      99.536 126.762  81.999  0.00  0.00    +0.000 OA
ENDBRANCH   8  17
TORSDOF 2
ENDMDL
