MODEL 1
REMARK VINA RESULT:      -4.0      0.000      0.000
REMARK  Name = *****
REMARK  5 active torsions:
REMARK  status: ('A' for Active; 'I' for Inactive)
REMARK    1  A    between atoms: C_1  and  O_2
REMARK    2  A    between atoms: O_2  and  C_3
REMARK    3  A    between atoms: C_6  and  C_9
REMARK    4  A    between atoms: C_9  and  S_10
REMARK    5  A    between atoms: S_10  and  C_11
REMARK                            x       y       z     vdW  Elec       q    Type
REMARK                         _______ _______ _______ _____ _____    ______ ____
ROOT
ATOM      1  C   UNL     1      88.788  68.624  86.715  0.00  0.00    +0.000 A 
ATOM      2  C   UNL     1      89.896  67.962  86.185  0.00  0.00    +0.000 A 
ATOM      3  C   UNL     1      89.998  66.570  86.283  0.00  0.00    +0.000 A 
ATOM      4  C   UNL     1      88.992  65.818  86.907  0.00  0.00    +0.000 A 
ATOM      5  C   UNL     1      87.888  66.490  87.446  0.00  0.00    +0.000 A 
ATOM      6  C   UNL     1      87.789  67.880  87.344  0.00  0.00    +0.000 A 
ENDROOT
BRANCH   1   8
ATOM      7  C   UNL     1      89.654  70.794  86.281  0.00  0.00    +0.000 C 
ATOM      8  O   UNL     1      88.566  69.972  86.686  0.00  0.00    +0.000 OA
ENDBRANCH   1   8
BRANCH   4   9
ATOM      9  C   UNL     1      89.109  64.318  87.020  0.00  0.00    +0.000 C 
BRANCH   9  10
ATOM     10  S   UNL     1      87.475  63.524  87.053  0.00  0.00    +0.000 S 
BRANCH  10  11
ATOM     11  C   UNL     1      87.417  63.023  88.813  0.00  0.00    +0.000 C 
ATOM     12  C   UNL     1      86.213  63.661  89.527  0.00  0.00    +0.000 C 
ATOM     13  C   UNL     1      86.366  63.585  91.047  0.00  0.00    +0.000 C 
ATOM     14  C   UNL     1      87.637  64.296  91.514  0.00  0.00    +0.000 C 
ATOM     15  C   UNL     1      88.826  63.983  90.657  0.00  0.00    +0.000 C 
ATOM     16  C   UNL     1      88.729  63.399  89.452  0.00  0.00    +0.000 C 
ENDBRANCH  10  11
ENDBRANCH   9  10
ENDBRANCH   4   9
TORSDOF 4
ENDMDL
