MODEL 1
REMARK VINA RESULT:      -4.3      0.000      0.000
REMARK  Name = *****
REMARK  3 active torsions:
REMARK  status: ('A' for Active; 'I' for Inactive)
REMARK    1  A    between atoms: C_5  and  O_7
REMARK    2  A    between atoms: O_7  and  C_8
REMARK    3  A    between atoms: C_8  and  C_10
REMARK                            x       y       z     vdW  Elec       q    Type
REMARK                         _______ _______ _______ _____ _____    ______ ____
ROOT
ATOM      1  C   UNL     1      87.741  70.513  88.176  0.00  0.00    +0.000 C 
ATOM      2  O   UNL     1      88.282  70.751  89.245  0.00  0.00    +0.000 OA
ENDROOT
BRANCH   1   3
ATOM      3  C   UNL     1      86.517  71.215  87.703  0.00  0.00    +0.000 A 
ATOM      4  C   UNL     1      85.594  71.656  88.662  0.00  0.00    +0.000 A 
ATOM      5  C   UNL     1      84.430  72.319  88.268  0.00  0.00    +0.000 A 
ATOM      6  C   UNL     1      84.180  72.546  86.916  0.00  0.00    +0.000 A 
ATOM      7  C   UNL     1      85.093  72.112  85.955  0.00  0.00    +0.000 A 
ATOM      8  C   UNL     1      86.259  71.448  86.344  0.00  0.00    +0.000 A 
ENDBRANCH   1   3
BRANCH   1   9
ATOM      9  O   UNL     1      88.145  69.601  87.261  0.00  0.00    +0.000 OA
BRANCH   9  14
ATOM     10  C   UNL     1      89.389  68.276  84.786  0.00  0.00    +0.000 C 
ATOM     11  C   UNL     1      90.037  69.416  83.998  0.00  0.00    +0.000 C 
ATOM     12  C   UNL     1      90.083  70.706  84.763  0.00  0.00    +0.000 C 
ATOM     13  C   UNL     1      89.845  70.783  86.082  0.00  0.00    +0.000 C 
ATOM     14  C   UNL     1      89.550  69.591  86.951  0.00  0.00    +0.000 C 
ATOM     15  C   UNL     1      89.863  68.263  86.241  0.00  0.00    +0.000 C 
ENDBRANCH   9  14
ENDBRANCH   1   9
TORSDOF 3
ENDMDL
