MODEL 1
REMARK VINA RESULT:      -4.9      0.000      0.000
REMARK  Name = *****
REMARK  5 active torsions:
REMARK  status: ('A' for Active; 'I' for Inactive)
REMARK    1  A    between atoms: C_1  and  C_2
REMARK    2  A    between atoms: C_3  and  C_18
REMARK    3  A    between atoms: C_5  and  O_8
REMARK    4  A    between atoms: O_8  and  C_9
REMARK    5  A    between atoms: C_9  and  C_11
REMARK                            x       y       z     vdW  Elec       q    Type
REMARK                         _______ _______ _______ _____ _____    ______ ____
ROOT
ATOM      1  O   UNL     1     102.347 126.100  81.553  0.00  0.00    +0.000 OA
ENDROOT
BRANCH   1   6
ATOM      2  C   UNL     1      99.127 129.657  84.628  0.00  0.00    +0.000 C 
ATOM      3  C   UNL     1      99.967 128.703  83.823  0.00  0.00    +0.000 A 
ATOM      4  C   UNL     1      99.390 127.606  83.148  0.00  0.00    +0.000 A 
ATOM      5  C   UNL     1     100.216 126.741  82.412  0.00  0.00    +0.000 A 
ATOM      6  C   UNL     1     101.590 126.965  82.358  0.00  0.00    +0.000 A 
ATOM      7  C   UNL     1     102.164 128.058  82.995  0.00  0.00    +0.000 A 
ATOM      8  C   UNL     1     101.353 128.919  83.732  0.00  0.00    +0.000 A 
ATOM      9  C   UNL     1      97.911 127.339  83.204  0.00  0.00    +0.000 C 
ENDBRANCH   1   6
BRANCH   1  10
ATOM     10  C   UNL     1     103.086 125.128  82.203  0.00  0.00    +0.000 C 
ATOM     11  O   UNL     1     102.962 124.752  83.359  0.00  0.00    +0.000 OA
BRANCH  10  12
ATOM     12  C   UNL     1     104.103 124.567  81.273  0.00  0.00    +0.000 A 
ATOM     13  C   UNL     1     104.611 123.268  81.403  0.00  0.00    +0.000 A 
ATOM     14  C   UNL     1     105.561 122.812  80.496  0.00  0.00    +0.000 A 
ATOM     15  C   UNL     1     106.019 123.619  79.459  0.00  0.00    +0.000 A 
ATOM     16  C   UNL     1     105.517 124.911  79.322  0.00  0.00    +0.000 A 
ATOM     17  C   UNL     1     104.563 125.384  80.227  0.00  0.00    +0.000 A 
ATOM     18  F   UNL     1     106.046 121.570  80.623  0.00  0.00    +0.000 F 
ENDBRANCH  10  12
ENDBRANCH   1  10
TORSDOF 3
ENDMDL
