MODEL 1
REMARK VINA RESULT:      -4.4      0.000      0.000
REMARK  Name = *****
REMARK  4 active torsions:
REMARK  status: ('A' for Active; 'I' for Inactive)
REMARK    1  A    between atoms: C_6  and  C_7
REMARK    2  A    between atoms: C_7  and  C_8
REMARK    3  A    between atoms: C_8  and  C_9
REMARK    4  A    between atoms: C_9  and  C_10
REMARK                            x       y       z     vdW  Elec       q    Type
REMARK                         _______ _______ _______ _____ _____    ______ ____
ROOT
ATOM      1  C   UNL     1      89.734  67.841  86.334  0.00  0.00    +0.000 C 
ATOM      2  O   UNL     1      90.763  67.120  86.465  0.00  0.00    +0.000 OA
ENDROOT
BRANCH   1   3
ATOM      3  C   UNL     1      88.463  66.989  86.145  0.00  0.00    +0.000 C 
BRANCH   3   9
ATOM      4  C   UNL     1      88.453  65.131  87.882  0.00  0.00    +0.000 A 
ATOM      5  C   UNL     1      87.943  64.526  89.030  0.00  0.00    +0.000 A 
ATOM      6  C   UNL     1      86.894  65.132  89.710  0.00  0.00    +0.000 A 
ATOM      7  C   UNL     1      86.346  66.329  89.264  0.00  0.00    +0.000 A 
ATOM      8  C   UNL     1      86.857  66.935  88.116  0.00  0.00    +0.000 A 
ATOM      9  C   UNL     1      87.923  66.346  87.418  0.00  0.00    +0.000 A 
ATOM     10  F   UNL     1      86.399  64.552  90.813  0.00  0.00    +0.000 F 
ENDBRANCH   3   9
ENDBRANCH   1   3
BRANCH   1  11
ATOM     11  C   UNL     1      89.562  69.185  86.316  0.00  0.00    +0.000 C 
BRANCH  11  12
ATOM     12  C   UNL     1      88.547  69.992  87.022  0.00  0.00    +0.000 A 
ATOM     13  C   UNL     1      87.436  70.549  86.376  0.00  0.00    +0.000 A 
ATOM     14  C   UNL     1      86.474  71.268  87.090  0.00  0.00    +0.000 A 
ATOM     15  C   UNL     1      86.618  71.422  88.462  0.00  0.00    +0.000 A 
ATOM     16  C   UNL     1      87.704  70.870  89.132  0.00  0.00    +0.000 A 
ATOM     17  C   UNL     1      88.663  70.153  88.413  0.00  0.00    +0.000 A 
ATOM     18  F   UNL     1      85.697  72.108  89.153  0.00  0.00    +0.000 F 
ENDBRANCH  11  12
ENDBRANCH   1  11
TORSDOF 4
ENDMDL
