MODEL 1
REMARK VINA RESULT:      -3.7      0.000      0.000
REMARK  Name = *****
REMARK  3 active torsions:
REMARK  status: ('A' for Active; 'I' for Inactive)
REMARK    1  A    between atoms: C_4  and  C_7
REMARK    2  A    between atoms: C_7  and  S_8
REMARK    3  A    between atoms: S_8  and  C_9
REMARK                            x       y       z     vdW  Elec       q    Type
REMARK                         _______ _______ _______ _____ _____    ______ ____
ROOT
ATOM      1  C   UNL     1     102.705 127.221  83.296  0.00  0.00    +0.000 C 
ENDROOT
BRANCH   1   5
ATOM      2  C   UNL     1      98.531 128.220  82.860  0.00  0.00    +0.000 A 
ATOM      3  C   UNL     1      99.404 129.122  83.465  0.00  0.00    +0.000 A 
ATOM      4  C   UNL     1     100.755 128.800  83.605  0.00  0.00    +0.000 A 
ATOM      5  C   UNL     1     101.248 127.574  83.136  0.00  0.00    +0.000 A 
ATOM      6  C   UNL     1     100.357 126.671  82.537  0.00  0.00    +0.000 A 
ATOM      7  C   UNL     1      99.006 126.994  82.398  0.00  0.00    +0.000 A 
ENDBRANCH   1   5
BRANCH   1   8
ATOM      8  S   UNL     1     102.923 125.491  83.810  0.00  0.00    +0.000 S 
BRANCH   8   9
ATOM      9  C   UNL     1     103.655 124.814  82.364  0.00  0.00    +0.000 A 
ATOM     10  C   UNL     1     104.351 123.629  82.302  0.00  0.00    +0.000 A 
ATOM     11  S   UNL     1     104.920 123.306  80.719  0.00  0.00    +0.000 S 
ATOM     12  C   UNL     1     104.256 124.766  80.122  0.00  0.00    +0.000 A 
ATOM     13  C   UNL     1     103.610 125.481  81.108  0.00  0.00    +0.000 A 
ENDBRANCH   8   9
ENDBRANCH   1   8
TORSDOF 3
ENDMDL
