MODEL 1
REMARK VINA RESULT:      -4.7      0.000      0.000
REMARK  Name = *****
REMARK  5 active torsions:
REMARK  status: ('A' for Active; 'I' for Inactive)
REMARK    1  A    between atoms: C_1  and  O_2
REMARK    2  A    between atoms: O_2  and  C_3
REMARK    3  A    between atoms: C_6  and  C_9
REMARK    4  A    between atoms: C_9  and  C_11
REMARK    5  A    between atoms: C_11  and  C_12
REMARK                            x       y       z     vdW  Elec       q    Type
REMARK                         _______ _______ _______ _____ _____    ______ ____
ROOT
ATOM      1  C   UNL     1     102.765 128.148  83.160  0.00  0.00    +0.000 C 
ATOM      2  O   UNL     1     103.298 128.442  84.231  0.00  0.00    +0.000 OA
ENDROOT
BRANCH   1   6
ATOM      3  C   UNL     1      98.493 127.634  82.924  0.00  0.00    +0.000 A 
ATOM      4  C   UNL     1      99.015 128.781  83.524  0.00  0.00    +0.000 A 
ATOM      5  C   UNL     1     100.402 128.964  83.614  0.00  0.00    +0.000 A 
ATOM      6  C   UNL     1     101.279 128.003  83.101  0.00  0.00    +0.000 A 
ATOM      7  C   UNL     1     100.751 126.847  82.511  0.00  0.00    +0.000 A 
ATOM      8  C   UNL     1      99.368 126.671  82.421  0.00  0.00    +0.000 A 
BRANCH   3  10
ATOM      9  C   UNL     1      96.560 126.544  83.782  0.00  0.00    +0.000 C 
ATOM     10  O   UNL     1      97.168 127.338  82.770  0.00  0.00    +0.000 OA
ENDBRANCH   3  10
ENDBRANCH   1   6
BRANCH   1  11
ATOM     11  C   UNL     1     103.596 127.920  81.910  0.00  0.00    +0.000 C 
BRANCH  11  12
ATOM     12  C   UNL     1     103.924 126.471  81.639  0.00  0.00    +0.000 A 
ATOM     13  C   UNL     1     104.112 125.564  82.692  0.00  0.00    +0.000 A 
ATOM     14  C   UNL     1     104.386 124.219  82.432  0.00  0.00    +0.000 A 
ATOM     15  C   UNL     1     104.462 123.770  81.116  0.00  0.00    +0.000 A 
ATOM     16  C   UNL     1     104.260 124.653  80.058  0.00  0.00    +0.000 A 
ATOM     17  C   UNL     1     103.986 125.998  80.318  0.00  0.00    +0.000 A 
ATOM     18 CL   UNL     1     104.796 122.113  80.793  0.00  0.00    +0.000 Cl
ENDBRANCH  11  12
ENDBRANCH   1  11
TORSDOF 4
ENDMDL
