MODEL 1
REMARK VINA RESULT:      -4.5      0.000      0.000
REMARK  Name = *****
REMARK  4 active torsions:
REMARK  status: ('A' for Active; 'I' for Inactive)
REMARK    1  A    between atoms: C_2  and  C_4
REMARK    2  A    between atoms: C_2  and  C_11
REMARK    3  A    between atoms: C_4  and  C_5
REMARK    4  A    between atoms: C_11  and  C_12
REMARK                            x       y       z     vdW  Elec       q    Type
REMARK                         _______ _______ _______ _____ _____    ______ ____
ROOT
ATOM      1  C   UNL     1     104.464 129.203  82.571  0.00  0.00    +0.000 C 
ATOM      2  C   UNL     1     103.642 127.947  82.304  0.00  0.00    +0.000 C 
ATOM      3  O   UNL     1     105.053 127.906  82.638  0.00  0.00    +0.000 OA
ENDROOT
BRANCH   2   4
ATOM      4  C   UNL     1     102.797 127.360  83.412  0.00  0.00    +0.000 C 
BRANCH   4   5
ATOM      5  C   UNL     1     101.324 127.610  83.195  0.00  0.00    +0.000 A 
ATOM      6  C   UNL     1     100.512 126.624  82.616  0.00  0.00    +0.000 A 
ATOM      7  C   UNL     1      99.152 126.857  82.405  0.00  0.00    +0.000 A 
ATOM      8  C   UNL     1      98.589 128.077  82.774  0.00  0.00    +0.000 A 
ATOM      9  C   UNL     1      99.383 129.063  83.355  0.00  0.00    +0.000 A 
ATOM     10  C   UNL     1     100.744 128.830  83.566  0.00  0.00    +0.000 A 
ENDBRANCH   4   5
ENDBRANCH   2   4
BRANCH   2  11
ATOM     11  C   UNL     1     103.390 127.438  80.897  0.00  0.00    +0.000 C 
BRANCH  11  12
ATOM     12  C   UNL     1     104.107 126.142  80.602  0.00  0.00    +0.000 A 
ATOM     13  C   UNL     1     105.224 126.129  79.753  0.00  0.00    +0.000 A 
ATOM     14  C   UNL     1     105.885 124.933  79.468  0.00  0.00    +0.000 A 
ATOM     15  C   UNL     1     105.437 123.738  80.026  0.00  0.00    +0.000 A 
ATOM     16  C   UNL     1     104.328 123.738  80.871  0.00  0.00    +0.000 A 
ATOM     17  C   UNL     1     103.667 124.933  81.158  0.00  0.00    +0.000 A 
ENDBRANCH  11  12
ENDBRANCH   2  11
TORSDOF 4
ENDMDL
