REMARK  Name = *****
REMARK  5 active torsions:
REMARK  status: ('A' for Active; 'I' for Inactive)
REMARK    1  A    between atoms: C_1  and  C_2
REMARK    2  A    between atoms: C_4  and  C_8
REMARK    3  A    between atoms: C_8  and  C_9
REMARK    4  A    between atoms: C_9  and  C_10
REMARK    5  A    between atoms: C_10  and  C_12
REMARK                            x       y       z     vdW  Elec       q    Type
REMARK                         _______ _______ _______ _____ _____    ______ ____
ROOT
ATOM      1  C   UNL     1      -0.954   3.664  -0.388  0.00  0.00    +0.000 C 
ENDROOT
BRANCH   1   2
ATOM      2  C   UNL     1      -1.742   4.952  -0.530  0.00  0.00    +0.000 C 
ATOM      3  O   UNL     1      -2.965   4.991  -0.408  0.00  0.00    +0.000 OA
BRANCH   2   4
ATOM      4  C   UNL     1      -1.000   6.217  -0.830  0.00  0.00    +0.000 A 
ATOM      5  C   UNL     1      -1.740   7.398  -1.004  0.00  0.00    +0.000 A 
ATOM      6  C   UNL     1      -1.093   8.603  -1.287  0.00  0.00    +0.000 A 
ATOM      7  C   UNL     1       0.292   8.626  -1.396  0.00  0.00    +0.000 A 
ATOM      8  C   UNL     1       1.041   7.467  -1.225  0.00  0.00    +0.000 A 
ATOM      9  C   UNL     1       0.397   6.259  -0.942  0.00  0.00    +0.000 A 
ATOM     10  F   UNL     1       0.914   9.780  -1.667  0.00  0.00    +0.000 F 
ENDBRANCH   2   4
ENDBRANCH   1   2
BRANCH   1  11
ATOM     11  C   UNL     1      -1.868   2.465  -0.134  0.00  0.00    +0.000 C 
BRANCH  11  15
ATOM     12  C   UNL     1       0.319  -1.546  -2.270  0.00  0.00    +0.000 C 
ATOM     13  C   UNL     1       0.016  -0.729  -1.049  0.00  0.00    +0.000 A 
ATOM     14  C   UNL     1      -0.751   0.439  -1.150  0.00  0.00    +0.000 A 
ATOM     15  C   UNL     1      -1.072   1.189  -0.009  0.00  0.00    +0.000 A 
ATOM     16  C   UNL     1      -0.619   0.756   1.242  0.00  0.00    +0.000 A 
ATOM     17  C   UNL     1       0.132  -0.415   1.352  0.00  0.00    +0.000 A 
ATOM     18  C   UNL     1       0.443  -1.157   0.213  0.00  0.00    +0.000 A 
ENDBRANCH  11  15
ENDBRANCH   1  11
TORSDOF 4
