MODEL 1
REMARK VINA RESULT:      -4.7      0.000      0.000
REMARK  Name = *****
REMARK  4 active torsions:
REMARK  status: ('A' for Active; 'I' for Inactive)
REMARK    1  A    between atoms: C_6  and  O_7
REMARK    2  A    between atoms: O_7  and  C_8
REMARK    3  A    between atoms: C_8  and  C_10
REMARK    4  A    between atoms: C_11  and  C_17
REMARK                            x       y       z     vdW  Elec       q    Type
REMARK                         _______ _______ _______ _____ _____    ______ ____
ROOT
ATOM      1  C   UNL     1      86.742  70.938  86.383  0.00  0.00    +0.000 A 
ATOM      2  C   UNL     1      86.671  71.018  87.786  0.00  0.00    +0.000 A 
ATOM      3  C   UNL     1      85.616  71.751  88.362  0.00  0.00    +0.000 A 
ATOM      4  C   UNL     1      84.666  72.370  87.556  0.00  0.00    +0.000 A 
ATOM      5  C   UNL     1      84.735  72.283  86.172  0.00  0.00    +0.000 A 
ATOM      6  C   UNL     1      85.776  71.570  85.580  0.00  0.00    +0.000 A 
ATOM      7  F   UNL     1      83.669  73.058  88.124  0.00  0.00    +0.000 F 
ENDROOT
BRANCH   2   8
ATOM      8  C   UNL     1      87.681  70.336  88.675  0.00  0.00    +0.000 C 
ATOM      9  F   UNL     1      87.572  68.979  88.664  0.00  0.00    +0.000 F 
ATOM     10  F   UNL     1      88.964  70.641  88.359  0.00  0.00    +0.000 F 
ATOM     11  F   UNL     1      87.536  70.690  89.987  0.00  0.00    +0.000 F 
ENDBRANCH   2   8
BRANCH   1  12
ATOM     12  C   UNL     1      87.864  70.227  85.727  0.00  0.00    +0.000 C 
ATOM     13  O   UNL     1      88.922  70.765  85.459  0.00  0.00    +0.000 OA
BRANCH  12  14
ATOM     14  O   UNL     1      87.488  68.911  85.541  0.00  0.00    +0.000 OA
BRANCH  14  20
ATOM     15  C   UNL     1      89.289  67.580  86.510  0.00  0.00    +0.000 A 
ATOM     16  C   UNL     1      90.288  66.620  86.335  0.00  0.00    +0.000 A 
ATOM     17  C   UNL     1      90.509  66.073  85.070  0.00  0.00    +0.000 A 
ATOM     18  C   UNL     1      89.738  66.473  83.977  0.00  0.00    +0.000 A 
ATOM     19  C   UNL     1      88.740  67.435  84.148  0.00  0.00    +0.000 A 
ATOM     20  C   UNL     1      88.538  67.994  85.408  0.00  0.00    +0.000 A 
ATOM     21 CL   UNL     1      91.737  64.885  84.857  0.00  0.00    +0.000 Cl
ENDBRANCH  14  20
ENDBRANCH  12  14
ENDBRANCH   1  12
TORSDOF 4
ENDMDL
