MODEL 1
REMARK VINA RESULT:      -5.3      0.000      0.000
REMARK  Name = *****
REMARK  4 active torsions:
REMARK  status: ('A' for Active; 'I' for Inactive)
REMARK    1  A    between atoms: C_4  and  C_7
REMARK    2  A    between atoms: C_8  and  C_9
REMARK    3  A    between atoms: C_8  and  C_11
REMARK    4  A    between atoms: C_13  and  C_17
REMARK                            x       y       z     vdW  Elec       q    Type
REMARK                         _______ _______ _______ _____ _____    ______ ____
ROOT
ATOM      1  C   UNL     1     102.449 125.832  81.947  0.00  0.00    +0.000 C 
ATOM      2  C   UNL     1     103.426 126.078  81.050  0.00  0.00    +0.000 C 
ENDROOT
BRANCH   1   6
ATOM      3  C   UNL     1      99.687 128.682  83.523  0.00  0.00    +0.000 A 
ATOM      4  C   UNL     1      99.211 127.585  82.806  0.00  0.00    +0.000 A 
ATOM      5  C   UNL     1     100.105 126.649  82.283  0.00  0.00    +0.000 A 
ATOM      6  C   UNL     1     101.484 126.811  82.465  0.00  0.00    +0.000 A 
ATOM      7  C   UNL     1     101.953 127.908  83.198  0.00  0.00    +0.000 A 
ATOM      8  C   UNL     1     101.057 128.843  83.720  0.00  0.00    +0.000 A 
ENDBRANCH   1   6
BRANCH   2   9
ATOM      9  C   UNL     1     104.318 124.968  80.657  0.00  0.00    +0.000 A 
ATOM     10  C   UNL     1     104.182 123.703  81.252  0.00  0.00    +0.000 A 
ATOM     11  C   UNL     1     105.030 122.640  80.893  0.00  0.00    +0.000 A 
ATOM     12  C   UNL     1     106.013 122.856  79.917  0.00  0.00    +0.000 A 
ATOM     13  C   UNL     1     106.160 124.109  79.324  0.00  0.00    +0.000 A 
ATOM     14  C   UNL     1     105.318 125.159  79.694  0.00  0.00    +0.000 A 
BRANCH  11  15
ATOM     15  C   UNL     1     104.857 121.275  81.514  0.00  0.00    +0.000 C 
ATOM     16  F   UNL     1     105.977 120.503  81.432  0.00  0.00    +0.000 F 
ATOM     17  F   UNL     1     104.549 121.347  82.838  0.00  0.00    +0.000 F 
ATOM     18  F   UNL     1     103.862 120.548  80.935  0.00  0.00    +0.000 F 
ENDBRANCH  11  15
ENDBRANCH   2   9
BRANCH   2  19
ATOM     19  C   UNL     1     103.660 127.377  80.496  0.00  0.00    +0.000 C 
ATOM     20  N   UNL     1     103.850 128.421  80.026  0.00  0.00    +0.000 NA
ENDBRANCH   2  19
TORSDOF 4
ENDMDL
