MODEL 1
REMARK VINA RESULT:      -4.3      0.000      0.000
REMARK  Name = *****
REMARK  6 active torsions:
REMARK  status: ('A' for Active; 'I' for Inactive)
REMARK    1  A    between atoms: C_1  and  N_2
REMARK    2  A    between atoms: N_2  and  C_3
REMARK    3  A    between atoms: N_2  and  C_4
REMARK    4  A    between atoms: C_7  and  C_10
REMARK    5  A    between atoms: C_10  and  S_11
REMARK    6  A    between atoms: S_11  and  C_12
REMARK                            x       y       z     vdW  Elec       q    Type
REMARK                         _______ _______ _______ _____ _____    ______ ____
ROOT
ATOM      1  C   UNL     1      89.077  65.692  86.573  0.00  0.00    +0.000 A 
ATOM      2  C   UNL     1      87.987  66.356  87.164  0.00  0.00    +0.000 A 
ATOM      3  C   UNL     1      87.948  67.750  87.317  0.00  0.00    +0.000 A 
ATOM      4  C   UNL     1      89.002  68.546  86.866  0.00  0.00    +0.000 A 
ATOM      5  C   UNL     1      90.094  67.914  86.271  0.00  0.00    +0.000 A 
ATOM      6  C   UNL     1      90.121  66.519  86.122  0.00  0.00    +0.000 A 
ENDROOT
BRANCH   1   8
ATOM      7  C   UNL     1      90.002  63.730  85.407  0.00  0.00    +0.000 C 
ATOM      8  N   UNL     1      89.100  64.300  86.407  0.00  0.00    +0.000 N 
ATOM      9  C   UNL     1      87.883  63.534  86.668  0.00  0.00    +0.000 C 
ENDBRANCH   1   8
BRANCH   4  10
ATOM     10  C   UNL     1      88.968  70.042  87.034  0.00  0.00    +0.000 C 
BRANCH  10  11
ATOM     11  S   UNL     1      87.962  70.531  88.473  0.00  0.00    +0.000 S 
BRANCH  11  12
ATOM     12  C   UNL     1      86.578  71.262  87.623  0.00  0.00    +0.000 A 
ATOM     13  C   UNL     1      86.582  71.320  86.226  0.00  0.00    +0.000 A 
ATOM     14  C   UNL     1      85.504  71.886  85.541  0.00  0.00    +0.000 A 
ATOM     15  C   UNL     1      84.413  72.388  86.249  0.00  0.00    +0.000 A 
ATOM     16  C   UNL     1      84.397  72.321  87.642  0.00  0.00    +0.000 A 
ATOM     17  C   UNL     1      85.475  71.755  88.327  0.00  0.00    +0.000 A 
ENDBRANCH  11  12
ENDBRANCH  10  11
ENDBRANCH   4  10
TORSDOF 4
ENDMDL
