MODEL 1
REMARK VINA RESULT:      -4.3      0.000      0.000
REMARK  Name = *****
REMARK  4 active torsions:
REMARK  status: ('A' for Active; 'I' for Inactive)
REMARK    1  A    between atoms: C_4  and  S_9
REMARK    2  A    between atoms: C_5  and  C_7
REMARK    3  A    between atoms: S_9  and  C_10
REMARK    4  A    between atoms: C_10  and  C_12
REMARK                            x       y       z     vdW  Elec       q    Type
REMARK                         _______ _______ _______ _____ _____    ______ ____
ROOT
ATOM      1  S   UNL     1     101.202 126.593  83.650  0.00  0.00    +0.000 S 
ENDROOT
BRANCH   1   5
ATOM      2  C   UNL     1     104.338 128.208  80.691  0.00  0.00    +0.000 A 
ATOM      3  C   UNL     1     103.530 127.118  80.388  0.00  0.00    +0.000 A 
ATOM      4  C   UNL     1     102.584 126.673  81.313  0.00  0.00    +0.000 A 
ATOM      5  C   UNL     1     102.427 127.307  82.557  0.00  0.00    +0.000 A 
ATOM      6  C   UNL     1     103.235 128.421  82.847  0.00  0.00    +0.000 A 
ATOM      7  C   UNL     1     104.193 128.858  81.916  0.00  0.00    +0.000 A 
BRANCH   6   8
ATOM      8  C   UNL     1     103.152 129.212  84.102  0.00  0.00    +0.000 C 
ATOM      9  O   UNL     1     103.184 130.434  84.157  0.00  0.00    +0.000 OA
ENDBRANCH   6   8
ENDBRANCH   1   5
BRANCH   1  10
ATOM     10  C   UNL     1      99.737 127.391  83.086  0.00  0.00    +0.000 C 
ATOM     11  O   UNL     1      99.113 127.042  82.092  0.00  0.00    +0.000 OA
BRANCH  10  12
ATOM     12  C   UNL     1      99.315 128.554  83.883  0.00  0.00    +0.000 A 
ATOM     13  C   UNL     1      99.701 129.838  83.469  0.00  0.00    +0.000 A 
ATOM     14  C   UNL     1      99.334 130.952  84.223  0.00  0.00    +0.000 A 
ATOM     15  C   UNL     1      98.588 130.790  85.390  0.00  0.00    +0.000 A 
ATOM     16  C   UNL     1      98.206 129.511  85.804  0.00  0.00    +0.000 A 
ATOM     17  C   UNL     1      98.570 128.389  85.054  0.00  0.00    +0.000 A 
ATOM     18 CL   UNL     1      98.033 126.842  85.603  0.00  0.00    +0.000 Cl
ENDBRANCH  10  12
ENDBRANCH   1  10
TORSDOF 4
ENDMDL
