MODEL 1
REMARK VINA RESULT:      -4.6      0.000      0.000
REMARK  Name = *****
REMARK  3 active torsions:
REMARK  status: ('A' for Active; 'I' for Inactive)
REMARK    1  A    between atoms: C_5  and  S_7
REMARK    2  A    between atoms: S_7  and  C_8
REMARK    3  A    between atoms: C_8  and  C_9
REMARK                            x       y       z     vdW  Elec       q    Type
REMARK                         _______ _______ _______ _____ _____    ______ ____
ROOT
ATOM      1  C   UNL     1     103.011 125.469  83.567  0.00  0.00    +0.000 C 
ENDROOT
BRANCH   1   2
ATOM      2  C   UNL     1     103.659 124.813  82.378  0.00  0.00    +0.000 A 
ATOM      3  C   UNL     1     104.167 123.512  82.477  0.00  0.00    +0.000 A 
ATOM      4  C   UNL     1     104.785 122.900  81.386  0.00  0.00    +0.000 A 
ATOM      5  C   UNL     1     104.908 123.586  80.179  0.00  0.00    +0.000 A 
ATOM      6  C   UNL     1     104.412 124.886  80.067  0.00  0.00    +0.000 A 
ATOM      7  C   UNL     1     103.793 125.498  81.160  0.00  0.00    +0.000 A 
ATOM      8 CL   UNL     1     105.399 121.296  81.513  0.00  0.00    +0.000 Cl
ATOM      9  F   UNL     1     104.045 122.849  83.638  0.00  0.00    +0.000 F 
ENDBRANCH   1   2
BRANCH   1  10
ATOM     10  S   UNL     1     103.082 127.288  83.442  0.00  0.00    +0.000 S 
BRANCH  10  15
ATOM     11  C   UNL     1      99.445 129.138  83.445  0.00  0.00    +0.000 A 
ATOM     12  C   UNL     1      98.619 128.168  82.882  0.00  0.00    +0.000 A 
ATOM     13  C   UNL     1      99.163 126.950  82.492  0.00  0.00    +0.000 A 
ATOM     14  C   UNL     1     100.516 126.678  82.662  0.00  0.00    +0.000 A 
ATOM     15  C   UNL     1     101.346 127.640  83.240  0.00  0.00    +0.000 A 
ATOM     16  C   UNL     1     100.807 128.875  83.621  0.00  0.00    +0.000 A 
ATOM     17  F   UNL     1      98.369 126.020  81.945  0.00  0.00    +0.000 F 
ENDBRANCH  10  15
ENDBRANCH   1  10
TORSDOF 3
ENDMDL
