MODEL 1
REMARK VINA RESULT:      -5.1      0.000      0.000
REMARK  Name = *****
REMARK  4 active torsions:
REMARK  status: ('A' for Active; 'I' for Inactive)
REMARK    1  A    between atoms: C_1  and  C_2
REMARK    2  A    between atoms: C_4  and  C_9
REMARK    3  A    between atoms: C_5  and  C_8
REMARK    4  A    between atoms: C_10  and  C_11
REMARK                            x       y       z     vdW  Elec       q    Type
REMARK                         _______ _______ _______ _____ _____    ______ ____
ROOT
ATOM      1  C   UNL     1     102.977 125.921  82.540  0.00  0.00    +0.000 C 
ATOM      2  C   UNL     1     101.645 125.989  82.382  0.00  0.00    +0.000 C 
ENDROOT
BRANCH   1   6
ATOM      3  C   UNL     1     104.850 121.469  83.808  0.00  0.00    +0.000 C 
ATOM      4  C   UNL     1     104.673 122.557  82.791  0.00  0.00    +0.000 A 
ATOM      5  C   UNL     1     103.955 123.715  83.111  0.00  0.00    +0.000 A 
ATOM      6  C   UNL     1     103.749 124.729  82.160  0.00  0.00    +0.000 A 
ATOM      7  C   UNL     1     104.256 124.571  80.856  0.00  0.00    +0.000 A 
ATOM      8  C   UNL     1     104.959 123.399  80.537  0.00  0.00    +0.000 A 
ATOM      9  C   UNL     1     105.163 122.402  81.493  0.00  0.00    +0.000 A 
ATOM     10  C   UNL     1     104.057 125.621  79.797  0.00  0.00    +0.000 C 
ENDBRANCH   1   6
BRANCH   2  11
ATOM     11  C   UNL     1     100.830 127.149  82.770  0.00  0.00    +0.000 A 
ATOM     12  C   UNL     1     101.460 128.213  83.436  0.00  0.00    +0.000 A 
ATOM     13  C   UNL     1     100.728 129.330  83.852  0.00  0.00    +0.000 A 
ATOM     14  C   UNL     1      99.355 129.396  83.619  0.00  0.00    +0.000 A 
ATOM     15  C   UNL     1      98.714 128.341  82.973  0.00  0.00    +0.000 A 
ATOM     16  C   UNL     1      99.448 127.230  82.559  0.00  0.00    +0.000 A 
ATOM     17  F   UNL     1      98.785 126.227  81.962  0.00  0.00    +0.000 F 
ENDBRANCH   2  11
TORSDOF 2
ENDMDL
