MODEL 1
REMARK VINA RESULT:      -5.0      0.000      0.000
REMARK  Name = *****
REMARK  2 active torsions:
REMARK  status: ('A' for Active; 'I' for Inactive)
REMARK    1  A    between atoms: C_1  and  C_2
REMARK    2  A    between atoms: C_5  and  C_13
REMARK                            x       y       z     vdW  Elec       q    Type
REMARK                         _______ _______ _______ _____ _____    ______ ____
ROOT
ATOM      1  C   UNL     1     103.420 129.710  83.823  0.00  0.00    +0.000 C 
ATOM      2  C   UNL     1     102.919 128.294  83.745  0.00  0.00    +0.000 C 
ATOM      3  C   UNL     1     103.736 127.269  84.026  0.00  0.00    +0.000 C 
ATOM      4  O   UNL     1     103.419 125.917  84.011  0.00  0.00    +0.000 OA
ATOM      5  C   UNL     1     102.972 125.491  82.795  0.00  0.00    +0.000 C 
ATOM      6  N   UNL     1     101.964 125.946  82.123  0.00  0.00    +0.000 NA
ATOM      7  C   UNL     1     101.105 126.928  82.643  0.00  0.00    +0.000 A 
ATOM      8  C   UNL     1      99.747 126.770  82.318  0.00  0.00    +0.000 A 
ATOM      9  C   UNL     1      98.785 127.691  82.728  0.00  0.00    +0.000 A 
ATOM     10  C   UNL     1      99.173 128.798  83.469  0.00  0.00    +0.000 A 
ATOM     11  C   UNL     1     100.519 128.979  83.793  0.00  0.00    +0.000 A 
ATOM     12  C   UNL     1     101.504 128.055  83.389  0.00  0.00    +0.000 A 
ENDROOT
BRANCH   5  13
ATOM     13  C   UNL     1     103.799 124.349  82.307  0.00  0.00    +0.000 A 
ATOM     14  C   UNL     1     104.252 123.336  83.164  0.00  0.00    +0.000 A 
ATOM     15  C   UNL     1     105.023 122.285  82.665  0.00  0.00    +0.000 A 
ATOM     16  C   UNL     1     105.349 122.237  81.309  0.00  0.00    +0.000 A 
ATOM     17  C   UNL     1     104.901 123.238  80.450  0.00  0.00    +0.000 A 
ATOM     18  C   UNL     1     104.128 124.291  80.945  0.00  0.00    +0.000 A 
ENDBRANCH   5  13
TORSDOF 1
ENDMDL
