REMARK  Name = *****
REMARK  5 active torsions:
REMARK  status: ('A' for Active; 'I' for Inactive)
REMARK    1  A    between atoms: C_1  and  C_2
REMARK    2  A    between atoms: C_5  and  C_8
REMARK    3  A    between atoms: C_8  and  O_9
REMARK    4  A    between atoms: O_9  and  C_10
REMARK    5  A    between atoms: C_10  and  C_12
REMARK                            x       y       z     vdW  Elec       q    Type
REMARK                         _______ _______ _______ _____ _____    ______ ____
ROOT
ATOM      1  O   UNL     1      -2.102   0.015  -2.783  0.00  0.00    +0.000 OA
ENDROOT
BRANCH   1   2
ATOM      2  C   UNL     1      -2.144  -1.204  -3.374  0.00  0.00    +0.000 C 
ATOM      3  O   UNL     1      -2.775  -2.175  -2.986  0.00  0.00    +0.000 OA
BRANCH   2   4
ATOM      4  C   UNL     1      -1.309  -1.211  -4.606  0.00  0.00    +0.000 A 
ATOM      5  C   UNL     1      -1.366  -2.336  -5.439  0.00  0.00    +0.000 A 
ATOM      6  C   UNL     1      -0.598  -2.391  -6.604  0.00  0.00    +0.000 A 
ATOM      7  C   UNL     1       0.234  -1.324  -6.940  0.00  0.00    +0.000 A 
ATOM      8  C   UNL     1       0.301  -0.202  -6.114  0.00  0.00    +0.000 A 
ATOM      9  C   UNL     1      -0.467  -0.143  -4.949  0.00  0.00    +0.000 A 
ENDBRANCH   2   4
ENDBRANCH   1   2
BRANCH   1  10
ATOM     10  C   UNL     1      -2.807   0.149  -1.536  0.00  0.00    +0.000 C 
BRANCH  10  15
ATOM     11  C   UNL     1       2.089  -0.087  -0.800  0.00  0.00    +0.000 C 
ATOM     12  C   UNL     1       1.087  -0.168   0.354  0.00  0.00    +0.000 C 
ATOM     13  C   UNL     1       0.326   1.157   0.540  0.00  0.00    +0.000 C 
ATOM     14  C   UNL     1      -0.816   1.307  -0.464  0.00  0.00    +0.000 C 
ATOM     15  C   UNL     1      -1.831   0.152  -0.344  0.00  0.00    +0.000 C 
ATOM     16  C   UNL     1      -1.151  -1.186  -0.159  0.00  0.00    +0.000 C 
ATOM     17  C   UNL     1       0.150  -1.327   0.136  0.00  0.00    +0.000 C 
ENDBRANCH  10  15
ENDBRANCH   1  10
TORSDOF 4
