MODEL 1
REMARK VINA RESULT:      -4.6      0.000      0.000
REMARK  Name = *****
REMARK  3 active torsions:
REMARK  status: ('A' for Active; 'I' for Inactive)
REMARK    1  A    between atoms: C_6  and  C_7
REMARK    2  A    between atoms: C_8  and  C_9
REMARK    3  A    between atoms: C_12  and  C_15
REMARK                            x       y       z     vdW  Elec       q    Type
REMARK                         _______ _______ _______ _____ _____    ______ ____
ROOT
ATOM      1  C   UNL     1     102.658 126.020  82.131  0.00  0.00    +0.000 A 
ATOM      2  N   UNL     1     103.108 124.999  82.892  0.00  0.00    +0.000 NA
ATOM      3  C   UNL     1     103.933 124.108  82.294  0.00  0.00    +0.000 A 
ATOM      4  C   UNL     1     104.328 124.185  80.965  0.00  0.00    +0.000 A 
ATOM      5  C   UNL     1     103.849 125.261  80.210  0.00  0.00    +0.000 A 
ATOM      6  C   UNL     1     102.997 126.194  80.798  0.00  0.00    +0.000 A 
ENDROOT
BRANCH   4   7
ATOM      7  C   UNL     1     105.265 123.163  80.399  0.00  0.00    +0.000 C 
ATOM      8  F   UNL     1     105.826 123.548  79.219  0.00  0.00    +0.000 F 
ATOM      9  F   UNL     1     106.305 122.876  81.228  0.00  0.00    +0.000 F 
ATOM     10  F   UNL     1     104.647 121.977  80.150  0.00  0.00    +0.000 F 
ENDBRANCH   4   7
BRANCH   1  12
ATOM     11  C   UNL     1     101.056 127.699  83.365  0.00  0.00    +0.000 C 
ATOM     12  C   UNL     1     101.792 126.934  82.800  0.00  0.00    +0.000 C 
BRANCH  11  18
ATOM     13  C   UNL     1      99.280 128.112  84.997  0.00  0.00    +0.000 A 
ATOM     14  C   UNL     1      98.416 128.989  85.655  0.00  0.00    +0.000 A 
ATOM     15  C   UNL     1      98.450 130.345  85.347  0.00  0.00    +0.000 A 
ATOM     16  C   UNL     1      99.333 130.841  84.393  0.00  0.00    +0.000 A 
ATOM     17  C   UNL     1     100.198 129.964  83.734  0.00  0.00    +0.000 A 
ATOM     18  C   UNL     1     100.172 128.599  84.037  0.00  0.00    +0.000 A 
ATOM     19  F   UNL     1      97.621 131.186  85.977  0.00  0.00    +0.000 F 
ENDBRANCH  11  18
ENDBRANCH   1  12
TORSDOF 3
ENDMDL
