REMARK  Name = *****
REMARK  3 active torsions:
REMARK  status: ('A' for Active; 'I' for Inactive)
REMARK    1  A    between atoms: C_2  and  C_3
REMARK    2  A    between atoms: C_4  and  C_8
REMARK    3  A    between atoms: C_9  and  C_10
REMARK                            x       y       z     vdW  Elec       q    Type
REMARK                         _______ _______ _______ _____ _____    ______ ____
ROOT
ATOM      1  C   UNL     1       4.048  -2.361  -0.359  0.00  0.00    +0.000 C 
ATOM      2  C   UNL     1       3.619  -3.475  -0.489  0.00  0.00    +0.000 C 
ENDROOT
BRANCH   2   3
ATOM      3  C   UNL     1       3.065  -4.835  -0.645  0.00  0.00    +0.000 C 
ATOM      4  C   UNL     1       2.195  -5.218   0.560  0.00  0.00    +0.000 C 
ATOM      5  C   UNL     1       3.013  -5.517   1.817  0.00  0.00    +0.000 C 
ATOM      6  C   UNL     1       4.092  -6.562   1.552  0.00  0.00    +0.000 C 
ATOM      7  C   UNL     1       4.990  -6.161   0.386  0.00  0.00    +0.000 C 
ATOM      8  C   UNL     1       4.180  -5.864  -0.876  0.00  0.00    +0.000 C 
ENDBRANCH   2   3
BRANCH   1  10
ATOM      9  C   UNL     1       3.774   0.054  -0.068  0.00  0.00    +0.000 C 
ATOM     10  C   UNL     1       4.535  -1.041  -0.200  0.00  0.00    +0.000 C 
ATOM     11  C   UNL     1       5.989  -0.694  -0.148  0.00  0.00    +0.000 C 
ATOM     12  C   UNL     1       5.981   0.825  -0.331  0.00  0.00    +0.000 C 
ATOM     13  C   UNL     1       4.589   1.296   0.089  0.00  0.00    +0.000 C 
BRANCH   9  15
ATOM     14  C   UNL     1       0.950   0.054  -0.068  0.00  0.00    +0.000 C 
ATOM     15  C   UNL     1       2.254   0.054  -0.068  0.00  0.00    +0.000 C 
ENDBRANCH   9  15
ENDBRANCH   1  10
TORSDOF 3
