MODEL 1
REMARK VINA RESULT:      -4.9      0.000      0.000
REMARK  Name = *****
REMARK  4 active torsions:
REMARK  status: ('A' for Active; 'I' for Inactive)
REMARK    1  A    between atoms: C_1  and  C_2
REMARK    2  A    between atoms: C_5  and  C_8
REMARK    3  A    between atoms: C_8  and  N_9
REMARK    4  A    between atoms: N_9  and  C_10
REMARK                            x       y       z     vdW  Elec       q    Type
REMARK                         _______ _______ _______ _____ _____    ______ ____
ROOT
ATOM      1  N   UNL     1      88.827  70.126  86.609  0.00  0.00    +0.000 N 
ATOM      2  O   UNL     1      89.707  70.833  87.197  0.00  0.00    +0.000 OA
ENDROOT
BRANCH   1   3
ATOM      3  C   UNL     1      88.922  68.676  86.699  0.00  0.00    +0.000 A 
ATOM      4  C   UNL     1      89.983  67.990  86.096  0.00  0.00    +0.000 A 
ATOM      5  C   UNL     1      90.030  66.601  86.190  0.00  0.00    +0.000 A 
ATOM      6  C   UNL     1      89.029  65.898  86.864  0.00  0.00    +0.000 A 
ATOM      7  C   UNL     1      87.963  66.587  87.446  0.00  0.00    +0.000 A 
ATOM      8  C   UNL     1      87.904  67.978  87.361  0.00  0.00    +0.000 A 
ATOM      9 CL   UNL     1      91.334  65.742  85.467  0.00  0.00    +0.000 Cl
ENDBRANCH   1   3
BRANCH   1  10
ATOM     10  C   UNL     1      87.833  70.621  85.907  0.00  0.00    +0.000 C 
BRANCH  10  15
ATOM     11  C   UNL     1      82.946  73.137  87.708  0.00  0.00    +0.000 C 
ATOM     12  C   UNL     1      84.232  72.505  87.268  0.00  0.00    +0.000 A 
ATOM     13  C   UNL     1      85.124  71.979  88.209  0.00  0.00    +0.000 A 
ATOM     14  C   UNL     1      86.310  71.358  87.802  0.00  0.00    +0.000 A 
ATOM     15  C   UNL     1      86.607  71.237  86.444  0.00  0.00    +0.000 A 
ATOM     16  C   UNL     1      85.717  71.760  85.498  0.00  0.00    +0.000 A 
ATOM     17  C   UNL     1      84.532  72.380  85.907  0.00  0.00    +0.000 A 
ENDBRANCH  10  15
ENDBRANCH   1  10
TORSDOF 3
ENDMDL
