MODEL 1
REMARK VINA RESULT:      -4.4      0.000      0.000
REMARK  Name = *****
REMARK  3 active torsions:
REMARK  status: ('A' for Active; 'I' for Inactive)
REMARK    1  A    between atoms: C_6  and  C_7
REMARK    2  A    between atoms: C_7  and  S_8
REMARK    3  A    between atoms: S_8  and  C_10
REMARK                            x       y       z     vdW  Elec       q    Type
REMARK                         _______ _______ _______ _____ _____    ______ ____
ROOT
ATOM      1  S   UNL     1      88.506  70.333  86.521  0.00  0.00    +0.000 S 
ATOM      2  O   UNL     1      89.909  70.841  86.696  0.00  0.00    +0.000 OA
ENDROOT
BRANCH   1   3
ATOM      3  C   UNL     1      88.608  68.543  86.761  0.00  0.00    +0.000 A 
ATOM      4  C   UNL     1      89.732  67.846  86.300  0.00  0.00    +0.000 A 
ATOM      5  C   UNL     1      89.824  66.463  86.480  0.00  0.00    +0.000 A 
ATOM      6  C   UNL     1      88.796  65.778  87.127  0.00  0.00    +0.000 A 
ATOM      7  C   UNL     1      87.680  66.464  87.598  0.00  0.00    +0.000 A 
ATOM      8  C   UNL     1      87.587  67.846  87.417  0.00  0.00    +0.000 A 
ATOM      9 CL   UNL     1      88.912  64.075  87.347  0.00  0.00    +0.000 Cl
ENDBRANCH   1   3
BRANCH   1  10
ATOM     10  C   UNL     1      87.587  70.706  88.055  0.00  0.00    +0.000 C 
BRANCH  10  16
ATOM     11  C   UNL     1      85.878  71.645  86.447  0.00  0.00    +0.000 A 
ATOM     12  C   UNL     1      84.665  72.282  86.178  0.00  0.00    +0.000 A 
ATOM     13  C   UNL     1      83.844  72.677  87.230  0.00  0.00    +0.000 A 
ATOM     14  C   UNL     1      84.224  72.440  88.549  0.00  0.00    +0.000 A 
ATOM     15  C   UNL     1      85.438  71.802  88.819  0.00  0.00    +0.000 A 
ATOM     16  C   UNL     1      86.280  71.403  87.770  0.00  0.00    +0.000 A 
ATOM     17 CL   UNL     1      82.348  73.462  86.901  0.00  0.00    +0.000 Cl
ENDBRANCH  10  16
ENDBRANCH   1  10
TORSDOF 3
ENDMDL
