MODEL 1
REMARK VINA RESULT:      -4.5      0.000      0.000
REMARK  Name = *****
REMARK  4 active torsions:
REMARK  status: ('A' for Active; 'I' for Inactive)
REMARK    1  A    between atoms: C_1  and  C_2
REMARK    2  A    between atoms: C_7  and  S_8
REMARK    3  A    between atoms: S_8  and  C_9
REMARK    4  A    between atoms: C_10  and  C_11
REMARK                            x       y       z     vdW  Elec       q    Type
REMARK                         _______ _______ _______ _____ _____    ______ ____
ROOT
ATOM      1  S   UNL     1      89.670  70.717  85.660  0.00  0.00    +0.000 S 
ENDROOT
BRANCH   1   8
ATOM      2  C   UNL     1      88.557  70.537  88.667  0.00  0.00    +0.000 C 
ATOM      3  C   UNL     1      87.604  70.939  87.575  0.00  0.00    +0.000 A 
ATOM      4  C   UNL     1      86.266  71.205  87.913  0.00  0.00    +0.000 A 
ATOM      5  C   UNL     1      85.341  71.588  86.940  0.00  0.00    +0.000 A 
ATOM      6  C   UNL     1      85.739  71.710  85.613  0.00  0.00    +0.000 A 
ATOM      7  C   UNL     1      87.061  71.440  85.259  0.00  0.00    +0.000 A 
ATOM      8  C   UNL     1      87.997  71.040  86.225  0.00  0.00    +0.000 A 
ENDBRANCH   1   8
BRANCH   1   9
ATOM      9  C   UNL     1      89.590  68.995  85.486  0.00  0.00    +0.000 C 
ATOM     10  C   UNL     1      90.033  68.145  86.423  0.00  0.00    +0.000 C 
BRANCH  10  11
ATOM     11  C   UNL     1      89.958  66.682  86.298  0.00  0.00    +0.000 A 
ATOM     12  C   UNL     1      88.941  65.932  86.902  0.00  0.00    +0.000 A 
ATOM     13  C   UNL     1      88.886  64.545  86.735  0.00  0.00    +0.000 A 
ATOM     14  C   UNL     1      89.841  63.897  85.955  0.00  0.00    +0.000 A 
ATOM     15  C   UNL     1      90.848  64.636  85.335  0.00  0.00    +0.000 A 
ATOM     16  C   UNL     1      90.902  66.021  85.501  0.00  0.00    +0.000 A 
ENDBRANCH  10  11
ENDBRANCH   1   9
TORSDOF 3
ENDMDL
