MODEL 1
REMARK VINA RESULT:      -4.6      0.000      0.000
REMARK  Name = *****
REMARK  5 active torsions:
REMARK  status: ('A' for Active; 'I' for Inactive)
REMARK    1  A    between atoms: C_1  and  C_2
REMARK    2  A    between atoms: C_3  and  C_19
REMARK    3  A    between atoms: C_5  and  O_8
REMARK    4  A    between atoms: O_8  and  C_9
REMARK    5  A    between atoms: C_9  and  C_11
REMARK                            x       y       z     vdW  Elec       q    Type
REMARK                         _______ _______ _______ _____ _____    ______ ____
ROOT
ATOM      1  C   UNL     1      89.233  68.300  86.342  0.00  0.00    +0.000 C 
ATOM      2  O   UNL     1      90.312  67.749  86.503  0.00  0.00    +0.000 OA
ENDROOT
BRANCH   1   3
ATOM      3  C   UNL     1      88.444  68.834  87.476  0.00  0.00    +0.000 A 
ATOM      4  C   UNL     1      88.750  70.041  88.107  0.00  0.00    +0.000 A 
ATOM      5  C   UNL     1      87.966  70.491  89.172  0.00  0.00    +0.000 A 
ATOM      6  C   UNL     1      86.868  69.747  89.607  0.00  0.00    +0.000 A 
ATOM      7  C   UNL     1      86.549  68.548  88.971  0.00  0.00    +0.000 A 
ATOM      8  C   UNL     1      87.332  68.094  87.908  0.00  0.00    +0.000 A 
ATOM      9 CL   UNL     1      88.335  71.978  89.962  0.00  0.00    +0.000 Cl
ATOM     10  F   UNL     1      89.778  70.795  87.689  0.00  0.00    +0.000 F 
ENDBRANCH   1   3
BRANCH   1  11
ATOM     11  O   UNL     1      88.611  68.598  85.146  0.00  0.00    +0.000 OA
BRANCH  11  16
ATOM     12  C   UNL     1      89.584  73.850  83.154  0.00  0.00    +0.000 C 
ATOM     13  C   UNL     1      89.336  72.457  83.665  0.00  0.00    +0.000 A 
ATOM     14  C   UNL     1      90.381  71.513  83.761  0.00  0.00    +0.000 A 
ATOM     15  C   UNL     1      90.100  70.226  84.244  0.00  0.00    +0.000 A 
ATOM     16  C   UNL     1      88.801  69.884  84.617  0.00  0.00    +0.000 A 
ATOM     17  C   UNL     1      87.772  70.817  84.557  0.00  0.00    +0.000 A 
ATOM     18  C   UNL     1      88.040  72.097  84.073  0.00  0.00    +0.000 A 
ATOM     19  C   UNL     1      91.787  71.855  83.352  0.00  0.00    +0.000 C 
ENDBRANCH  11  16
ENDBRANCH   1  11
TORSDOF 3
ENDMDL
