MODEL 1
REMARK VINA RESULT:      -4.4      0.000      0.000
REMARK  Name = *****
REMARK  4 active torsions:
REMARK  status: ('A' for Active; 'I' for Inactive)
REMARK    1  A    between atoms: C_4  and  S_7
REMARK    2  A    between atoms: S_7  and  N_8
REMARK    3  A    between atoms: N_8  and  C_9
REMARK    4  A    between atoms: N_8  and  O_16
REMARK                            x       y       z     vdW  Elec       q    Type
REMARK                         _______ _______ _______ _____ _____    ______ ____
ROOT
ATOM      1  N   UNL     1      88.867  64.464  87.077  0.00  0.00    +0.000 N 
ENDROOT
BRANCH   1   2
ATOM      2  C   UNL     1      88.893  65.882  86.973  0.00  0.00    +0.000 A 
ATOM      3  C   UNL     1      87.863  66.711  87.453  0.00  0.00    +0.000 A 
ATOM      4  C   UNL     1      87.928  68.105  87.327  0.00  0.00    +0.000 A 
ATOM      5  C   UNL     1      89.028  68.695  86.715  0.00  0.00    +0.000 A 
ATOM      6  C   UNL     1      90.063  67.904  86.229  0.00  0.00    +0.000 A 
ATOM      7  C   UNL     1      89.992  66.514  86.358  0.00  0.00    +0.000 A 
ATOM      8 CL   UNL     1      89.108  70.406  86.560  0.00  0.00    +0.000 Cl
ENDBRANCH   1   2
BRANCH   1   9
ATOM      9  O   UNL     1      89.993  63.726  86.726  0.00  0.00    +0.000 OA
ATOM     10  H   UNL     1      90.282  63.196  87.485  0.00  0.00    +0.000 HD
ENDBRANCH   1   9
BRANCH   1  11
ATOM     11  S   UNL     1      87.602  63.580  87.688  0.00  0.00    +0.000 S 
BRANCH  11  15
ATOM     12  C   UNL     1      87.890  64.435  92.195  0.00  0.00    +0.000 A 
ATOM     13  C   UNL     1      89.037  64.056  91.500  0.00  0.00    +0.000 A 
ATOM     14  C   UNL     1      88.971  63.790  90.130  0.00  0.00    +0.000 A 
ATOM     15  C   UNL     1      87.755  63.893  89.444  0.00  0.00    +0.000 A 
ATOM     16  C   UNL     1      86.610  64.283  90.151  0.00  0.00    +0.000 A 
ATOM     17  C   UNL     1      86.676  64.550  91.521  0.00  0.00    +0.000 A 
ENDBRANCH  11  15
ENDBRANCH   1  11
TORSDOF 4
ENDMDL
