MODEL 1
REMARK VINA RESULT:      -4.5      0.000      0.000
REMARK  Name = *****
REMARK  4 active torsions:
REMARK  status: ('A' for Active; 'I' for Inactive)
REMARK    1  A    between atoms: C_1  and  C_2
REMARK    2  A    between atoms: C_3  and  C_9
REMARK    3  A    between atoms: C_9  and  C_10
REMARK    4  A    between atoms: C_10  and  C_11
REMARK                            x       y       z     vdW  Elec       q    Type
REMARK                         _______ _______ _______ _____ _____    ______ ____
ROOT
ATOM      1  C   UNL     1     102.759 128.948  84.091  0.00  0.00    +0.000 C 
ATOM      2  C   UNL     1     101.360 128.585  83.657  0.00  0.00    +0.000 C 
ATOM      3  C   UNL     1     101.046 127.460  82.975  0.00  0.00    +0.000 C 
ATOM      4  C   UNL     1      99.617 127.224  82.561  0.00  0.00    +0.000 C 
ATOM      5  O   UNL     1      99.293 126.190  81.978  0.00  0.00    +0.000 OA
ATOM      6  C   UNL     1      98.605 128.318  82.805  0.00  0.00    +0.000 C 
ATOM      7  C   UNL     1      98.908 129.050  84.096  0.00  0.00    +0.000 C 
ATOM      8  C   UNL     1     100.324 129.606  84.080  0.00  0.00    +0.000 C 
ENDROOT
BRANCH   3   9
ATOM      9  C   UNL     1     102.025 126.399  82.522  0.00  0.00    +0.000 C 
BRANCH   9  10
ATOM     10  C   UNL     1     102.811 126.851  81.286  0.00  0.00    +0.000 C 
BRANCH  10  11
ATOM     11  C   UNL     1     103.538 125.699  80.562  0.00  0.00    +0.000 C 
ATOM     12  C   UNL     1     103.777 124.542  81.547  0.00  0.00    +0.000 C 
ATOM     13  C   UNL     1     104.526 123.381  80.897  0.00  0.00    +0.000 C 
ATOM     14  C   UNL     1     105.838 123.840  80.274  0.00  0.00    +0.000 C 
ATOM     15  C   UNL     1     105.615 124.980  79.287  0.00  0.00    +0.000 C 
ATOM     16  C   UNL     1     104.864 126.147  79.927  0.00  0.00    +0.000 C 
ENDBRANCH  10  11
ENDBRANCH   9  10
ENDBRANCH   3   9
TORSDOF 3
ENDMDL
