MODEL 1
REMARK VINA RESULT:      -4.6      0.000      0.000
REMARK  Name = *****
REMARK  3 active torsions:
REMARK  status: ('A' for Active; 'I' for Inactive)
REMARK    1  A    between atoms: C_5  and  S_7
REMARK    2  A    between atoms: S_7  and  C_8
REMARK    3  A    between atoms: C_8  and  C_9
REMARK                            x       y       z     vdW  Elec       q    Type
REMARK                         _______ _______ _______ _____ _____    ______ ____
ROOT
ATOM      1  C   UNL     1     103.378 126.491  81.400  0.00  0.00    +0.000 C 
ENDROOT
BRANCH   1   2
ATOM      2  C   UNL     1     103.850 125.076  81.619  0.00  0.00    +0.000 A 
ATOM      3  C   UNL     1     104.406 124.341  80.566  0.00  0.00    +0.000 A 
ATOM      4  C   UNL     1     104.865 123.041  80.749  0.00  0.00    +0.000 A 
ATOM      5  C   UNL     1     104.770 122.459  82.009  0.00  0.00    +0.000 A 
ATOM      6  C   UNL     1     104.227 123.170  83.078  0.00  0.00    +0.000 A 
ATOM      7  C   UNL     1     103.770 124.477  82.886  0.00  0.00    +0.000 A 
ATOM      8 CL   UNL     1     105.329 120.851  82.251  0.00  0.00    +0.000 Cl
ATOM      9  F   UNL     1     104.497 124.889  79.347  0.00  0.00    +0.000 F 
ENDBRANCH   1   2
BRANCH   1  10
ATOM     10  S   UNL     1     103.160 127.362  82.988  0.00  0.00    +0.000 S 
BRANCH  10  15
ATOM     11  C   UNL     1      99.445 129.061  83.566  0.00  0.00    +0.000 A 
ATOM     12  C   UNL     1      98.616 128.084  83.022  0.00  0.00    +0.000 A 
ATOM     13  C   UNL     1      99.182 126.930  82.499  0.00  0.00    +0.000 A 
ATOM     14  C   UNL     1     100.559 126.737  82.509  0.00  0.00    +0.000 A 
ATOM     15  C   UNL     1     101.407 127.712  83.050  0.00  0.00    +0.000 A 
ATOM     16  C   UNL     1     100.833 128.875  83.581  0.00  0.00    +0.000 A 
ATOM     17  F   UNL     1      98.387 125.988  81.974  0.00  0.00    +0.000 F 
ENDBRANCH  10  15
ENDBRANCH   1  10
TORSDOF 3
ENDMDL
