REMARK  Name = *****
REMARK  3 active torsions:
REMARK  status: ('A' for Active; 'I' for Inactive)
REMARK    1  A    between atoms: C_1  and  C_2
REMARK    2  A    between atoms: C_3  and  C_10
REMARK    3  A    between atoms: C_10  and  C_11
REMARK                            x       y       z     vdW  Elec       q    Type
REMARK                         _______ _______ _______ _____ _____    ______ ____
ROOT
ATOM      1  C   UNL     1       0.475   0.770   0.440  0.00  0.00    +0.000 C 
ATOM      2  C   UNL     1       1.882   1.275   0.172  0.00  0.00    +0.000 C 
ATOM      3  C   UNL     1       2.209   2.832   0.183  0.00  0.00    +0.000 C 
ATOM      4  C   UNL     1       3.074   2.524   1.389  0.00  0.00    +0.000 A 
ATOM      5  C   UNL     1       3.913   3.083   2.326  0.00  0.00    +0.000 A 
ATOM      6  C   UNL     1       4.473   2.226   3.276  0.00  0.00    +0.000 A 
ATOM      7  C   UNL     1       4.185   0.848   3.259  0.00  0.00    +0.000 A 
ATOM      8  C   UNL     1       3.331   0.311   2.292  0.00  0.00    +0.000 A 
ATOM      9  C   UNL     1       2.792   1.181   1.372  0.00  0.00    +0.000 A 
ENDROOT
BRANCH   3  10
ATOM     10  C   UNL     1       1.134   3.878   0.479  0.00  0.00    +0.000 C 
BRANCH  10  11
ATOM     11  C   UNL     1       0.164   4.017  -0.671  0.00  0.00    +0.000 A 
ATOM     12  C   UNL     1      -1.203   3.774  -0.472  0.00  0.00    +0.000 A 
ATOM     13  C   UNL     1      -2.111   3.910  -1.523  0.00  0.00    +0.000 A 
ATOM     14  C   UNL     1      -1.665   4.299  -2.784  0.00  0.00    +0.000 A 
ATOM     15  C   UNL     1      -0.313   4.559  -2.992  0.00  0.00    +0.000 A 
ATOM     16  C   UNL     1       0.596   4.425  -1.941  0.00  0.00    +0.000 A 
ENDBRANCH  10  11
ENDBRANCH   3  10
TORSDOF 2
