MODEL 1
REMARK VINA RESULT:      -4.8      0.000      0.000
REMARK  Name = *****
REMARK  3 active torsions:
REMARK  status: ('A' for Active; 'I' for Inactive)
REMARK    1  A    between atoms: C_1  and  C_2
REMARK    2  A    between atoms: C_4  and  C_8
REMARK    3  A    between atoms: N_9  and  C_10
REMARK                            x       y       z     vdW  Elec       q    Type
REMARK                         _______ _______ _______ _____ _____    ______ ____
ROOT
ATOM      1  C   UNL     1     101.881 125.953  82.291  0.00  0.00    +0.000 C 
ATOM      2  N   UNL     1     102.863 126.197  81.482  0.00  0.00    +0.000 NA
ENDROOT
BRANCH   1   6
ATOM      3  C   UNL     1     100.809 130.376  84.401  0.00  0.00    +0.000 C 
ATOM      4  C   UNL     1     100.370 129.119  83.711  0.00  0.00    +0.000 A 
ATOM      5  C   UNL     1     101.311 128.146  83.345  0.00  0.00    +0.000 A 
ATOM      6  C   UNL     1     100.903 126.990  82.674  0.00  0.00    +0.000 A 
ATOM      7  C   UNL     1      99.557 126.797  82.352  0.00  0.00    +0.000 A 
ATOM      8  C   UNL     1      98.621 127.770  82.700  0.00  0.00    +0.000 A 
ATOM      9  C   UNL     1      99.025 128.926  83.370  0.00  0.00    +0.000 A 
ENDBRANCH   1   6
BRANCH   2  10
ATOM     10  C   UNL     1     103.715 125.120  81.207  0.00  0.00    +0.000 A 
ATOM     11  C   UNL     1     104.427 125.069  80.003  0.00  0.00    +0.000 A 
ATOM     12  C   UNL     1     105.288 124.002  79.740  0.00  0.00    +0.000 A 
ATOM     13  C   UNL     1     105.440 122.997  80.689  0.00  0.00    +0.000 A 
ATOM     14  C   UNL     1     104.752 123.041  81.896  0.00  0.00    +0.000 A 
ATOM     15  C   UNL     1     103.892 124.109  82.156  0.00  0.00    +0.000 A 
ATOM     16  F   UNL     1     106.267 121.972  80.438  0.00  0.00    +0.000 F 
ENDBRANCH   2  10
TORSDOF 2
ENDMDL
