REMARK  Name = *****
REMARK  3 active torsions:
REMARK  status: ('A' for Active; 'I' for Inactive)
REMARK    1  A    between atoms: C_3  and  O_8
REMARK    2  A    between atoms: O_8  and  C_9
REMARK    3  A    between atoms: C_9  and  C_11
REMARK                            x       y       z     vdW  Elec       q    Type
REMARK                         _______ _______ _______ _____ _____    ______ ____
ROOT
ATOM      1  C   UNL     1       1.692   3.676   0.004  0.00  0.00    +0.000 C 
ATOM      2  O   UNL     1       0.612   3.541  -0.544  0.00  0.00    +0.000 OA
ENDROOT
BRANCH   1   3
ATOM      3  C   UNL     1       2.491   4.900  -0.065  0.00  0.00    +0.000 A 
ATOM      4  C   UNL     1       1.902   6.124   0.229  0.00  0.00    +0.000 A 
ATOM      5  C   UNL     1       2.642   7.303   0.151  0.00  0.00    +0.000 A 
ATOM      6  C   UNL     1       3.984   7.258  -0.233  0.00  0.00    +0.000 A 
ATOM      7  C   UNL     1       4.577   6.032  -0.536  0.00  0.00    +0.000 A 
ATOM      8  C   UNL     1       3.827   4.859  -0.453  0.00  0.00    +0.000 A 
ATOM      9  F   UNL     1       4.416   3.697  -0.771  0.00  0.00    +0.000 F 
ATOM     10  F   UNL     1       0.623   6.196   0.623  0.00  0.00    +0.000 F 
ENDBRANCH   1   3
BRANCH   1  11
ATOM     11  O   UNL     1       2.362   2.782   0.816  0.00  0.00    +0.000 OA
BRANCH  11  14
ATOM     12  C   UNL     1       1.740  -0.830   0.657  0.00  0.00    +0.000 A 
ATOM     13  C   UNL     1       2.332   0.418   0.467  0.00  0.00    +0.000 A 
ATOM     14  C   UNL     1       1.710   1.555   0.981  0.00  0.00    +0.000 A 
ATOM     15  C   UNL     1       0.527   1.468   1.713  0.00  0.00    +0.000 A 
ATOM     16  C   UNL     1      -0.055   0.216   1.896  0.00  0.00    +0.000 A 
ATOM     17  C   UNL     1       0.543  -0.931   1.371  0.00  0.00    +0.000 A 
ATOM     18 CL   UNL     1      -1.521   0.079   2.788  0.00  0.00    +0.000 Cl
ENDBRANCH  11  14
ENDBRANCH   1  11
TORSDOF 3
