MODEL 1
REMARK VINA RESULT:      -4.9      0.000      0.000
REMARK  Name = *****
REMARK  4 active torsions:
REMARK  status: ('A' for Active; 'I' for Inactive)
REMARK    1  A    between atoms: C_4  and  C_7
REMARK    2  A    between atoms: C_7  and  S_8
REMARK    3  A    between atoms: S_8  and  C_9
REMARK    4  A    between atoms: C_12  and  C_15
REMARK                            x       y       z     vdW  Elec       q    Type
REMARK                         _______ _______ _______ _____ _____    ______ ____
ROOT
ATOM      1  C   UNL     1     103.944 125.751  81.474  0.00  0.00    +0.000 A 
ATOM      2  C   UNL     1     103.843 124.984  82.638  0.00  0.00    +0.000 A 
ATOM      3  C   UNL     1     104.190 123.629  82.625  0.00  0.00    +0.000 A 
ATOM      4  C   UNL     1     104.640 123.019  81.445  0.00  0.00    +0.000 A 
ATOM      5  C   UNL     1     104.716 123.788  80.274  0.00  0.00    +0.000 A 
ATOM      6  C   UNL     1     104.368 125.142  80.290  0.00  0.00    +0.000 A 
ENDROOT
BRANCH   4   7
ATOM      7  C   UNL     1     104.990 121.551  81.424  0.00  0.00    +0.000 C 
ATOM      8  F   UNL     1     104.016 120.777  80.868  0.00  0.00    +0.000 F 
ATOM      9  F   UNL     1     106.122 121.299  80.710  0.00  0.00    +0.000 F 
ATOM     10  F   UNL     1     105.208 121.036  82.666  0.00  0.00    +0.000 F 
ENDBRANCH   4   7
BRANCH   1  11
ATOM     11  S   UNL     1     103.497 127.475  81.449  0.00  0.00    +0.000 S 
BRANCH  11  12
ATOM     12  C   UNL     1     102.767 127.635  83.112  0.00  0.00    +0.000 C 
BRANCH  12  16
ATOM     13  C   UNL     1      98.468 127.939  82.907  0.00  0.00    +0.000 A 
ATOM     14  C   UNL     1      99.114 126.818  82.386  0.00  0.00    +0.000 A 
ATOM     15  C   UNL     1     100.505 126.718  82.454  0.00  0.00    +0.000 A 
ATOM     16  C   UNL     1     101.264 127.737  83.047  0.00  0.00    +0.000 A 
ATOM     17  C   UNL     1     100.604 128.864  83.558  0.00  0.00    +0.000 A 
ATOM     18  C   UNL     1      99.213 128.961  83.491  0.00  0.00    +0.000 A 
ENDBRANCH  12  16
ENDBRANCH  11  12
ENDBRANCH   1  11
TORSDOF 4
ENDMDL
