MODEL 1
REMARK VINA RESULT:      -4.5      0.000      0.000
REMARK  Name = *****
REMARK  2 active torsions:
REMARK  status: ('A' for Active; 'I' for Inactive)
REMARK    1  A    between atoms: C_6  and  C_7
REMARK    2  A    between atoms: C_7  and  C_9
REMARK                            x       y       z     vdW  Elec       q    Type
REMARK                         _______ _______ _______ _____ _____    ______ ____
ROOT
ATOM      1  C   UNL     1      86.008  63.709  91.326  0.00  0.00    +0.000 C 
ATOM      2  C   UNL     1      87.249  64.587  91.482  0.00  0.00    +0.000 C 
ATOM      3  C   UNL     1      88.551  63.843  91.193  0.00  0.00    +0.000 C 
ATOM      4  C   UNL     1      88.961  63.838  89.717  0.00  0.00    +0.000 C 
ATOM      5  C   UNL     1      87.923  63.387  88.713  0.00  0.00    +0.000 C 
ATOM      6  C   UNL     1      87.956  63.738  87.409  0.00  0.00    +0.000 C 
ATOM      7  C   UNL     1      86.807  62.494  89.206  0.00  0.00    +0.000 C 
ATOM      8  C   UNL     1      85.692  63.280  89.896  0.00  0.00    +0.000 C 
ENDROOT
BRANCH   6   9
ATOM      9  C   UNL     1      89.031  64.551  86.766  0.00  0.00    +0.000 C 
ATOM     10  O   UNL     1      89.949  64.042  86.135  0.00  0.00    +0.000 OA
BRANCH   9  11
ATOM     11  C   UNL     1      88.909  66.034  86.847  0.00  0.00    +0.000 A 
ATOM     12  C   UNL     1      87.815  66.662  87.457  0.00  0.00    +0.000 A 
ATOM     13  C   UNL     1      87.754  68.056  87.517  0.00  0.00    +0.000 A 
ATOM     14  C   UNL     1      88.783  68.827  86.976  0.00  0.00    +0.000 A 
ATOM     15  C   UNL     1      89.881  68.207  86.382  0.00  0.00    +0.000 A 
ATOM     16  C   UNL     1      89.947  66.813  86.321  0.00  0.00    +0.000 A 
ENDBRANCH   9  11
ENDBRANCH   6   9
TORSDOF 2
ENDMDL
