MODEL 1
REMARK VINA RESULT:      -4.8      0.000      0.000
REMARK  Name = *****
REMARK  4 active torsions:
REMARK  status: ('A' for Active; 'I' for Inactive)
REMARK    1  A    between atoms: C_4  and  N_7
REMARK    2  A    between atoms: N_7  and  N_9
REMARK    3  A    between atoms: N_9  and  C_10
REMARK    4  A    between atoms: C_13  and  C_16
REMARK                            x       y       z     vdW  Elec       q    Type
REMARK                         _______ _______ _______ _____ _____    ______ ____
ROOT
ATOM      1  N   UNL     1      88.743  64.553  86.951  0.00  0.00    +0.000 N 
ATOM      2  H   UNL     1      89.314  64.084  86.300  0.00  0.00    +0.000 HD
ENDROOT
BRANCH   1   3
ATOM      3  C   UNL     1      88.830  65.953  86.906  0.00  0.00    +0.000 A 
ATOM      4  C   UNL     1      87.818  66.807  87.351  0.00  0.00    +0.000 A 
ATOM      5  C   UNL     1      87.951  68.199  87.263  0.00  0.00    +0.000 A 
ATOM      6  C   UNL     1      89.107  68.775  86.722  0.00  0.00    +0.000 A 
ATOM      7  C   UNL     1      90.117  67.927  86.255  0.00  0.00    +0.000 A 
ATOM      8  C   UNL     1      89.977  66.538  86.347  0.00  0.00    +0.000 A 
BRANCH   6   9
ATOM      9  C   UNL     1      89.240  70.273  86.606  0.00  0.00    +0.000 C 
ATOM     10  F   UNL     1      90.211  70.661  85.732  0.00  0.00    +0.000 F 
ATOM     11  F   UNL     1      88.095  70.879  86.181  0.00  0.00    +0.000 F 
ATOM     12  F   UNL     1      89.551  70.858  87.795  0.00  0.00    +0.000 F 
ENDBRANCH   6   9
ENDBRANCH   1   3
BRANCH   1  13
ATOM     13  N   UNL     1      87.967  63.700  87.782  0.00  0.00    +0.000 N 
ATOM     14  O   UNL     1      87.285  62.803  87.326  0.00  0.00    +0.000 OA
BRANCH  13  18
ATOM     15  C   UNL     1      87.901  64.342  91.965  0.00  0.00    +0.000 A 
ATOM     16  C   UNL     1      86.734  64.520  91.219  0.00  0.00    +0.000 A 
ATOM     17  C   UNL     1      86.747  64.315  89.839  0.00  0.00    +0.000 A 
ATOM     18  C   UNL     1      87.937  63.927  89.213  0.00  0.00    +0.000 A 
ATOM     19  C   UNL     1      89.111  63.761  89.956  0.00  0.00    +0.000 A 
ATOM     20  C   UNL     1      89.088  63.967  91.335  0.00  0.00    +0.000 A 
ENDBRANCH  13  18
ENDBRANCH   1  13
TORSDOF 4
ENDMDL
