MODEL 1
REMARK VINA RESULT:      -4.5      0.000      0.000
REMARK  Name = *****
REMARK  3 active torsions:
REMARK  status: ('A' for Active; 'I' for Inactive)
REMARK    1  A    between atoms: C_4  and  S_7
REMARK    2  A    between atoms: S_7  and  C_9
REMARK    3  A    between atoms: C_10  and  C_11
REMARK                            x       y       z     vdW  Elec       q    Type
REMARK                         _______ _______ _______ _____ _____    ______ ____
ROOT
ATOM      1  C   UNL     1      89.557  68.888  86.719  0.00  0.00    +0.000 C 
ATOM      2  C   UNL     1      89.251  70.184  86.890  0.00  0.00    +0.000 C 
ENDROOT
BRANCH   2   3
ATOM      3  C   UNL     1      87.903  70.772  86.917  0.00  0.00    +0.000 A 
ATOM      4  C   UNL     1      87.305  71.150  85.705  0.00  0.00    +0.000 A 
ATOM      5  C   UNL     1      86.025  71.707  85.687  0.00  0.00    +0.000 A 
ATOM      6  C   UNL     1      85.324  71.886  86.878  0.00  0.00    +0.000 A 
ATOM      7  C   UNL     1      85.902  71.506  88.089  0.00  0.00    +0.000 A 
ATOM      8  C   UNL     1      87.184  70.949  88.110  0.00  0.00    +0.000 A 
ATOM      9 CL   UNL     1      87.844  70.502  89.647  0.00  0.00    +0.000 Cl
ENDBRANCH   2   3
BRANCH   1  10
ATOM     10  S   UNL     1      88.294  67.648  86.471  0.00  0.00    +0.000 S 
ATOM     11  O   UNL     1      87.779  67.356  87.851  0.00  0.00    +0.000 OA
BRANCH  10  15
ATOM     12  C   UNL     1      90.993  64.056  85.426  0.00  0.00    +0.000 A 
ATOM     13  C   UNL     1      91.484  65.354  85.287  0.00  0.00    +0.000 A 
ATOM     14  C   UNL     1      90.672  66.446  85.600  0.00  0.00    +0.000 A 
ATOM     15  C   UNL     1      89.362  66.244  86.050  0.00  0.00    +0.000 A 
ATOM     16  C   UNL     1      88.878  64.938  86.196  0.00  0.00    +0.000 A 
ATOM     17  C   UNL     1      89.692  63.848  85.880  0.00  0.00    +0.000 A 
ENDBRANCH  10  15
ENDBRANCH   1  10
TORSDOF 3
ENDMDL
