MODEL 1
REMARK VINA RESULT:      -4.7      0.000      0.000
REMARK  Name = *****
REMARK  6 active torsions:
REMARK  status: ('A' for Active; 'I' for Inactive)
REMARK    1  A    between atoms: C_1  and  C_2
REMARK    2  A    between atoms: C_5  and  N_8
REMARK    3  A    between atoms: N_8  and  S_9
REMARK    4  A    between atoms: S_9  and  C_11
REMARK    5  A    between atoms: S_9  and  C_12
REMARK    6  A    between atoms: C_15  and  C_18
REMARK                            x       y       z     vdW  Elec       q    Type
REMARK                         _______ _______ _______ _____ _____    ______ ____
ROOT
ATOM      1  S   UNL     1      88.758  70.224  86.320  0.00  0.00    +0.000 S 
ATOM      2  O   UNL     1      89.458  70.507  87.560  0.00  0.00    +0.000 OA
ATOM      3  C   UNL     1      89.560  71.180  85.054  0.00  0.00    +0.000 C 
ENDROOT
BRANCH   1   4
ATOM      4  C   UNL     1      87.161  71.016  86.438  0.00  0.00    +0.000 A 
ATOM      5  C   UNL     1      86.576  71.217  87.690  0.00  0.00    +0.000 A 
ATOM      6  C   UNL     1      85.336  71.852  87.775  0.00  0.00    +0.000 A 
ATOM      7  C   UNL     1      84.680  72.291  86.617  0.00  0.00    +0.000 A 
ATOM      8  C   UNL     1      85.267  72.061  85.366  0.00  0.00    +0.000 A 
ATOM      9  C   UNL     1      86.508  71.428  85.273  0.00  0.00    +0.000 A 
ATOM     10  C   UNL     1      83.328  72.936  86.711  0.00  0.00    +0.000 C 
ENDBRANCH   1   4
BRANCH   1  11
ATOM     11  N   UNL     1      88.491  68.816  85.756  0.00  0.00    +0.000 NA
BRANCH  11  16
ATOM     12  C   UNL     1      88.165  63.964  88.816  0.00  0.00    +0.000 C 
ATOM     13  C   UNL     1      88.209  65.228  88.009  0.00  0.00    +0.000 A 
ATOM     14  C   UNL     1      87.297  66.260  88.256  0.00  0.00    +0.000 A 
ATOM     15  C   UNL     1      87.357  67.453  87.525  0.00  0.00    +0.000 A 
ATOM     16  C   UNL     1      88.335  67.635  86.547  0.00  0.00    +0.000 A 
ATOM     17  C   UNL     1      89.249  66.608  86.309  0.00  0.00    +0.000 A 
ATOM     18  C   UNL     1      89.196  65.414  87.036  0.00  0.00    +0.000 A 
ENDBRANCH  11  16
ENDBRANCH   1  11
TORSDOF 3
ENDMDL
