MODEL 1
REMARK VINA RESULT:      -4.6      0.000      0.000
REMARK  Name = *****
REMARK  4 active torsions:
REMARK  status: ('A' for Active; 'I' for Inactive)
REMARK    1  A    between atoms: C_1  and  C_2
REMARK    2  A    between atoms: C_2  and  C_3
REMARK    3  A    between atoms: C_2  and  S_10
REMARK    4  A    between atoms: S_10  and  C_11
REMARK                            x       y       z     vdW  Elec       q    Type
REMARK                         _______ _______ _______ _____ _____    ______ ____
ROOT
ATOM      1  C   UNL     1     104.056 127.980  80.409  0.00  0.00    +0.000 C 
ATOM      2  C   UNL     1     103.134 127.056  81.209  0.00  0.00    +0.000 C 
ENDROOT
BRANCH   2   3
ATOM      3  C   UNL     1     103.691 125.640  81.297  0.00  0.00    +0.000 A 
ATOM      4  C   UNL     1     104.272 125.002  80.186  0.00  0.00    +0.000 A 
ATOM      5  C   UNL     1     104.775 123.704  80.291  0.00  0.00    +0.000 A 
ATOM      6  C   UNL     1     104.702 123.038  81.508  0.00  0.00    +0.000 A 
ATOM      7  C   UNL     1     104.140 123.647  82.623  0.00  0.00    +0.000 A 
ATOM      8  C   UNL     1     103.637 124.946  82.519  0.00  0.00    +0.000 A 
ATOM      9  F   UNL     1     105.184 121.792  81.609  0.00  0.00    +0.000 F 
ENDBRANCH   2   3
BRANCH   2  10
ATOM     10  S   UNL     1     102.828 127.719  82.903  0.00  0.00    +0.000 S 
BRANCH  10  11
ATOM     11  C   UNL     1     101.046 127.749  82.935  0.00  0.00    +0.000 A 
ATOM     12  C   UNL     1     100.287 126.697  82.414  0.00  0.00    +0.000 A 
ATOM     13  C   UNL     1      98.892 126.744  82.457  0.00  0.00    +0.000 A 
ATOM     14  C   UNL     1      98.249 127.840  83.032  0.00  0.00    +0.000 A 
ATOM     15  C   UNL     1      98.999 128.884  83.569  0.00  0.00    +0.000 A 
ATOM     16  C   UNL     1     100.394 128.836  83.525  0.00  0.00    +0.000 A 
ENDBRANCH  10  11
ENDBRANCH   2  10
TORSDOF 3
ENDMDL
