MODEL 1
REMARK VINA RESULT:      -4.1      0.000      0.000
REMARK  Name = *****
REMARK  3 active torsions:
REMARK  status: ('A' for Active; 'I' for Inactive)
REMARK    1  A    between atoms: C_5  and  C_6
REMARK    2  A    between atoms: C_6  and  C_7
REMARK    3  A    between atoms: C_7  and  C_8
REMARK                            x       y       z     vdW  Elec       q    Type
REMARK                         _______ _______ _______ _____ _____    ______ ____
ROOT
ATOM      1  C   UNL     1      87.423  70.847  88.269  0.00  0.00    +0.000 C 
ENDROOT
BRANCH   1   2
ATOM      2  C   UNL     1      86.255  71.432  87.512  0.00  0.00    +0.000 A 
ATOM      3  C   UNL     1      86.268  71.487  86.113  0.00  0.00    +0.000 A 
ATOM      4  C   UNL     1      85.193  72.041  85.416  0.00  0.00    +0.000 A 
ATOM      5  C   UNL     1      84.098  72.551  86.112  0.00  0.00    +0.000 A 
ATOM      6  C   UNL     1      84.078  72.507  87.506  0.00  0.00    +0.000 A 
ATOM      7  C   UNL     1      85.153  71.953  88.203  0.00  0.00    +0.000 A 
ENDBRANCH   1   2
BRANCH   1   8
ATOM      8  C   UNL     1      87.885  69.520  87.654  0.00  0.00    +0.000 C 
BRANCH   8  13
ATOM      9  C   UNL     1      89.730  68.319  86.387  0.00  0.00    +0.000 C 
ATOM     10  C   UNL     1      89.781  68.891  85.010  0.00  0.00    +0.000 C 
ATOM     11  C   UNL     1      89.803  70.227  85.029  0.00  0.00    +0.000 C 
ATOM     12  C   UNL     1      89.766  70.763  86.422  0.00  0.00    +0.000 C 
ATOM     13  C   UNL     1      89.379  69.534  87.268  0.00  0.00    +0.000 C 
ENDBRANCH   8  13
ENDBRANCH   1   8
TORSDOF 3
ENDMDL
