MODEL 1
REMARK VINA RESULT:      -4.8      0.000      0.000
REMARK  Name = *****
REMARK  2 active torsions:
REMARK  status: ('A' for Active; 'I' for Inactive)
REMARK    1  A    between atoms: C_2  and  C_11
REMARK    2  A    between atoms: C_3  and  C_4
REMARK                            x       y       z     vdW  Elec       q    Type
REMARK                         _______ _______ _______ _____ _____    ______ ____
ROOT
ATOM      1  C   UNL     1     103.571 126.384  80.753  0.00  0.00    +0.000 C 
ATOM      2  C   UNL     1     103.768 125.531  81.979  0.00  0.00    +0.000 C 
ATOM      3  C   UNL     1     102.367 125.935  81.539  0.00  0.00    +0.000 C 
ENDROOT
BRANCH   3   4
ATOM      4  C   UNL     1     101.581 126.929  82.361  0.00  0.00    +0.000 A 
ATOM      5  C   UNL     1     102.208 128.028  82.972  0.00  0.00    +0.000 A 
ATOM      6  C   UNL     1     101.483 128.959  83.721  0.00  0.00    +0.000 A 
ATOM      7  C   UNL     1     100.107 128.806  83.864  0.00  0.00    +0.000 A 
ATOM      8  C   UNL     1      99.455 127.736  83.262  0.00  0.00    +0.000 A 
ATOM      9  C   UNL     1     100.189 126.809  82.515  0.00  0.00    +0.000 A 
ATOM     10 BR   UNL     1      99.121 130.062  84.874  0.00  0.00    +0.000 Br
ENDBRANCH   3   4
BRANCH   2  11
ATOM     11  C   UNL     1     104.212 124.093  81.842  0.00  0.00    +0.000 A 
ATOM     12  C   UNL     1     104.608 123.568  80.600  0.00  0.00    +0.000 A 
ATOM     13  C   UNL     1     105.036 122.244  80.472  0.00  0.00    +0.000 A 
ATOM     14  C   UNL     1     105.084 121.417  81.590  0.00  0.00    +0.000 A 
ATOM     15  C   UNL     1     104.707 121.915  82.834  0.00  0.00    +0.000 A 
ATOM     16  C   UNL     1     104.280 123.240  82.955  0.00  0.00    +0.000 A 
ENDBRANCH   2  11
TORSDOF 2
ENDMDL
