MODEL 1
REMARK VINA RESULT:      -4.6      0.000      0.000
REMARK  Name = *****
REMARK  3 active torsions:
REMARK  status: ('A' for Active; 'I' for Inactive)
REMARK    1  A    between atoms: C_7  and  C_8
REMARK    2  A    between atoms: C_8  and  C_9
REMARK    3  A    between atoms: C_9  and  C_10
REMARK                            x       y       z     vdW  Elec       q    Type
REMARK                         _______ _______ _______ _____ _____    ______ ____
ROOT
ATOM      1  C   UNL     1      97.918 116.593  78.781  0.00  0.00    +0.000 C 
ENDROOT
BRANCH   1   8
ATOM      2  C   UNL     1      96.730 116.463  76.051  0.00  0.00    +0.000 C 
ATOM      3  C   UNL     1      96.673 115.389  76.855  0.00  0.00    +0.000 C 
ATOM      4  C   UNL     1      96.016 114.112  76.377  0.00  0.00    +0.000 C 
ATOM      5  C   UNL     1      94.882 113.711  77.318  0.00  0.00    +0.000 C 
ATOM      6  C   UNL     1      95.367 113.609  78.761  0.00  0.00    +0.000 C 
ATOM      7  C   UNL     1      96.062 114.892  79.224  0.00  0.00    +0.000 C 
ATOM      8  C   UNL     1      97.212 115.310  78.284  0.00  0.00    +0.000 C 
ENDBRANCH   1   8
BRANCH   1   9
ATOM      9  C   UNL     1      96.988 117.556  79.528  0.00  0.00    +0.000 C 
BRANCH   9  10
ATOM     10  C   UNL     1      97.543 117.923  80.883  0.00  0.00    +0.000 A 
ATOM     11  C   UNL     1      97.232 117.150  82.010  0.00  0.00    +0.000 A 
ATOM     12  C   UNL     1      97.730 117.498  83.266  0.00  0.00    +0.000 A 
ATOM     13  C   UNL     1      98.541 118.624  83.408  0.00  0.00    +0.000 A 
ATOM     14  C   UNL     1      98.850 119.403  82.296  0.00  0.00    +0.000 A 
ATOM     15  C   UNL     1      98.352 119.056  81.038  0.00  0.00    +0.000 A 
ENDBRANCH   9  10
ENDBRANCH   1   9
TORSDOF 3
ENDMDL
