MODEL 1
REMARK VINA RESULT:      -4.7      0.000      0.000
REMARK  Name = *****
REMARK  3 active torsions:
REMARK  status: ('A' for Active; 'I' for Inactive)
REMARK    1  A    between atoms: C_1  and  C_2
REMARK    2  A    between atoms: C_2  and  C_10
REMARK    3  A    between atoms: N_3  and  C_4
REMARK                            x       y       z     vdW  Elec       q    Type
REMARK                         _______ _______ _______ _____ _____    ______ ____
ROOT
ATOM      1  C   UNL     1     103.185 125.319  84.114  0.00  0.00    +0.000 C 
ATOM      2  C   UNL     1     102.851 125.419  82.643  0.00  0.00    +0.000 C 
ATOM      3  N   UNL     1     101.859 126.084  82.153  0.00  0.00    +0.000 NA
ENDROOT
BRANCH   2   4
ATOM      4  C   UNL     1     103.769 124.745  81.690  0.00  0.00    +0.000 A 
ATOM      5  C   UNL     1     104.212 123.459  82.034  0.00  0.00    +0.000 A 
ATOM      6  C   UNL     1     105.064 122.758  81.182  0.00  0.00    +0.000 A 
ATOM      7  C   UNL     1     105.487 123.340  79.988  0.00  0.00    +0.000 A 
ATOM      8  C   UNL     1     105.065 124.628  79.651  0.00  0.00    +0.000 A 
ATOM      9  C   UNL     1     104.210 125.338  80.502  0.00  0.00    +0.000 A 
ATOM     10 CL   UNL     1     103.796 126.952  80.047  0.00  0.00    +0.000 Cl
ENDBRANCH   2   4
BRANCH   3  11
ATOM     11  C   UNL     1     100.916 126.783  83.025  0.00  0.00    +0.000 C 
ATOM     12  C   UNL     1      99.543 126.760  82.338  0.00  0.00    +0.000 C 
ATOM     13  C   UNL     1      98.516 127.588  83.107  0.00  0.00    +0.000 C 
ATOM     14  C   UNL     1      98.999 129.019  83.324  0.00  0.00    +0.000 C 
ATOM     15  C   UNL     1     100.370 129.055  83.992  0.00  0.00    +0.000 C 
ATOM     16  C   UNL     1     101.394 128.226  83.220  0.00  0.00    +0.000 C 
ENDBRANCH   3  11
TORSDOF 2
ENDMDL
