MODEL 1
REMARK VINA RESULT:      -4.3      0.000      0.000
REMARK  Name = *****
REMARK  6 active torsions:
REMARK  status: ('A' for Active; 'I' for Inactive)
REMARK    1  A    between atoms: C_1  and  O_2
REMARK    2  A    between atoms: O_2  and  C_3
REMARK    3  A    between atoms: C_3  and  C_13
REMARK    4  A    between atoms: C_4  and  C_5
REMARK    5  A    between atoms: C_4  and  O_11
REMARK    6  A    between atoms: O_11  and  C_12
REMARK                            x       y       z     vdW  Elec       q    Type
REMARK                         _______ _______ _______ _____ _____    ______ ____
ROOT
ATOM      1  C   UNL     1     103.179 126.270  81.600  0.00  0.00    +0.000 C 
ATOM      2  C   UNL     1     102.313 126.177  82.635  0.00  0.00    +0.000 C 
ENDROOT
BRANCH   2   3
ATOM      3  C   UNL     1     101.170 127.101  82.822  0.00  0.00    +0.000 A 
ATOM      4  C   UNL     1      99.884 126.708  82.418  0.00  0.00    +0.000 A 
ATOM      5  C   UNL     1      98.788 127.554  82.605  0.00  0.00    +0.000 A 
ATOM      6  C   UNL     1      98.963 128.799  83.203  0.00  0.00    +0.000 A 
ATOM      7  C   UNL     1     100.231 129.199  83.618  0.00  0.00    +0.000 A 
ATOM      8  C   UNL     1     101.328 128.353  83.432  0.00  0.00    +0.000 A 
ENDBRANCH   2   3
BRANCH   1   9
ATOM      9  C   UNL     1     104.321 125.345  81.415  0.00  0.00    +0.000 A 
ATOM     10  C   UNL     1     105.441 125.380  82.258  0.00  0.00    +0.000 A 
ATOM     11  C   UNL     1     106.498 124.484  82.078  0.00  0.00    +0.000 A 
ATOM     12  C   UNL     1     106.442 123.537  81.056  0.00  0.00    +0.000 A 
ATOM     13  C   UNL     1     105.332 123.483  80.217  0.00  0.00    +0.000 A 
ATOM     14  C   UNL     1     104.276 124.379  80.398  0.00  0.00    +0.000 A 
ENDBRANCH   1   9
BRANCH   1  16
ATOM     15  C   UNL     1     104.157 128.275  80.981  0.00  0.00    +0.000 C 
ATOM     16  O   UNL     1     103.133 127.323  80.696  0.00  0.00    +0.000 OA
ENDBRANCH   1  16
BRANCH   2  17
ATOM     17  O   UNL     1     102.359 125.124  83.539  0.00  0.00    +0.000 OA
ATOM     18  C   UNL     1     102.783 125.583  84.823  0.00  0.00    +0.000 C 
ENDBRANCH   2  17
TORSDOF 4
ENDMDL
