REMARK  Name = *****
REMARK  4 active torsions:
REMARK  status: ('A' for Active; 'I' for Inactive)
REMARK    1  A    between atoms: C_1  and  C_2
REMARK    2  A    between atoms: C_2  and  C_3
REMARK    3  A    between atoms: C_2  and  C_12
REMARK    4  A    between atoms: C_4  and  C_5
REMARK                            x       y       z     vdW  Elec       q    Type
REMARK                         _______ _______ _______ _____ _____    ______ ____
ROOT
ATOM      1  C   UNL     1       3.008   1.493   0.039  0.00  0.00    +0.000 C 
ATOM      2  C   UNL     1       3.775   2.013  -0.931  0.00  0.00    +0.000 C 
ATOM      3  F   UNL     1       4.041   1.252  -2.019  0.00  0.00    +0.000 F 
ENDROOT
BRANCH   2   4
ATOM      4  C   UNL     1       4.324   3.381  -0.938  0.00  0.00    +0.000 A 
ATOM      5  C   UNL     1       4.591   4.101   0.236  0.00  0.00    +0.000 A 
ATOM      6  C   UNL     1       5.126   5.391   0.178  0.00  0.00    +0.000 A 
ATOM      7  C   UNL     1       5.409   5.976  -1.054  0.00  0.00    +0.000 A 
ATOM      8  C   UNL     1       5.164   5.269  -2.228  0.00  0.00    +0.000 A 
ATOM      9  C   UNL     1       4.630   3.979  -2.169  0.00  0.00    +0.000 A 
ENDBRANCH   2   4
BRANCH   1  11
ATOM     10  C   UNL     1       0.925   0.123  -0.092  0.00  0.00    +0.000 C 
ATOM     11  C   UNL     1       2.455   0.088   0.011  0.00  0.00    +0.000 C 
BRANCH  11  12
ATOM     12  C   UNL     1       2.957  -0.713   1.205  0.00  0.00    +0.000 A 
ATOM     13  C   UNL     1       4.068  -1.558   1.045  0.00  0.00    +0.000 A 
ATOM     14  C   UNL     1       4.570  -2.292   2.122  0.00  0.00    +0.000 A 
ATOM     15  C   UNL     1       3.975  -2.185   3.376  0.00  0.00    +0.000 A 
ATOM     16  C   UNL     1       2.883  -1.341   3.556  0.00  0.00    +0.000 A 
ATOM     17  C   UNL     1       2.379  -0.606   2.480  0.00  0.00    +0.000 A 
ENDBRANCH  11  12
ENDBRANCH   1  11
TORSDOF 3
