REMARK  Name = *****
REMARK  3 active torsions:
REMARK  status: ('A' for Active; 'I' for Inactive)
REMARK    1  A    between atoms: C_5  and  O_7
REMARK    2  A    between atoms: O_7  and  C_8
REMARK    3  A    between atoms: C_8  and  C_10
REMARK                            x       y       z     vdW  Elec       q    Type
REMARK                         _______ _______ _______ _____ _____    ______ ____
ROOT
ATOM      1  C   UNL     1      -2.965  -2.350  -0.409  0.00  0.00    +0.000 C 
ATOM      2  O   UNL     1      -3.471  -2.062   0.664  0.00  0.00    +0.000 OA
ENDROOT
BRANCH   1   3
ATOM      3  C   UNL     1      -3.645  -3.178  -1.442  0.00  0.00    +0.000 A 
ATOM      4  C   UNL     1      -4.914  -3.695  -1.145  0.00  0.00    +0.000 A 
ATOM      5  C   UNL     1      -5.593  -4.477  -2.082  0.00  0.00    +0.000 A 
ATOM      6  C   UNL     1      -5.009  -4.747  -3.319  0.00  0.00    +0.000 A 
ATOM      7  C   UNL     1      -3.748  -4.235  -3.623  0.00  0.00    +0.000 A 
ATOM      8  C   UNL     1      -3.065  -3.453  -2.688  0.00  0.00    +0.000 A 
ENDBRANCH   1   3
BRANCH   1   9
ATOM      9  O   UNL     1      -1.732  -1.981  -0.833  0.00  0.00    +0.000 OA
BRANCH   9  14
ATOM     10  C   UNL     1      -0.387   1.247   0.546  0.00  0.00    +0.000 C 
ATOM     11  C   UNL     1       0.971   1.094  -0.144  0.00  0.00    +0.000 C 
ATOM     12  C   UNL     1       1.347  -0.339  -0.387  0.00  0.00    +0.000 C 
ATOM     13  C   UNL     1       0.475  -1.353  -0.274  0.00  0.00    +0.000 C 
ATOM     14  C   UNL     1      -0.977  -1.169   0.080  0.00  0.00    +0.000 C 
ATOM     15  C   UNL     1      -1.421   0.296  -0.049  0.00  0.00    +0.000 C 
ENDBRANCH   9  14
ENDBRANCH   1   9
TORSDOF 3
