MODEL 1
REMARK VINA RESULT:      -5.0      0.000      0.000
REMARK  Name = *****
REMARK  2 active torsions:
REMARK  status: ('A' for Active; 'I' for Inactive)
REMARK    1  A    between atoms: C_1  and  C_2
REMARK    2  A    between atoms: C_11  and  C_13
REMARK                            x       y       z     vdW  Elec       q    Type
REMARK                         _______ _______ _______ _____ _____    ______ ____
ROOT
ATOM      1  C   UNL     1      86.856  70.898  87.509  0.00  0.00    +0.000 C 
ATOM      2  C   UNL     1      87.810  69.783  87.921  0.00  0.00    +0.000 C 
ATOM      3  C   UNL     1      89.273  70.136  87.627  0.00  0.00    +0.000 C 
ATOM      4  C   UNL     1      89.596  69.980  86.169  0.00  0.00    +0.000 A 
ATOM      5  C   UNL     1      89.967  71.078  85.381  0.00  0.00    +0.000 A 
ATOM      6  C   UNL     1      90.246  70.902  84.026  0.00  0.00    +0.000 A 
ATOM      7  C   UNL     1      90.161  69.635  83.456  0.00  0.00    +0.000 A 
ATOM      8  C   UNL     1      89.797  68.540  84.242  0.00  0.00    +0.000 A 
ATOM      9  C   UNL     1      89.502  68.702  85.598  0.00  0.00    +0.000 A 
ATOM     10  N   UNL     1      89.195  67.565  86.358  0.00  0.00    +0.000 NA
ATOM     11  C   UNL     1      88.174  67.548  87.154  0.00  0.00    +0.000 C 
ATOM     12  O   UNL     1      87.309  68.566  87.346  0.00  0.00    +0.000 OA
ATOM     13  F   UNL     1      87.686  69.634  89.275  0.00  0.00    +0.000 F 
ENDROOT
BRANCH  11  14
ATOM     14  C   UNL     1      87.763  66.335  87.910  0.00  0.00    +0.000 A 
ATOM     15  C   UNL     1      88.531  65.168  87.787  0.00  0.00    +0.000 A 
ATOM     16  C   UNL     1      88.179  64.012  88.485  0.00  0.00    +0.000 A 
ATOM     17  C   UNL     1      87.056  64.012  89.312  0.00  0.00    +0.000 A 
ATOM     18  C   UNL     1      86.286  65.167  89.442  0.00  0.00    +0.000 A 
ATOM     19  C   UNL     1      86.637  66.325  88.745  0.00  0.00    +0.000 A 
ENDBRANCH  11  14
TORSDOF 1
ENDMDL
