MODEL 1
REMARK VINA RESULT:      -4.3      0.000      0.000
REMARK  Name = *****
REMARK  4 active torsions:
REMARK  status: ('A' for Active; 'I' for Inactive)
REMARK    1  A    between atoms: C_1  and  C_2
REMARK    2  A    between atoms: C_7  and  C_9
REMARK    3  A    between atoms: C_9  and  C_10
REMARK    4  A    between atoms: C_10  and  C_11
REMARK                            x       y       z     vdW  Elec       q    Type
REMARK                         _______ _______ _______ _____ _____    ______ ____
ROOT
ATOM      1  C   UNL     1      85.214  71.882  87.003  0.00  0.00    +0.000 C 
ATOM      2  C   UNL     1      86.630  71.306  87.033  0.00  0.00    +0.000 C 
ATOM      3  C   UNL     1      87.175  71.201  85.598  0.00  0.00    +0.000 C 
ATOM      4  C   UNL     1      88.659  70.970  85.480  0.00  0.00    +0.000 C 
ATOM      5  C   UNL     1      89.470  70.490  86.433  0.00  0.00    +0.000 C 
ATOM      6  C   UNL     1      89.043  69.994  87.786  0.00  0.00    +0.000 C 
ATOM      7  C   UNL     1      87.696  69.243  87.844  0.00  0.00    +0.000 C 
ATOM      8  O   UNL     1      86.521  70.051  87.704  0.00  0.00    +0.000 OA
ENDROOT
BRANCH   7   9
ATOM      9  C   UNL     1      87.564  68.031  86.904  0.00  0.00    +0.000 C 
BRANCH   9  10
ATOM     10  C   UNL     1      87.958  66.703  87.554  0.00  0.00    +0.000 C 
BRANCH  10  11
ATOM     11  C   UNL     1      89.044  66.000  86.778  0.00  0.00    +0.000 A 
ATOM     12  C   UNL     1      90.114  66.727  86.240  0.00  0.00    +0.000 A 
ATOM     13  C   UNL     1      91.113  66.080  85.511  0.00  0.00    +0.000 A 
ATOM     14  C   UNL     1      91.049  64.703  85.309  0.00  0.00    +0.000 A 
ATOM     15  C   UNL     1      89.985  63.972  85.833  0.00  0.00    +0.000 A 
ATOM     16  C   UNL     1      88.985  64.617  86.563  0.00  0.00    +0.000 A 
ENDBRANCH  10  11
ENDBRANCH   9  10
ENDBRANCH   7   9
TORSDOF 3
ENDMDL
