MODEL 1
REMARK VINA RESULT:      -4.3      0.000      0.000
REMARK  Name = *****
REMARK  4 active torsions:
REMARK  status: ('A' for Active; 'I' for Inactive)
REMARK    1  A    between atoms: C_1  and  C_2
REMARK    2  A    between atoms: C_3  and  O_9
REMARK    3  A    between atoms: O_9  and  C_10
REMARK    4  A    between atoms: C_10  and  C_11
REMARK                            x       y       z     vdW  Elec       q    Type
REMARK                         _______ _______ _______ _____ _____    ______ ____
ROOT
ATOM      1  C   UNL     1     103.601 127.351  80.045  0.00  0.00    +0.000 C 
ATOM      2  C   UNL     1     104.102 126.002  80.475  0.00  0.00    +0.000 A 
ATOM      3  C   UNL     1     103.792 125.474  81.740  0.00  0.00    +0.000 A 
ATOM      4  C   UNL     1     104.311 124.232  82.137  0.00  0.00    +0.000 A 
ATOM      5  C   UNL     1     105.084 123.484  81.249  0.00  0.00    +0.000 A 
ATOM      6  C   UNL     1     105.354 123.978  79.974  0.00  0.00    +0.000 A 
ATOM      7  C   UNL     1     104.868 125.230  79.590  0.00  0.00    +0.000 A 
ATOM      8 CL   UNL     1     104.028 123.593  83.716  0.00  0.00    +0.000 Cl
ENDROOT
BRANCH   3   9
ATOM      9  O   UNL     1     103.046 126.231  82.609  0.00  0.00    +0.000 OA
BRANCH   9  10
ATOM     10  C   UNL     1     101.668 125.841  82.557  0.00  0.00    +0.000 C 
BRANCH  10  11
ATOM     11  C   UNL     1     100.828 127.059  82.847  0.00  0.00    +0.000 A 
ATOM     12  C   UNL     1     101.390 128.191  83.451  0.00  0.00    +0.000 A 
ATOM     13  C   UNL     1     100.602 129.309  83.730  0.00  0.00    +0.000 A 
ATOM     14  C   UNL     1      99.245 129.303  83.416  0.00  0.00    +0.000 A 
ATOM     15  C   UNL     1      98.671 128.177  82.829  0.00  0.00    +0.000 A 
ATOM     16  C   UNL     1      99.457 127.057  82.551  0.00  0.00    +0.000 A 
ENDBRANCH  10  11
ENDBRANCH   9  10
ENDBRANCH   3   9
TORSDOF 3
ENDMDL
