REMARK  Name = *****
REMARK  3 active torsions:
REMARK  status: ('A' for Active; 'I' for Inactive)
REMARK    1  A    between atoms: C_4  and  C_7
REMARK    2  A    between atoms: C_7  and  C_8
REMARK    3  A    between atoms: C_8  and  C_9
REMARK                            x       y       z     vdW  Elec       q    Type
REMARK                         _______ _______ _______ _____ _____    ______ ____
ROOT
ATOM      1  C   UNL     1      -3.627  -0.857  -0.499  0.00  0.00    +0.000 C 
ATOM      2 CL   UNL     1      -3.309  -1.983  -1.864  0.00  0.00    +0.000 Cl
ENDROOT
BRANCH   1   3
ATOM      3  C   UNL     1      -5.113  -0.548  -0.450  0.00  0.00    +0.000 A 
ATOM      4  C   UNL     1      -5.753   0.169  -1.475  0.00  0.00    +0.000 A 
ATOM      5  C   UNL     1      -7.118   0.450  -1.403  0.00  0.00    +0.000 A 
ATOM      6  C   UNL     1      -7.863   0.019  -0.308  0.00  0.00    +0.000 A 
ATOM      7  C   UNL     1      -7.245  -0.697   0.714  0.00  0.00    +0.000 A 
ATOM      8  C   UNL     1      -5.880  -0.981   0.644  0.00  0.00    +0.000 A 
ENDBRANCH   1   3
BRANCH   1   9
ATOM      9  C   UNL     1      -2.770   0.418  -0.614  0.00  0.00    +0.000 C 
BRANCH   9  13
ATOM     10  C   UNL     1       1.393  -0.251   0.310  0.00  0.00    +0.000 A 
ATOM     11  C   UNL     1       0.968  -0.235  -1.017  0.00  0.00    +0.000 A 
ATOM     12  C   UNL     1      -0.377  -0.015  -1.318  0.00  0.00    +0.000 A 
ATOM     13  C   UNL     1      -1.309   0.193  -0.293  0.00  0.00    +0.000 A 
ATOM     14  C   UNL     1      -0.871   0.174   1.039  0.00  0.00    +0.000 A 
ATOM     15  C   UNL     1       0.474  -0.046   1.338  0.00  0.00    +0.000 A 
ENDBRANCH   9  13
ENDBRANCH   1   9
TORSDOF 3
