REMARK  Name = *****
REMARK  4 active torsions:
REMARK  status: ('A' for Active; 'I' for Inactive)
REMARK    1  A    between atoms: C_1  and  C_2
REMARK    2  A    between atoms: C_3  and  O_9
REMARK    3  A    between atoms: O_9  and  C_10
REMARK    4  A    between atoms: C_10  and  C_12
REMARK                            x       y       z     vdW  Elec       q    Type
REMARK                         _______ _______ _______ _____ _____    ______ ____
ROOT
ATOM      1  O   UNL     1      -3.365  -1.201  -0.632  0.00  0.00    +0.000 OA
ENDROOT
BRANCH   1   4
ATOM      2  C   UNL     1      -2.871   1.508   0.123  0.00  0.00    +0.000 C 
ATOM      3  C   UNL     1      -1.769   0.501  -0.018  0.00  0.00    +0.000 A 
ATOM      4  C   UNL     1      -2.043  -0.829  -0.362  0.00  0.00    +0.000 A 
ATOM      5  C   UNL     1      -1.022  -1.770  -0.526  0.00  0.00    +0.000 A 
ATOM      6  C   UNL     1       0.300  -1.390  -0.303  0.00  0.00    +0.000 A 
ATOM      7  C   UNL     1       0.588  -0.076   0.064  0.00  0.00    +0.000 A 
ATOM      8  C   UNL     1      -0.434   0.867   0.203  0.00  0.00    +0.000 A 
ATOM      9 CL   UNL     1       2.222   0.393   0.338  0.00  0.00    +0.000 Cl
ENDBRANCH   1   4
BRANCH   1  10
ATOM     10  C   UNL     1      -3.922  -2.016   0.334  0.00  0.00    +0.000 C 
ATOM     11  O   UNL     1      -3.438  -2.368   1.398  0.00  0.00    +0.000 OA
BRANCH  10  12
ATOM     12  C   UNL     1      -5.318  -2.301  -0.045  0.00  0.00    +0.000 A 
ATOM     13  C   UNL     1      -6.303  -2.046   0.922  0.00  0.00    +0.000 A 
ATOM     14  C   UNL     1      -7.647  -2.288   0.635  0.00  0.00    +0.000 A 
ATOM     15  C   UNL     1      -8.011  -2.791  -0.613  0.00  0.00    +0.000 A 
ATOM     16  C   UNL     1      -7.031  -3.067  -1.569  0.00  0.00    +0.000 A 
ATOM     17  C   UNL     1      -5.681  -2.831  -1.288  0.00  0.00    +0.000 A 
ATOM     18 CL   UNL     1      -4.528  -3.278  -2.494  0.00  0.00    +0.000 Cl
ENDBRANCH  10  12
ENDBRANCH   1  10
TORSDOF 3
