MODEL 1
REMARK VINA RESULT:      -5.0      0.000      0.000
REMARK  Name = *****
REMARK  4 active torsions:
REMARK  status: ('A' for Active; 'I' for Inactive)
REMARK    1  A    between atoms: C_1  and  C_2
REMARK    2  A    between atoms: C_4  and  N_8
REMARK    3  A    between atoms: C_9  and  C_10
REMARK    4  A    between atoms: C_9  and  C_11
REMARK                            x       y       z     vdW  Elec       q    Type
REMARK                         _______ _______ _______ _____ _____    ______ ____
ROOT
ATOM      1  N   UNL     1     101.923 125.778  82.618  0.00  0.00    +0.000 NA
ATOM      2  C   UNL     1     102.856 125.871  81.714  0.00  0.00    +0.000 C 
ATOM      3  C   UNL     1     103.062 127.087  80.828  0.00  0.00    +0.000 C 
ENDROOT
BRANCH   1   7
ATOM      4  C   UNL     1     101.012 130.233  84.569  0.00  0.00    +0.000 C 
ATOM      5  C   UNL     1     100.570 129.041  83.776  0.00  0.00    +0.000 A 
ATOM      6  C   UNL     1     101.451 127.975  83.548  0.00  0.00    +0.000 A 
ATOM      7  C   UNL     1     101.042 126.845  82.832  0.00  0.00    +0.000 A 
ATOM      8  C   UNL     1      99.723 126.763  82.383  0.00  0.00    +0.000 A 
ATOM      9  C   UNL     1      98.831 127.810  82.615  0.00  0.00    +0.000 A 
ATOM     10  C   UNL     1      99.253 128.943  83.311  0.00  0.00    +0.000 A 
ENDBRANCH   1   7
BRANCH   2  11
ATOM     11  C   UNL     1     103.792 124.715  81.549  0.00  0.00    +0.000 A 
ATOM     12  C   UNL     1     104.084 123.914  82.661  0.00  0.00    +0.000 A 
ATOM     13  C   UNL     1     104.957 122.830  82.542  0.00  0.00    +0.000 A 
ATOM     14  C   UNL     1     105.549 122.552  81.312  0.00  0.00    +0.000 A 
ATOM     15  C   UNL     1     105.277 123.351  80.202  0.00  0.00    +0.000 A 
ATOM     16  C   UNL     1     104.402 124.435  80.319  0.00  0.00    +0.000 A 
ATOM     17 CL   UNL     1     106.627 121.220  81.161  0.00  0.00    +0.000 Cl
ENDBRANCH   2  11
TORSDOF 2
ENDMDL
