REMARK  Name = *****
REMARK  3 active torsions:
REMARK  status: ('A' for Active; 'I' for Inactive)
REMARK    1  A    between atoms: C_1  and  C_2
REMARK    2  A    between atoms: C_2  and  C_11
REMARK    3  A    between atoms: C_4  and  C_5
REMARK                            x       y       z     vdW  Elec       q    Type
REMARK                         _______ _______ _______ _____ _____    ______ ____
ROOT
ATOM      1  C   UNL     1       0.875   0.142  -0.119  0.00  0.00    +0.000 C 
ATOM      2  C   UNL     1       2.354  -0.168   0.035  0.00  0.00    +0.000 C 
ATOM      3  C   UNL     1       3.272   0.426  -1.000  0.00  0.00    +0.000 C 
ATOM      4  C   UNL     1       3.059  -1.074  -1.010  0.00  0.00    +0.000 C 
ATOM      5 CL   UNL     1       2.054  -1.732  -2.330  0.00  0.00    +0.000 Cl
ENDROOT
BRANCH   2   6
ATOM      6  C   UNL     1       2.783  -0.210   1.499  0.00  0.00    +0.000 A 
ATOM      7  C   UNL     1       2.630  -1.378   2.268  0.00  0.00    +0.000 A 
ATOM      8  C   UNL     1       3.007  -1.421   3.613  0.00  0.00    +0.000 A 
ATOM      9  C   UNL     1       3.535  -0.288   4.224  0.00  0.00    +0.000 A 
ATOM     10  C   UNL     1       3.679   0.887   3.493  0.00  0.00    +0.000 A 
ATOM     11  C   UNL     1       3.302   0.924   2.148  0.00  0.00    +0.000 A 
ENDBRANCH   2   6
BRANCH   4  12
ATOM     12  C   UNL     1       4.277  -1.956  -0.664  0.00  0.00    +0.000 A 
ATOM     13  C   UNL     1       5.341  -1.665   0.172  0.00  0.00    +0.000 A 
ATOM     14  C   UNL     1       6.204  -2.788   0.153  0.00  0.00    +0.000 A 
ATOM     15  C   UNL     1       5.627  -3.695  -0.700  0.00  0.00    +0.000 A 
ATOM     16  O   UNL     1       4.469  -3.202  -1.202  0.00  0.00    +0.000 OA
ENDBRANCH   4  12
TORSDOF 2
