MODEL 1
REMARK VINA RESULT:      -4.6      0.000      0.000
REMARK  Name = *****
REMARK  2 active torsions:
REMARK  status: ('A' for Active; 'I' for Inactive)
REMARK    1  A    between atoms: C_4  and  C_7
REMARK    2  A    between atoms: C_8  and  C_11
REMARK                            x       y       z     vdW  Elec       q    Type
REMARK                         _______ _______ _______ _____ _____    ______ ____
ROOT
ATOM      1  C   UNL     1     102.744 126.536  83.055  0.00  0.00    +0.000 C 
ATOM      2  C   UNL     1     102.828 125.150  82.454  0.00  0.00    +0.000 C 
ATOM      3  N   UNL     1     103.233 124.733  83.793  0.00  0.00    +0.000 NA
ATOM      4  N   UNL     1     103.033 125.863  84.318  0.00  0.00    +0.000 NA
ENDROOT
BRANCH   1   8
ATOM      5  C   UNL     1      98.829 128.612  83.015  0.00  0.00    +0.000 A 
ATOM      6  C   UNL     1      99.936 129.240  83.576  0.00  0.00    +0.000 A 
ATOM      7  C   UNL     1     101.175 128.594  83.592  0.00  0.00    +0.000 A 
ATOM      8  C   UNL     1     101.356 127.301  83.055  0.00  0.00    +0.000 A 
ATOM      9  C   UNL     1     100.208 126.701  82.491  0.00  0.00    +0.000 A 
ATOM     10  C   UNL     1      98.965 127.341  82.470  0.00  0.00    +0.000 A 
ENDBRANCH   1   8
BRANCH   2  11
ATOM     11  C   UNL     1     103.928 124.831  81.359  0.00  0.00    +0.000 A 
ATOM     12  C   UNL     1     104.442 125.801  80.472  0.00  0.00    +0.000 A 
ATOM     13  C   UNL     1     105.399 125.491  79.500  0.00  0.00    +0.000 A 
ATOM     14  C   UNL     1     105.875 124.190  79.383  0.00  0.00    +0.000 A 
ATOM     15  C   UNL     1     105.395 123.204  80.236  0.00  0.00    +0.000 A 
ATOM     16  C   UNL     1     104.438 123.523  81.206  0.00  0.00    +0.000 A 
ENDBRANCH   2  11
TORSDOF 2
ENDMDL
