MODEL 1
REMARK VINA RESULT:      -4.9      0.000      0.000
REMARK  Name = *****
REMARK  5 active torsions:
REMARK  status: ('A' for Active; 'I' for Inactive)
REMARK    1  A    between atoms: C_1  and  C_2
REMARK    2  A    between atoms: C_4  and  C_9
REMARK    3  A    between atoms: C_5  and  C_8
REMARK    4  A    between atoms: C_9  and  C_10
REMARK    5  A    between atoms: C_10  and  C_12
REMARK                            x       y       z     vdW  Elec       q    Type
REMARK                         _______ _______ _______ _____ _____    ______ ____
ROOT
ATOM      1  C   UNL     1      89.272  70.645  87.542  0.00  0.00    +0.000 C 
ENDROOT
BRANCH   1   5
ATOM      2  C   UNL     1      89.578  65.753  86.267  0.00  0.00    +0.000 C 
ATOM      3  C   UNL     1      89.683  67.200  85.886  0.00  0.00    +0.000 A 
ATOM      4  C   UNL     1      89.445  68.206  86.832  0.00  0.00    +0.000 A 
ATOM      5  C   UNL     1      89.519  69.573  86.496  0.00  0.00    +0.000 A 
ATOM      6  C   UNL     1      89.785  69.922  85.153  0.00  0.00    +0.000 A 
ATOM      7  C   UNL     1      90.004  68.906  84.207  0.00  0.00    +0.000 A 
ATOM      8  C   UNL     1      89.957  67.561  84.569  0.00  0.00    +0.000 A 
ATOM      9  C   UNL     1      89.809  71.341  84.645  0.00  0.00    +0.000 C 
ENDBRANCH   1   5
BRANCH   1  10
ATOM     10  C   UNL     1      87.954  70.572  88.293  0.00  0.00    +0.000 C 
ATOM     11  O   UNL     1      87.870  69.990  89.375  0.00  0.00    +0.000 OA
BRANCH  10  12
ATOM     12  C   UNL     1      86.732  71.205  87.709  0.00  0.00    +0.000 A 
ATOM     13  C   UNL     1      86.548  71.366  86.330  0.00  0.00    +0.000 A 
ATOM     14  C   UNL     1      85.385  71.970  85.842  0.00  0.00    +0.000 A 
ATOM     15  C   UNL     1      84.402  72.415  86.725  0.00  0.00    +0.000 A 
ATOM     16  C   UNL     1      84.580  72.264  88.098  0.00  0.00    +0.000 A 
ATOM     17  C   UNL     1      85.740  71.663  88.588  0.00  0.00    +0.000 A 
ENDBRANCH  10  12
ENDBRANCH   1  10
TORSDOF 3
ENDMDL
