MODEL 1
REMARK VINA RESULT:      -4.7      0.000      0.000
REMARK  Name = *****
REMARK  3 active torsions:
REMARK  status: ('A' for Active; 'I' for Inactive)
REMARK    1  A    between atoms: C_6  and  C_7
REMARK    2  A    between atoms: C_7  and  C_8
REMARK    3  A    between atoms: C_8  and  C_10
REMARK                            x       y       z     vdW  Elec       q    Type
REMARK                         _______ _______ _______ _____ _____    ______ ____
ROOT
ATOM      1  C   UNL     1      88.831  70.096  86.595  0.00  0.00    +0.000 C 
ATOM      2  O   UNL     1      89.665  70.773  87.199  0.00  0.00    +0.000 OA
ENDROOT
BRANCH   1   3
ATOM      3  C   UNL     1      88.870  68.606  86.729  0.00  0.00    +0.000 A 
ATOM      4  C   UNL     1      87.849  67.870  87.347  0.00  0.00    +0.000 A 
ATOM      5  C   UNL     1      87.945  66.477  87.439  0.00  0.00    +0.000 A 
ATOM      6  C   UNL     1      89.056  65.824  86.917  0.00  0.00    +0.000 A 
ATOM      7  C   UNL     1      90.077  66.536  86.304  0.00  0.00    +0.000 A 
ATOM      8  C   UNL     1      89.986  67.926  86.210  0.00  0.00    +0.000 A 
ATOM      9  F   UNL     1      89.139  64.491  87.009  0.00  0.00    +0.000 F 
ENDBRANCH   1   3
BRANCH   1  10
ATOM     10  C   UNL     1      87.774  70.757  85.730  0.00  0.00    +0.000 C 
BRANCH  10  16
ATOM     11  C   UNL     1      85.524  71.901  85.828  0.00  0.00    +0.000 A 
ATOM     12  C   UNL     1      84.439  72.423  86.538  0.00  0.00    +0.000 A 
ATOM     13  C   UNL     1      84.424  72.354  87.929  0.00  0.00    +0.000 A 
ATOM     14  C   UNL     1      85.487  71.776  88.616  0.00  0.00    +0.000 A 
ATOM     15  C   UNL     1      86.572  71.255  87.906  0.00  0.00    +0.000 A 
ATOM     16  C   UNL     1      86.594  71.297  86.504  0.00  0.00    +0.000 A 
ATOM     17 CL   UNL     1      83.089  72.997  88.802  0.00  0.00    +0.000 Cl
ENDBRANCH  10  16
ENDBRANCH   1  10
TORSDOF 3
ENDMDL
