MODEL 1
REMARK VINA RESULT:      -4.9      0.000      0.000
REMARK  Name = *****
REMARK  5 active torsions:
REMARK  status: ('A' for Active; 'I' for Inactive)
REMARK    1  A    between atoms: C_1  and  C_2
REMARK    2  A    between atoms: C_4  and  C_8
REMARK    3  A    between atoms: C_8  and  O_10
REMARK    4  A    between atoms: O_10  and  C_11
REMARK    5  A    between atoms: C_11  and  C_12
REMARK                            x       y       z     vdW  Elec       q    Type
REMARK                         _______ _______ _______ _____ _____    ______ ____
ROOT
ATOM      1  C   UNL     1      88.499  66.504  86.149  0.00  0.00    +0.000 C 
ENDROOT
BRANCH   1   2
ATOM      2  C   UNL     1      88.383  67.786  86.923  0.00  0.00    +0.000 A 
ATOM      3  C   UNL     1      87.436  67.938  87.940  0.00  0.00    +0.000 A 
ATOM      4  C   UNL     1      87.333  69.129  88.654  0.00  0.00    +0.000 A 
ATOM      5  C   UNL     1      88.185  70.186  88.369  0.00  0.00    +0.000 A 
ATOM      6  C   UNL     1      89.144  70.048  87.377  0.00  0.00    +0.000 A 
ATOM      7  C   UNL     1      89.244  68.856  86.664  0.00  0.00    +0.000 A 
ATOM      8  F   UNL     1      90.194  68.733  85.727  0.00  0.00    +0.000 F 
ATOM      9  F   UNL     1      89.985  71.058  87.112  0.00  0.00    +0.000 F 
ATOM     10  F   UNL     1      88.093  71.330  89.061  0.00  0.00    +0.000 F 
ATOM     11  F   UNL     1      86.416  69.250  89.625  0.00  0.00    +0.000 F 
ATOM     12  F   UNL     1      86.616  66.922  88.246  0.00  0.00    +0.000 F 
ENDBRANCH   1   2
BRANCH   1  13
ATOM     13  O   UNL     1      89.408  65.592  86.782  0.00  0.00    +0.000 OA
BRANCH  13  14
ATOM     14  C   UNL     1      89.123  64.276  86.623  0.00  0.00    +0.000 C 
ATOM     15  O   UNL     1      89.498  63.573  85.699  0.00  0.00    +0.000 OA
BRANCH  14  19
ATOM     16  C   UNL     1      87.788  64.235  91.495  0.00  0.00    +0.000 C 
ATOM     17  C   UNL     1      87.626  63.738  90.088  0.00  0.00    +0.000 A 
ATOM     18  C   UNL     1      88.449  64.224  89.063  0.00  0.00    +0.000 A 
ATOM     19  C   UNL     1      88.275  63.787  87.741  0.00  0.00    +0.000 A 
ATOM     20  C   UNL     1      87.258  62.870  87.447  0.00  0.00    +0.000 A 
ATOM     21  C   UNL     1      86.428  62.393  88.461  0.00  0.00    +0.000 A 
ATOM     22  C   UNL     1      86.608  62.828  89.774  0.00  0.00    +0.000 A 
ENDBRANCH  14  19
ENDBRANCH  13  14
ENDBRANCH   1  13
TORSDOF 4
ENDMDL
