MODEL 1
REMARK VINA RESULT:      -4.6      0.000      0.000
REMARK  Name = *****
REMARK  5 active torsions:
REMARK  status: ('A' for Active; 'I' for Inactive)
REMARK    1  A    between atoms: C_4  and  C_7
REMARK    2  A    between atoms: C_7  and  C_9
REMARK    3  A    between atoms: C_9  and  C_10
REMARK    4  A    between atoms: C_10  and  C_11
REMARK    5  A    between atoms: C_10  and  C_16
REMARK                            x       y       z     vdW  Elec       q    Type
REMARK                         _______ _______ _______ _____ _____    ______ ____
ROOT
ATOM      1  C   UNL     1     104.121 126.366  81.455  0.00  0.00    +0.000 C 
ENDROOT
BRANCH   1   2
ATOM      2  C   UNL     1     105.115 125.367  80.880  0.00  0.00    +0.000 A 
ATOM      3  C   UNL     1     105.005 124.573  79.753  0.00  0.00    +0.000 A 
ATOM      4  C   UNL     1     106.153 123.755  79.549  0.00  0.00    +0.000 A 
ATOM      5  C   UNL     1     107.101 123.942  80.529  0.00  0.00    +0.000 A 
ATOM      6  S   UNL     1     106.607 125.096  81.686  0.00  0.00    +0.000 S 
ENDBRANCH   1   2
BRANCH   1   7
ATOM      7  C   UNL     1     104.109 127.670  80.655  0.00  0.00    +0.000 C 
ATOM      8  F   UNL     1     103.208 127.622  79.641  0.00  0.00    +0.000 F 
ATOM      9  F   UNL     1     103.774 128.734  81.416  0.00  0.00    +0.000 F 
ATOM     10  F   UNL     1     105.318 127.936  80.110  0.00  0.00    +0.000 F 
ENDBRANCH   1   7
BRANCH   1  11
ATOM     11  C   UNL     1     102.719 125.727  81.494  0.00  0.00    +0.000 C 
BRANCH  11  12
ATOM     12  C   UNL     1     102.033 125.937  82.831  0.00  0.00    +0.000 C 
ATOM     13  O   UNL     1     102.329 125.267  83.819  0.00  0.00    +0.000 OA
BRANCH  12  17
ATOM     14  C   UNL     1      98.976 128.928  83.180  0.00  0.00    +0.000 A 
ATOM     15  C   UNL     1      98.676 127.713  82.566  0.00  0.00    +0.000 A 
ATOM     16  C   UNL     1      99.657 126.726  82.443  0.00  0.00    +0.000 A 
ATOM     17  C   UNL     1     100.948 126.956  82.933  0.00  0.00    +0.000 A 
ATOM     18  C   UNL     1     101.240 128.177  83.557  0.00  0.00    +0.000 A 
ATOM     19  C   UNL     1     100.256 129.160  83.677  0.00  0.00    +0.000 A 
ENDBRANCH  12  17
ENDBRANCH  11  12
ENDBRANCH   1  11
TORSDOF 5
ENDMDL
