MODEL 1
REMARK VINA RESULT:      -4.1      0.000      0.000
REMARK  Name = *****
REMARK  4 active torsions:
REMARK  status: ('A' for Active; 'I' for Inactive)
REMARK    1  A    between atoms: C_4  and  C_6
REMARK    2  A    between atoms: C_6  and  O_8
REMARK    3  A    between atoms: O_8  and  C_9
REMARK    4  A    between atoms: C_9  and  C_10
REMARK                            x       y       z     vdW  Elec       q    Type
REMARK                         _______ _______ _______ _____ _____    ______ ____
ROOT
ATOM      1  O   UNL     1     100.497 126.737  83.304  0.00  0.00    +0.000 OA
ENDROOT
BRANCH   1   2
ATOM      2  C   UNL     1      99.340 127.358  82.931  0.00  0.00    +0.000 C 
ATOM      3  O   UNL     1      98.583 126.938  82.063  0.00  0.00    +0.000 OA
BRANCH   2   7
ATOM      4  C   UNL     1      99.169 130.776  84.476  0.00  0.00    +0.000 A 
ATOM      5  C   UNL     1      98.557 130.136  85.529  0.00  0.00    +0.000 A 
ATOM      6  S   UNL     1      98.407 128.456  85.259  0.00  0.00    +0.000 S 
ATOM      7  C   UNL     1      99.162 128.562  83.722  0.00  0.00    +0.000 A 
ATOM      8  C   UNL     1      99.518 129.869  83.433  0.00  0.00    +0.000 A 
ENDBRANCH   2   7
ENDBRANCH   1   2
BRANCH   1   9
ATOM      9  C   UNL     1     101.315 126.256  82.232  0.00  0.00    +0.000 C 
BRANCH   9  10
ATOM     10  C   UNL     1     102.460 127.211  82.009  0.00  0.00    +0.000 A 
ATOM     11  C   UNL     1     103.166 127.202  80.796  0.00  0.00    +0.000 A 
ATOM     12  C   UNL     1     104.242 128.070  80.598  0.00  0.00    +0.000 A 
ATOM     13  C   UNL     1     104.620 128.947  81.613  0.00  0.00    +0.000 A 
ATOM     14  C   UNL     1     103.936 128.959  82.826  0.00  0.00    +0.000 A 
ATOM     15  C   UNL     1     102.861 128.089  83.025  0.00  0.00    +0.000 A 
ATOM     16 CL   UNL     1     105.946 130.016  81.367  0.00  0.00    +0.000 Cl
ENDBRANCH   9  10
ENDBRANCH   1   9
TORSDOF 4
ENDMDL
