MODEL 1
REMARK VINA RESULT:      -4.7      0.000      0.000
REMARK  Name = *****
REMARK  2 active torsions:
REMARK  status: ('A' for Active; 'I' for Inactive)
REMARK    1  A    between atoms: C_4  and  O_7
REMARK    2  A    between atoms: O_7  and  P_8
REMARK                            x       y       z     vdW  Elec       q    Type
REMARK                         _______ _______ _______ _____ _____    ______ ____
ROOT
ATOM      1  P   UNL     1      88.842  65.772  86.312  0.00  0.00    +0.000 P 
ATOM      2  O   UNL     1      88.712  65.370  84.869  0.00  0.00    +0.000 OA
ATOM      3  N   UNL     1      89.229  64.604  87.417  0.00  0.00    +0.000 N 
ATOM      4  C   UNL     1      88.449  64.674  88.589  0.00  0.00    +0.000 A 
ATOM      5  C   UNL     1      88.711  63.881  89.702  0.00  0.00    +0.000 A 
ATOM      6  C   UNL     1      87.859  63.943  90.809  0.00  0.00    +0.000 A 
ATOM      7  C   UNL     1      86.736  64.776  90.794  0.00  0.00    +0.000 A 
ATOM      8  C   UNL     1      86.447  65.549  89.669  0.00  0.00    +0.000 A 
ATOM      9  C   UNL     1      87.297  65.489  88.567  0.00  0.00    +0.000 A 
ATOM     10  S   UNL     1      86.997  66.437  87.079  0.00  0.00    +0.000 S 
ATOM     11  H   UNL     1      89.932  63.929  87.273  0.00  0.00    +0.000 HD
ENDROOT
BRANCH   1  12
ATOM     12  O   UNL     1      89.957  66.924  86.536  0.00  0.00    +0.000 OA
BRANCH  12  16
ATOM     13  C   UNL     1      89.637  70.904  85.379  0.00  0.00    +0.000 A 
ATOM     14  C   UNL     1      89.515  70.523  86.715  0.00  0.00    +0.000 A 
ATOM     15  C   UNL     1      89.631  69.178  87.067  0.00  0.00    +0.000 A 
ATOM     16  C   UNL     1      89.863  68.210  86.087  0.00  0.00    +0.000 A 
ATOM     17  C   UNL     1      89.996  68.592  84.755  0.00  0.00    +0.000 A 
ATOM     18  C   UNL     1      89.880  69.939  84.402  0.00  0.00    +0.000 A 
ENDBRANCH  12  16
ENDBRANCH   1  12
TORSDOF 2
ENDMDL
