MODEL 1
REMARK VINA RESULT:      -4.4      0.000      0.000
REMARK  Name = *****
REMARK  4 active torsions:
REMARK  status: ('A' for Active; 'I' for Inactive)
REMARK    1  A    between atoms: C_1  and  C_2
REMARK    2  A    between atoms: C_5  and  S_8
REMARK    3  A    between atoms: S_8  and  C_9
REMARK    4  A    between atoms: C_9  and  C_10
REMARK                            x       y       z     vdW  Elec       q    Type
REMARK                         _______ _______ _______ _____ _____    ______ ____
ROOT
ATOM      1  S   UNL     1      88.151  70.464  88.499  0.00  0.00    +0.000 S 
ENDROOT
BRANCH   1   6
ATOM      2  C   UNL     1      83.171  73.061  86.127  0.00  0.00    +0.000 C 
ATOM      3  C   UNL     1      84.380  72.400  86.720  0.00  0.00    +0.000 A 
ATOM      4  C   UNL     1      84.533  72.310  88.108  0.00  0.00    +0.000 A 
ATOM      5  C   UNL     1      85.673  71.720  88.660  0.00  0.00    +0.000 A 
ATOM      6  C   UNL     1      86.686  71.229  87.831  0.00  0.00    +0.000 A 
ATOM      7  C   UNL     1      86.535  71.317  86.444  0.00  0.00    +0.000 A 
ATOM      8  C   UNL     1      85.396  71.907  85.893  0.00  0.00    +0.000 A 
ENDBRANCH   1   6
BRANCH   1   9
ATOM      9  C   UNL     1      88.963  69.951  86.949  0.00  0.00    +0.000 C 
BRANCH   9  10
ATOM     10  C   UNL     1      89.022  68.447  86.833  0.00  0.00    +0.000 A 
ATOM     11  C   UNL     1      87.987  67.651  87.353  0.00  0.00    +0.000 A 
ATOM     12  C   UNL     1      88.050  66.261  87.256  0.00  0.00    +0.000 A 
ATOM     13  C   UNL     1      89.146  65.664  86.645  0.00  0.00    +0.000 A 
ATOM     14  C   UNL     1      90.185  66.431  86.132  0.00  0.00    +0.000 A 
ATOM     15  C   UNL     1      90.126  67.822  86.228  0.00  0.00    +0.000 A 
ATOM     16  F   UNL     1      89.204  64.329  86.552  0.00  0.00    +0.000 F 
ENDBRANCH   9  10
ENDBRANCH   1   9
TORSDOF 3
ENDMDL
