MODEL 1
REMARK VINA RESULT:      -4.5      0.000      0.000
REMARK  Name = *****
REMARK  3 active torsions:
REMARK  status: ('A' for Active; 'I' for Inactive)
REMARK    1  A    between atoms: C_4  and  C_7
REMARK    2  A    between atoms: C_8  and  C_9
REMARK    3  A    between atoms: C_12  and  C_15
REMARK                            x       y       z     vdW  Elec       q    Type
REMARK                         _______ _______ _______ _____ _____    ______ ____
ROOT
ATOM      1  C   UNL     1     101.777 126.689  82.446  0.00  0.00    +0.000 A 
ATOM      2  C   UNL     1     102.454 127.782  83.002  0.00  0.00    +0.000 A 
ATOM      3  C   UNL     1     101.744 128.847  83.564  0.00  0.00    +0.000 A 
ATOM      4  C   UNL     1     100.341 128.843  83.578  0.00  0.00    +0.000 A 
ATOM      5  C   UNL     1      99.666 127.759  82.997  0.00  0.00    +0.000 A 
ATOM      6  C   UNL     1     100.378 126.695  82.436  0.00  0.00    +0.000 A 
ENDROOT
BRANCH   4   7
ATOM      7  C   UNL     1      99.570 130.000  84.161  0.00  0.00    +0.000 C 
ATOM      8  F   UNL     1      98.445 129.615  84.827  0.00  0.00    +0.000 F 
ATOM      9  F   UNL     1     100.305 130.717  85.054  0.00  0.00    +0.000 F 
ATOM     10  F   UNL     1      99.152 130.891  83.218  0.00  0.00    +0.000 F 
ENDBRANCH   4   7
BRANCH   1  12
ATOM     11  C   UNL     1     103.525 125.725  80.976  0.00  0.00    +0.000 C 
ATOM     12  C   UNL     1     102.491 125.570  81.821  0.00  0.00    +0.000 C 
BRANCH  11  16
ATOM     13  C   UNL     1     107.120 124.573  81.727  0.00  0.00    +0.000 C 
ATOM     14  C   UNL     1     106.801 125.682  80.735  0.00  0.00    +0.000 C 
ATOM     15  S   UNL     1     105.696 125.150  79.398  0.00  0.00    +0.000 S 
ATOM     16  C   UNL     1     104.260 124.580  80.340  0.00  0.00    +0.000 C 
ATOM     17  S   UNL     1     104.654 123.287  81.544  0.00  0.00    +0.000 S 
ATOM     18  C   UNL     1     105.919 124.119  82.542  0.00  0.00    +0.000 C 
ENDBRANCH  11  16
ENDBRANCH   1  12
TORSDOF 3
ENDMDL
