MODEL 1
REMARK VINA RESULT:      -4.7      0.000      0.000
REMARK  Name = *****
REMARK  6 active torsions:
REMARK  status: ('A' for Active; 'I' for Inactive)
REMARK    1  A    between atoms: C_1  and  O_2
REMARK    2  A    between atoms: O_2  and  C_3
REMARK    3  A    between atoms: C_5  and  C_11
REMARK    4  A    between atoms: C_6  and  O_9
REMARK    5  A    between atoms: O_9  and  C_10
REMARK    6  A    between atoms: C_12  and  C_13
REMARK                            x       y       z     vdW  Elec       q    Type
REMARK                         _______ _______ _______ _____ _____    ______ ____
ROOT
ATOM      1  C   UNL     1      99.187 127.041  82.723  0.00  0.00    +0.000 A 
ATOM      2  C   UNL     1     100.418 126.550  82.275  0.00  0.00    +0.000 A 
ATOM      3  C   UNL     1     101.612 127.232  82.565  0.00  0.00    +0.000 A 
ATOM      4  C   UNL     1     101.551 128.398  83.346  0.00  0.00    +0.000 A 
ATOM      5  C   UNL     1     100.324 128.904  83.777  0.00  0.00    +0.000 A 
ATOM      6  C   UNL     1      99.149 128.221  83.470  0.00  0.00    +0.000 A 
ENDROOT
BRANCH   1   8
ATOM      7  C   UNL     1      97.131 126.259  83.630  0.00  0.00    +0.000 C 
ATOM      8  O   UNL     1      97.964 126.472  82.497  0.00  0.00    +0.000 OA
ENDBRANCH   1   8
BRANCH   4   9
ATOM      9  O   UNL     1     102.680 129.109  83.663  0.00  0.00    +0.000 OA
ATOM     10  C   UNL     1     102.517 129.745  84.931  0.00  0.00    +0.000 C 
ENDBRANCH   4   9
BRANCH   3  11
ATOM     11  C   UNL     1     102.869 126.656  82.058  0.00  0.00    +0.000 C 
ATOM     12  C   UNL     1     102.900 125.625  81.197  0.00  0.00    +0.000 C 
BRANCH  12  13
ATOM     13  C   UNL     1     104.132 125.029  80.662  0.00  0.00    +0.000 A 
ATOM     14  C   UNL     1     104.445 123.673  80.822  0.00  0.00    +0.000 A 
ATOM     15  C   UNL     1     105.615 123.142  80.271  0.00  0.00    +0.000 A 
ATOM     16  C   UNL     1     106.474 123.964  79.546  0.00  0.00    +0.000 A 
ATOM     17  C   UNL     1     106.170 125.310  79.363  0.00  0.00    +0.000 A 
ATOM     18  C   UNL     1     105.000 125.839  79.916  0.00  0.00    +0.000 A 
ATOM     19 CL   UNL     1     107.913 123.310  78.867  0.00  0.00    +0.000 Cl
ENDBRANCH  12  13
ENDBRANCH   3  11
TORSDOF 4
ENDMDL
