MODEL 1
REMARK VINA RESULT:      -4.3      0.000      0.000
REMARK  Name = *****
REMARK  3 active torsions:
REMARK  status: ('A' for Active; 'I' for Inactive)
REMARK    1  A    between atoms: C_4  and  C_7
REMARK    2  A    between atoms: C_8  and  O_9
REMARK    3  A    between atoms: O_9  and  C_10
REMARK                            x       y       z     vdW  Elec       q    Type
REMARK                         _______ _______ _______ _____ _____    ______ ____
ROOT
ATOM      1  C   UNL     1      89.330  66.940  86.490  0.00  0.00    +0.000 C 
ATOM      2  C   UNL     1      89.130  65.821  86.878  0.00  0.00    +0.000 C 
ENDROOT
BRANCH   1   6
ATOM      3  C   UNL     1      90.025  70.867  85.101  0.00  0.00    +0.000 A 
ATOM      4  C   UNL     1      90.088  69.793  84.214  0.00  0.00    +0.000 A 
ATOM      5  C   UNL     1      89.857  68.494  84.673  0.00  0.00    +0.000 A 
ATOM      6  C   UNL     1      89.564  68.270  86.020  0.00  0.00    +0.000 A 
ATOM      7  C   UNL     1      89.500  69.348  86.906  0.00  0.00    +0.000 A 
ATOM      8  C   UNL     1      89.730  70.647  86.446  0.00  0.00    +0.000 A 
ENDBRANCH   1   6
BRANCH   2   9
ATOM      9  O   UNL     1      88.923  64.583  87.323  0.00  0.00    +0.000 OA
BRANCH   9  10
ATOM     10  C   UNL     1      88.331  64.515  88.562  0.00  0.00    +0.000 A 
ATOM     11  C   UNL     1      88.891  63.860  89.663  0.00  0.00    +0.000 A 
ATOM     12  C   UNL     1      88.229  63.873  90.894  0.00  0.00    +0.000 A 
ATOM     13  C   UNL     1      87.019  64.552  91.029  0.00  0.00    +0.000 A 
ATOM     14  C   UNL     1      86.469  65.225  89.938  0.00  0.00    +0.000 A 
ATOM     15  C   UNL     1      87.128  65.211  88.708  0.00  0.00    +0.000 A 
ENDBRANCH   9  10
ENDBRANCH   2   9
TORSDOF 3
ENDMDL
