REMARK  Name = *****
REMARK  2 active torsions:
REMARK  status: ('A' for Active; 'I' for Inactive)
REMARK    1  A    between atoms: C_2  and  C_11
REMARK    2  A    between atoms: C_3  and  C_4
REMARK                            x       y       z     vdW  Elec       q    Type
REMARK                         _______ _______ _______ _____ _____    ______ ____
ROOT
ATOM      1  C   UNL     1       0.084   0.916  -0.058  0.00  0.00    +0.000 C 
ATOM      2  C   UNL     1       0.826  -0.396  -0.050  0.00  0.00    +0.000 C 
ATOM      3  C   UNL     1      -0.697  -0.373  -0.070  0.00  0.00    +0.000 C 
ENDROOT
BRANCH   3   4
ATOM      4  C   UNL     1      -1.436  -0.802  -1.316  0.00  0.00    +0.000 A 
ATOM      5  C   UNL     1      -1.214  -2.061  -1.899  0.00  0.00    +0.000 A 
ATOM      6  C   UNL     1      -1.907  -2.468  -3.044  0.00  0.00    +0.000 A 
ATOM      7  C   UNL     1      -2.843  -1.616  -3.621  0.00  0.00    +0.000 A 
ATOM      8  C   UNL     1      -3.093  -0.367  -3.061  0.00  0.00    +0.000 A 
ATOM      9  C   UNL     1      -2.396   0.030  -1.917  0.00  0.00    +0.000 A 
ATOM     10 BR   UNL     1      -3.782  -2.160  -5.168  0.00  0.00    +0.000 Br
ENDBRANCH   3   4
BRANCH   2  11
ATOM     11  C   UNL     1       1.556  -0.846   1.193  0.00  0.00    +0.000 A 
ATOM     12  C   UNL     1       1.288  -2.090   1.789  0.00  0.00    +0.000 A 
ATOM     13  C   UNL     1       1.974  -2.515   2.930  0.00  0.00    +0.000 A 
ATOM     14  C   UNL     1       2.953  -1.703   3.496  0.00  0.00    +0.000 A 
ATOM     15  C   UNL     1       3.245  -0.470   2.920  0.00  0.00    +0.000 A 
ATOM     16  C   UNL     1       2.555  -0.051   1.780  0.00  0.00    +0.000 A 
ENDBRANCH   2  11
TORSDOF 2
