MODEL 1
REMARK VINA RESULT:      -4.7      0.000      0.000
REMARK  Name = *****
REMARK  6 active torsions:
REMARK  status: ('A' for Active; 'I' for Inactive)
REMARK    1  A    between atoms: C_1  and  C_2
REMARK    2  A    between atoms: C_5  and  C_8
REMARK    3  A    between atoms: C_8  and  C_9
REMARK    4  A    between atoms: C_8  and  O_16
REMARK    5  A    between atoms: C_9  and  C_10
REMARK    6  A    between atoms: O_16  and  C_17
REMARK                            x       y       z     vdW  Elec       q    Type
REMARK                         _______ _______ _______ _____ _____    ______ ____
ROOT
ATOM      1  C   UNL     1     103.141 127.339  81.474  0.00  0.00    +0.000 C 
ENDROOT
BRANCH   1   6
ATOM      2  C   UNL     1     105.246 121.899  81.165  0.00  0.00    +0.000 C 
ATOM      3  C   UNL     1     104.682 123.286  81.242  0.00  0.00    +0.000 A 
ATOM      4  C   UNL     1     104.668 124.111  80.111  0.00  0.00    +0.000 A 
ATOM      5  C   UNL     1     104.173 125.415  80.190  0.00  0.00    +0.000 A 
ATOM      6  C   UNL     1     103.695 125.925  81.406  0.00  0.00    +0.000 A 
ATOM      7  C   UNL     1     103.722 125.100  82.538  0.00  0.00    +0.000 A 
ATOM      8  C   UNL     1     104.217 123.796  82.459  0.00  0.00    +0.000 A 
ENDBRANCH   1   6
BRANCH   1   9
ATOM      9  O   UNL     1     104.179 128.285  81.160  0.00  0.00    +0.000 OA
ATOM     10  C   UNL     1     104.638 128.991  82.306  0.00  0.00    +0.000 C 
ENDBRANCH   1   9
BRANCH   1  11
ATOM     11  C   UNL     1     102.619 127.632  82.896  0.00  0.00    +0.000 C 
BRANCH  11  12
ATOM     12  C   UNL     1     101.109 127.735  82.944  0.00  0.00    +0.000 A 
ATOM     13  C   UNL     1     100.490 128.868  83.488  0.00  0.00    +0.000 A 
ATOM     14  C   UNL     1      99.099 128.970  83.518  0.00  0.00    +0.000 A 
ATOM     15  C   UNL     1      98.313 127.940  83.005  0.00  0.00    +0.000 A 
ATOM     16  C   UNL     1      98.917 126.808  82.459  0.00  0.00    +0.000 A 
ATOM     17  C   UNL     1     100.308 126.706  82.426  0.00  0.00    +0.000 A 
ENDBRANCH  11  12
ENDBRANCH   1  11
TORSDOF 4
ENDMDL
