MODEL 1
REMARK VINA RESULT:      -4.8      0.000      0.000
REMARK  Name = *****
REMARK  5 active torsions:
REMARK  status: ('A' for Active; 'I' for Inactive)
REMARK    1  A    between atoms: C_1  and  C_2
REMARK    2  A    between atoms: C_5  and  C_8
REMARK    3  A    between atoms: C_9  and  O_10
REMARK    4  A    between atoms: O_10  and  C_11
REMARK    5  A    between atoms: C_14  and  C_17
REMARK                            x       y       z     vdW  Elec       q    Type
REMARK                         _______ _______ _______ _____ _____    ______ ____
ROOT
ATOM      1  C   UNL     1      89.822  66.828  86.540  0.00  0.00    +0.000 C 
ATOM      2  C   UNL     1      88.762  66.011  86.573  0.00  0.00    +0.000 C 
ENDROOT
BRANCH   1   7
ATOM      3  C   UNL     1      89.685  72.148  84.259  0.00  0.00    +0.000 C 
ATOM      4  C   UNL     1      89.742  70.763  84.832  0.00  0.00    +0.000 A 
ATOM      5  C   UNL     1      89.905  69.647  84.005  0.00  0.00    +0.000 A 
ATOM      6  C   UNL     1      89.942  68.359  84.550  0.00  0.00    +0.000 A 
ATOM      7  C   UNL     1      89.818  68.163  85.931  0.00  0.00    +0.000 A 
ATOM      8  C   UNL     1      89.630  69.280  86.753  0.00  0.00    +0.000 A 
ATOM      9  C   UNL     1      89.596  70.569  86.210  0.00  0.00    +0.000 A 
ENDBRANCH   1   7
BRANCH   2  10
ATOM     10  O   UNL     1      88.827  64.766  87.158  0.00  0.00    +0.000 OA
BRANCH  10  11
ATOM     11  C   UNL     1      88.277  64.642  88.411  0.00  0.00    +0.000 A 
ATOM     12  C   UNL     1      88.889  63.882  89.408  0.00  0.00    +0.000 A 
ATOM     13  C   UNL     1      88.315  63.816  90.679  0.00  0.00    +0.000 A 
ATOM     14  C   UNL     1      87.132  64.512  90.959  0.00  0.00    +0.000 A 
ATOM     15  C   UNL     1      86.547  65.300  89.959  0.00  0.00    +0.000 A 
ATOM     16  C   UNL     1      87.121  65.367  88.687  0.00  0.00    +0.000 A 
ATOM     17  C   UNL     1      86.537  64.470  92.336  0.00  0.00    +0.000 C 
ENDBRANCH  10  11
ENDBRANCH   2  10
TORSDOF 3
ENDMDL
