MODEL 1
REMARK VINA RESULT:      -4.4      0.000      0.000
REMARK  Name = *****
REMARK  4 active torsions:
REMARK  status: ('A' for Active; 'I' for Inactive)
REMARK    1  A    between atoms: C_4  and  C_7
REMARK    2  A    between atoms: C_7  and  C_8
REMARK    3  A    between atoms: C_8  and  S_16
REMARK    4  A    between atoms: C_9  and  C_10
REMARK                            x       y       z     vdW  Elec       q    Type
REMARK                         _______ _______ _______ _____ _____    ______ ____
ROOT
ATOM      1  C   UNL     1      88.798  65.850  86.408  0.00  0.00    +0.000 C 
ATOM      2  C   UNL     1      89.822  66.728  86.402  0.00  0.00    +0.000 C 
ENDROOT
BRANCH   2   3
ATOM      3  C   UNL     1      89.766  68.165  86.108  0.00  0.00    +0.000 A 
ATOM      4  C   UNL     1      89.536  69.099  87.124  0.00  0.00    +0.000 A 
ATOM      5  C   UNL     1      89.510  70.463  86.833  0.00  0.00    +0.000 A 
ATOM      6  C   UNL     1      89.719  70.903  85.526  0.00  0.00    +0.000 A 
ATOM      7  C   UNL     1      89.954  69.977  84.509  0.00  0.00    +0.000 A 
ATOM      8  C   UNL     1      89.980  68.612  84.800  0.00  0.00    +0.000 A 
ENDBRANCH   2   3
BRANCH   1   9
ATOM      9  S   UNL     1      87.169  66.324  85.975  0.00  0.00    +0.000 S 
ATOM     10  H   UNL     1      87.215  67.395  85.138  0.00  0.00    +0.000 HD
ENDBRANCH   1   9
BRANCH   1  11
ATOM     11  C   UNL     1      89.045  64.386  86.726  0.00  0.00    +0.000 C 
BRANCH  11  15
ATOM     12  C   UNL     1      86.753  62.877  90.065  0.00  0.00    +0.000 A 
ATOM     13  C   UNL     1      87.707  63.872  90.267  0.00  0.00    +0.000 A 
ATOM     14  C   UNL     1      88.447  64.361  89.190  0.00  0.00    +0.000 A 
ATOM     15  C   UNL     1      88.239  63.861  87.897  0.00  0.00    +0.000 A 
ATOM     16  C   UNL     1      87.281  62.854  87.706  0.00  0.00    +0.000 A 
ATOM     17  C   UNL     1      86.541  62.366  88.785  0.00  0.00    +0.000 A 
ENDBRANCH  11  15
ENDBRANCH   1  11
TORSDOF 4
ENDMDL
