MODEL 1
REMARK VINA RESULT:      -4.5      0.000      0.000
REMARK  Name = *****
REMARK  3 active torsions:
REMARK  status: ('A' for Active; 'I' for Inactive)
REMARK    1  A    between atoms: C_3  and  N_4
REMARK    2  A    between atoms: N_4  and  C_5
REMARK    3  A    between atoms: C_11  and  C_13
REMARK                            x       y       z     vdW  Elec       q    Type
REMARK                         _______ _______ _______ _____ _____    ______ ____
ROOT
ATOM      1  N   UNL     1     103.191 125.801  81.913  0.00  0.00    +0.000 N 
ATOM      2  C   UNL     1     103.677 124.689  82.640  0.00  0.00    +0.000 C 
ATOM      3  O   UNL     1     103.274 124.266  83.722  0.00  0.00    +0.000 OA
ENDROOT
BRANCH   2   4
ATOM      4  C   UNL     1     104.832 123.942  82.086  0.00  0.00    +0.000 A 
ATOM      5  C   UNL     1     106.135 124.220  82.514  0.00  0.00    +0.000 A 
ATOM      6  C   UNL     1     107.204 123.483  82.000  0.00  0.00    +0.000 A 
ATOM      7  C   UNL     1     106.963 122.461  81.080  0.00  0.00    +0.000 A 
ATOM      8  C   UNL     1     105.661 122.161  80.676  0.00  0.00    +0.000 A 
ATOM      9  C   UNL     1     104.590 122.896  81.187  0.00  0.00    +0.000 A 
ATOM     10 CL   UNL     1     108.282 121.557  80.447  0.00  0.00    +0.000 Cl
ENDBRANCH   2   4
BRANCH   1  11
ATOM     11  C   UNL     1     102.211 126.703  82.483  0.00  0.00    +0.000 A 
ATOM     12  C   UNL     1     100.836 126.465  82.300  0.00  0.00    +0.000 A 
ATOM     13  C   UNL     1      99.864 127.317  82.840  0.00  0.00    +0.000 A 
ATOM     14  C   UNL     1     100.246 128.430  83.578  0.00  0.00    +0.000 A 
ATOM     15  C   UNL     1     101.598 128.687  83.774  0.00  0.00    +0.000 A 
ATOM     16  C   UNL     1     102.568 127.833  83.232  0.00  0.00    +0.000 A 
ENDBRANCH   1  11
BRANCH   1  19
ATOM     17  C   UNL     1     104.901 127.015  80.374  0.00  0.00    +0.000 C 
ATOM     18  C   UNL     1     103.547 127.486  79.964  0.00  0.00    +0.000 C 
ATOM     19  C   UNL     1     103.702 126.111  80.581  0.00  0.00    +0.000 C 
ENDBRANCH   1  19
TORSDOF 3
ENDMDL
