MODEL 1
REMARK VINA RESULT:      -3.2      0.000      0.000
REMARK  Name = *****
REMARK  1 active torsions:
REMARK  status: ('A' for Active; 'I' for Inactive)
REMARK    1  A    between atoms: C_4  and  C_7
REMARK                            x       y       z     vdW  Elec       q    Type
REMARK                         _______ _______ _______ _____ _____    ______ ____
ROOT
ATOM      1  C   UNL     1      87.324  64.196  87.338  0.00  0.00    +0.000 C 
ATOM      2  S   UNL     1      87.069  63.533  85.638  0.00  0.00    +0.000 S 
ATOM      3  C   UNL     1      88.564  64.101  84.995  0.00  0.00    +0.000 A 
ATOM      4  C   UNL     1      89.285  64.965  85.715  0.00  0.00    +0.000 A 
ATOM      5  S   UNL     1      88.679  65.463  87.251  0.00  0.00    +0.000 S 
ATOM      6  S   UNL     1      90.770  65.530  85.043  0.00  0.00    +0.000 S 
ATOM      7  C   UNL     1      90.646  64.600  83.554  0.00  0.00    +0.000 A 
ATOM      8  O   UNL     1      91.489  64.630  82.671  0.00  0.00    +0.000 OA
ATOM      9  S   UNL     1      89.186  63.620  83.459  0.00  0.00    +0.000 S 
ENDROOT
BRANCH   1  13
ATOM     10  C   UNL     1      86.075  63.416  91.294  0.00  0.00    +0.000 C 
ATOM     11  C   UNL     1      87.099  64.475  90.931  0.00  0.00    +0.000 C 
ATOM     12  S   UNL     1      88.466  63.829  89.933  0.00  0.00    +0.000 S 
ATOM     13  C   UNL     1      87.592  63.157  88.469  0.00  0.00    +0.000 C 
ATOM     14  S   UNL     1      86.262  61.972  88.909  0.00  0.00    +0.000 S 
ATOM     15  C   UNL     1      85.277  62.910  90.107  0.00  0.00    +0.000 C 
ENDBRANCH   1  13
TORSDOF 1
ENDMDL
