REMARK  Name = *****
REMARK  2 active torsions:
REMARK  status: ('A' for Active; 'I' for Inactive)
REMARK    1  A    between atoms: C_1  and  C_2
REMARK    2  A    between atoms: C_10  and  C_12
REMARK                            x       y       z     vdW  Elec       q    Type
REMARK                         _______ _______ _______ _____ _____    ______ ____
ROOT
ATOM      1  C   UNL     1       0.897   0.072   0.146  0.00  0.00    +0.000 C 
ATOM      2  C   UNL     1       2.402  -0.076  -0.060  0.00  0.00    +0.000 C 
ATOM      3  C   UNL     1       2.927  -1.342   0.547  0.00  0.00    +0.000 A 
ATOM      4  C   UNL     1       2.677  -2.599  -0.025  0.00  0.00    +0.000 A 
ATOM      5  C   UNL     1       3.159  -3.756   0.587  0.00  0.00    +0.000 A 
ATOM      6  C   UNL     1       3.890  -3.663   1.769  0.00  0.00    +0.000 A 
ATOM      7  C   UNL     1       4.139  -2.411   2.334  0.00  0.00    +0.000 A 
ATOM      8  C   UNL     1       3.663  -1.248   1.725  0.00  0.00    +0.000 A 
ATOM      9  N   UNL     1       3.942  -0.014   2.310  0.00  0.00    +0.000 NA
ATOM     10  C   UNL     1       3.640   1.063   1.662  0.00  0.00    +0.000 C 
ATOM     11  O   UNL     1       3.031   1.115   0.455  0.00  0.00    +0.000 OA
ENDROOT
BRANCH  10  12
ATOM     12  C   UNL     1       3.955   2.426   2.164  0.00  0.00    +0.000 A 
ATOM     13  C   UNL     1       4.697   2.557   3.346  0.00  0.00    +0.000 A 
ATOM     14  C   UNL     1       5.009   3.822   3.849  0.00  0.00    +0.000 A 
ATOM     15  C   UNL     1       4.580   4.965   3.176  0.00  0.00    +0.000 A 
ATOM     16  C   UNL     1       3.839   4.845   2.001  0.00  0.00    +0.000 A 
ATOM     17  C   UNL     1       3.527   3.581   1.494  0.00  0.00    +0.000 A 
ENDBRANCH  10  12
TORSDOF 1
