REMARK  Name = *****
REMARK  6 active torsions:
REMARK  status: ('A' for Active; 'I' for Inactive)
REMARK    1  A    between atoms: C_1  and  C_2
REMARK    2  A    between atoms: C_4  and  C_9
REMARK    3  A    between atoms: C_5  and  C_8
REMARK    4  A    between atoms: C_9  and  C_10
REMARK    5  A    between atoms: C_10  and  C_11
REMARK    6  A    between atoms: C_11  and  C_13
REMARK                            x       y       z     vdW  Elec       q    Type
REMARK                         _______ _______ _______ _____ _____    ______ ____
ROOT
ATOM      1  C   UNL     1      -0.349   3.760   0.000  0.00  0.00    +0.000 C 
ENDROOT
BRANCH   1   2
ATOM      2  C   UNL     1      -1.141   5.055   0.014  0.00  0.00    +0.000 C 
ATOM      3  O   UNL     1      -2.371   5.067   0.049  0.00  0.00    +0.000 OA
BRANCH   2   4
ATOM      4  C   UNL     1      -0.418   6.361  -0.015  0.00  0.00    +0.000 A 
ATOM      5  C   UNL     1       0.976   6.466  -0.055  0.00  0.00    +0.000 A 
ATOM      6  C   UNL     1       1.603   7.710  -0.081  0.00  0.00    +0.000 A 
ATOM      7  C   UNL     1       0.830   8.862  -0.065  0.00  0.00    +0.000 A 
ATOM      8  C   UNL     1      -0.557   8.791  -0.025  0.00  0.00    +0.000 A 
ATOM      9  C   UNL     1      -1.182   7.542   0.001  0.00  0.00    +0.000 A 
ATOM     10  F   UNL     1       1.429  10.059  -0.089  0.00  0.00    +0.000 F 
ATOM     11  F   UNL     1       1.760   5.380  -0.071  0.00  0.00    +0.000 F 
ENDBRANCH   2   4
ENDBRANCH   1   2
BRANCH   1  12
ATOM     12  C   UNL     1      -1.266   2.533   0.032  0.00  0.00    +0.000 C 
BRANCH  12  16
ATOM     13  C   UNL     1       2.903  -0.368  -0.010  0.00  0.00    +0.000 C 
ATOM     14  C   UNL     1       1.408  -0.242  -0.028  0.00  0.00    +0.000 A 
ATOM     15  C   UNL     1       0.801   1.021  -0.003  0.00  0.00    +0.000 A 
ATOM     16  C   UNL     1      -0.599   1.167   0.013  0.00  0.00    +0.000 A 
ATOM     17  C   UNL     1      -1.397  -0.000   0.017  0.00  0.00    +0.000 A 
ATOM     18  C   UNL     1      -0.783  -1.262   0.007  0.00  0.00    +0.000 A 
ATOM     19  C   UNL     1       0.606  -1.383  -0.010  0.00  0.00    +0.000 A 
ATOM     20  C   UNL     1      -2.902   0.071   0.035  0.00  0.00    +0.000 C 
ENDBRANCH  12  16
ENDBRANCH   1  12
TORSDOF 4
