MODEL 1
REMARK VINA RESULT:      -5.1      0.000      0.000
REMARK  Name = *****
REMARK  5 active torsions:
REMARK  status: ('A' for Active; 'I' for Inactive)
REMARK    1  A    between atoms: C_1  and  C_2
REMARK    2  A    between atoms: C_2  and  O_4
REMARK    3  A    between atoms: O_4  and  C_5
REMARK    4  A    between atoms: C_9  and  C_11
REMARK    5  A    between atoms: C_12  and  C_13
REMARK                            x       y       z     vdW  Elec       q    Type
REMARK                         _______ _______ _______ _____ _____    ______ ____
ROOT
ATOM      1  C   UNL     1      98.758 127.628  82.930  0.00  0.00    +0.000 A 
ATOM      2  C   UNL     1      99.123 128.751  83.673  0.00  0.00    +0.000 A 
ATOM      3  C   UNL     1     100.474 129.050  83.844  0.00  0.00    +0.000 A 
ATOM      4  C   UNL     1     101.449 128.217  83.291  0.00  0.00    +0.000 A 
ATOM      5  C   UNL     1     101.077 127.079  82.568  0.00  0.00    +0.000 A 
ATOM      6  C   UNL     1      99.726 126.779  82.390  0.00  0.00    +0.000 A 
ENDROOT
BRANCH   5   7
ATOM      7  C   UNL     1     102.088 126.224  82.027  0.00  0.00    +0.000 C 
ATOM      8  C   UNL     1     102.951 125.537  81.553  0.00  0.00    +0.000 C 
BRANCH   8   9
ATOM      9  C   UNL     1     103.995 124.753  80.966  0.00  0.00    +0.000 A 
ATOM     10  C   UNL     1     104.297 123.495  81.492  0.00  0.00    +0.000 A 
ATOM     11  C   UNL     1     105.315 122.724  80.923  0.00  0.00    +0.000 A 
ATOM     12  C   UNL     1     106.029 123.211  79.829  0.00  0.00    +0.000 A 
ATOM     13  C   UNL     1     105.727 124.467  79.302  0.00  0.00    +0.000 A 
ATOM     14  C   UNL     1     104.711 125.238  79.869  0.00  0.00    +0.000 A 
ENDBRANCH   8   9
ENDBRANCH   5   7
BRANCH   1  15
ATOM     15  O   UNL     1      97.417 127.237  82.771  0.00  0.00    +0.000 OA
BRANCH  15  17
ATOM     16  C   UNL     1      97.177 126.098  84.814  0.00  0.00    +0.000 C 
ATOM     17  C   UNL     1      96.997 126.031  83.327  0.00  0.00    +0.000 C 
ATOM     18  O   UNL     1      96.577 125.050  82.728  0.00  0.00    +0.000 OA
ENDBRANCH  15  17
ENDBRANCH   1  15
TORSDOF 4
ENDMDL
