REMARK  Name = *****
REMARK  3 active torsions:
REMARK  status: ('A' for Active; 'I' for Inactive)
REMARK    1  A    between atoms: C_2  and  C_3
REMARK    2  A    between atoms: C_4  and  C_9
REMARK    3  A    between atoms: C_10  and  C_11
REMARK                            x       y       z     vdW  Elec       q    Type
REMARK                         _______ _______ _______ _____ _____    ______ ____
ROOT
ATOM      1  C   UNL     1       3.085  -1.123   0.826  0.00  0.00    +0.000 C 
ATOM      2  C   UNL     1       4.155  -0.894   1.630  0.00  0.00    +0.000 C 
ATOM      3  C   UNL     1       4.907  -2.014   2.320  0.00  0.00    +0.000 C 
ATOM      4  C   UNL     1       4.163  -3.345   2.340  0.00  0.00    +0.000 C 
ATOM      5  C   UNL     1       3.588  -3.641   0.967  0.00  0.00    +0.000 C 
ATOM      6  C   UNL     1       2.616  -2.542   0.540  0.00  0.00    +0.000 C 
ENDROOT
BRANCH   1   8
ATOM      7  C   UNL     1       1.204  -0.161  -0.527  0.00  0.00    +0.000 C 
ATOM      8  C   UNL     1       2.332  -0.041   0.186  0.00  0.00    +0.000 C 
ENDBRANCH   1   8
BRANCH   2   9
ATOM      9  C   UNL     1       4.629   0.431   1.902  0.00  0.00    +0.000 C 
ATOM     10  C   UNL     1       5.035   1.536   2.142  0.00  0.00    +0.000 C 
BRANCH  10  11
ATOM     11  C   UNL     1       5.498   2.843   2.421  0.00  0.00    +0.000 C 
ATOM     12  C   UNL     1       6.770   3.138   2.712  0.00  0.00    +0.000 C 
ATOM     13  C   UNL     1       6.949   4.595   2.978  0.00  0.00    +0.000 C 
ATOM     14  C   UNL     1       5.643   5.198   2.463  0.00  0.00    +0.000 C 
ATOM     15  C   UNL     1       4.625   4.056   2.448  0.00  0.00    +0.000 C 
ENDBRANCH  10  11
ENDBRANCH   2   9
TORSDOF 3
