MODEL 1
REMARK VINA RESULT:      -3.9      0.000      0.000
REMARK  Name = *****
REMARK  5 active torsions:
REMARK  status: ('A' for Active; 'I' for Inactive)
REMARK    1  A    between atoms: C_1  and  O_2
REMARK    2  A    between atoms: O_2  and  C_3
REMARK    3  A    between atoms: C_6  and  S_9
REMARK    4  A    between atoms: S_9  and  S_10
REMARK    5  A    between atoms: S_10  and  C_11
REMARK                            x       y       z     vdW  Elec       q    Type
REMARK                         _______ _______ _______ _____ _____    ______ ____
ROOT
ATOM      1  C   UNL     1      89.005  65.666  86.666  0.00  0.00    +0.000 A 
ATOM      2  C   UNL     1      87.952  66.368  87.253  0.00  0.00    +0.000 A 
ATOM      3  C   UNL     1      87.995  67.766  87.327  0.00  0.00    +0.000 A 
ATOM      4  C   UNL     1      89.090  68.473  86.822  0.00  0.00    +0.000 A 
ATOM      5  C   UNL     1      90.136  67.768  86.223  0.00  0.00    +0.000 A 
ATOM      6  C   UNL     1      90.092  66.374  86.149  0.00  0.00    +0.000 A 
ENDROOT
BRANCH   1   8
ATOM      7  C   UNL     1      89.980  63.814  85.538  0.00  0.00    +0.000 C 
ATOM      8  O   UNL     1      89.091  64.308  86.532  0.00  0.00    +0.000 OA
ENDBRANCH   1   8
BRANCH   4   9
ATOM      9  S   UNL     1      89.167  70.252  86.907  0.00  0.00    +0.000 S 
BRANCH   9  10
ATOM     10  S   UNL     1      88.169  70.655  88.662  0.00  0.00    +0.000 S 
BRANCH  10  11
ATOM     11  C   UNL     1      86.432  70.891  88.116  0.00  0.00    +0.000 C 
ATOM     12  C   UNL     1      86.444  71.371  86.658  0.00  0.00    +0.000 C 
ATOM     13  C   UNL     1      85.028  71.626  86.144  0.00  0.00    +0.000 C 
ATOM     14  C   UNL     1      84.273  72.603  87.038  0.00  0.00    +0.000 C 
ATOM     15  C   UNL     1      84.267  72.141  88.492  0.00  0.00    +0.000 C 
ATOM     16  C   UNL     1      85.682  71.885  89.012  0.00  0.00    +0.000 C 
ENDBRANCH  10  11
ENDBRANCH   9  10
ENDBRANCH   4   9
TORSDOF 4
ENDMDL
