REMARK  Name = *****
REMARK  4 active torsions:
REMARK  status: ('A' for Active; 'I' for Inactive)
REMARK    1  A    between atoms: C_1  and  C_2
REMARK    2  A    between atoms: C_4  and  C_9
REMARK    3  A    between atoms: C_9  and  O_11
REMARK    4  A    between atoms: O_11  and  C_12
REMARK                            x       y       z     vdW  Elec       q    Type
REMARK                         _______ _______ _______ _____ _____    ______ ____
ROOT
ATOM      1  C   UNL     1       0.962  -0.298  -0.568  0.00  0.00    +0.000 C 
ATOM      2  C   UNL     1       2.420  -0.115  -0.269  0.00  0.00    +0.000 A 
ATOM      3  C   UNL     1       3.225  -1.226   0.019  0.00  0.00    +0.000 A 
ATOM      4  C   UNL     1       4.586  -1.076   0.272  0.00  0.00    +0.000 A 
ATOM      5  C   UNL     1       5.158   0.189   0.215  0.00  0.00    +0.000 A 
ATOM      6  C   UNL     1       4.378   1.304  -0.084  0.00  0.00    +0.000 A 
ATOM      7  C   UNL     1       3.012   1.154  -0.330  0.00  0.00    +0.000 A 
ATOM      8  F   UNL     1       6.461   0.370   0.469  0.00  0.00    +0.000 F 
ATOM      9  F   UNL     1       2.667  -2.446   0.029  0.00  0.00    +0.000 F 
ENDROOT
BRANCH   4  10
ATOM     10  C   UNL     1       5.429  -2.236   0.563  0.00  0.00    +0.000 C 
ATOM     11  O   UNL     1       6.476  -2.472  -0.018  0.00  0.00    +0.000 OA
BRANCH  10  12
ATOM     12  O   UNL     1       4.845  -2.928   1.606  0.00  0.00    +0.000 OA
BRANCH  12  13
ATOM     13  C   UNL     1       5.561  -4.064   1.990  0.00  0.00    +0.000 A 
ATOM     14  C   UNL     1       6.713  -3.940   2.766  0.00  0.00    +0.000 A 
ATOM     15  C   UNL     1       7.377  -5.092   3.184  0.00  0.00    +0.000 A 
ATOM     16  C   UNL     1       6.879  -6.350   2.838  0.00  0.00    +0.000 A 
ATOM     17  C   UNL     1       5.713  -6.461   2.078  0.00  0.00    +0.000 A 
ATOM     18  C   UNL     1       5.044  -5.313   1.656  0.00  0.00    +0.000 A 
ENDBRANCH  12  13
ENDBRANCH  10  12
ENDBRANCH   4  10
TORSDOF 3
