MODEL 1
REMARK VINA RESULT:      -5.1      0.000      0.000
REMARK  Name = *****
REMARK  3 active torsions:
REMARK  status: ('A' for Active; 'I' for Inactive)
REMARK    1  A    between atoms: C_4  and  N_7
REMARK    2  A    between atoms: C_8  and  C_9
REMARK    3  A    between atoms: C_11  and  C_15
REMARK                            x       y       z     vdW  Elec       q    Type
REMARK                         _______ _______ _______ _____ _____    ______ ____
ROOT
ATOM      1  C   UNL     1     103.888 125.406  80.804  0.00  0.00    +0.000 A 
ATOM      2  C   UNL     1     103.980 124.084  81.252  0.00  0.00    +0.000 A 
ATOM      3  C   UNL     1     104.964 123.226  80.736  0.00  0.00    +0.000 A 
ATOM      4  C   UNL     1     105.841 123.717  79.753  0.00  0.00    +0.000 A 
ATOM      5  C   UNL     1     105.746 125.036  79.307  0.00  0.00    +0.000 A 
ATOM      6  C   UNL     1     104.771 125.883  79.833  0.00  0.00    +0.000 A 
ENDROOT
BRANCH   3   7
ATOM      7  C   UNL     1     105.049 121.795  81.203  0.00  0.00    +0.000 C 
ATOM      8  F   UNL     1     104.938 121.666  82.554  0.00  0.00    +0.000 F 
ATOM      9  F   UNL     1     104.069 121.017  80.668  0.00  0.00    +0.000 F 
ATOM     10  F   UNL     1     106.226 121.193  80.871  0.00  0.00    +0.000 F 
ENDBRANCH   3   7
BRANCH   1  12
ATOM     11  N   UNL     1     101.932 125.900  82.145  0.00  0.00    +0.000 NA
ATOM     12  C   UNL     1     102.860 126.316  81.343  0.00  0.00    +0.000 C 
BRANCH  11  16
ATOM     13  C   UNL     1      99.202 128.825  83.424  0.00  0.00    +0.000 A 
ATOM     14  C   UNL     1     100.564 128.992  83.665  0.00  0.00    +0.000 A 
ATOM     15  C   UNL     1     101.472 128.019  83.241  0.00  0.00    +0.000 A 
ATOM     16  C   UNL     1     101.022 126.872  82.582  0.00  0.00    +0.000 A 
ATOM     17  C   UNL     1      99.657 126.719  82.329  0.00  0.00    +0.000 A 
ATOM     18  C   UNL     1      98.747 127.690  82.752  0.00  0.00    +0.000 A 
ENDBRANCH  11  16
ENDBRANCH   1  12
TORSDOF 3
ENDMDL
