MODEL 1
REMARK VINA RESULT:      -4.4      0.000      0.000
REMARK  Name = *****
REMARK  5 active torsions:
REMARK  status: ('A' for Active; 'I' for Inactive)
REMARK    1  A    between atoms: C_1  and  O_2
REMARK    2  A    between atoms: O_2  and  C_3
REMARK    3  A    between atoms: C_5  and  C_10
REMARK    4  A    between atoms: C_10  and  S_11
REMARK    5  A    between atoms: S_11  and  C_12
REMARK                            x       y       z     vdW  Elec       q    Type
REMARK                         _______ _______ _______ _____ _____    ______ ____
ROOT
ATOM      1  C   UNL     1     104.111 123.439  82.967  0.00  0.00    +0.000 A 
ATOM      2  C   UNL     1     103.631 124.740  82.787  0.00  0.00    +0.000 A 
ATOM      3  C   UNL     1     103.745 125.380  81.539  0.00  0.00    +0.000 A 
ATOM      4  C   UNL     1     104.350 124.690  80.485  0.00  0.00    +0.000 A 
ATOM      5  C   UNL     1     104.826 123.394  80.650  0.00  0.00    +0.000 A 
ATOM      6  C   UNL     1     104.703 122.771  81.892  0.00  0.00    +0.000 A 
ATOM      7  F   UNL     1     104.473 125.273  79.284  0.00  0.00    +0.000 F 
ENDROOT
BRANCH   1   9
ATOM      8  C   UNL     1     104.483 121.361  84.061  0.00  0.00    +0.000 C 
ATOM      9  O   UNL     1     104.058 122.717  84.126  0.00  0.00    +0.000 OA
ENDBRANCH   1   9
BRANCH   3  10
ATOM     10  C   UNL     1     103.240 126.783  81.340  0.00  0.00    +0.000 C 
BRANCH  10  11
ATOM     11  S   UNL     1     103.024 127.648  82.931  0.00  0.00    +0.000 S 
BRANCH  11  12
ATOM     12  C   UNL     1     101.245 127.764  82.956  0.00  0.00    +0.000 A 
ATOM     13  C   UNL     1     100.480 126.725  82.419  0.00  0.00    +0.000 A 
ATOM     14  C   UNL     1      99.086 126.796  82.435  0.00  0.00    +0.000 A 
ATOM     15  C   UNL     1      98.450 127.902  82.995  0.00  0.00    +0.000 A 
ATOM     16  C   UNL     1      99.207 128.936  83.544  0.00  0.00    +0.000 A 
ATOM     17  C   UNL     1     100.602 128.865  83.529  0.00  0.00    +0.000 A 
ENDBRANCH  11  12
ENDBRANCH  10  11
ENDBRANCH   3  10
TORSDOF 4
ENDMDL
