MODEL 1
REMARK VINA RESULT:      -5.2      0.000      0.000
REMARK  Name = *****
REMARK  1 active torsions:
REMARK  status: ('A' for Active; 'I' for Inactive)
REMARK    1  A    between atoms: C_6  and  C_7
REMARK                            x       y       z     vdW  Elec       q    Type
REMARK                         _______ _______ _______ _____ _____    ______ ____
ROOT
ATOM      1  C   UNL     1      88.486  70.510  86.753  0.00  0.00    +0.000 A 
ATOM      2  C   UNL     1      87.528  71.007  85.852  0.00  0.00    +0.000 A 
ATOM      3  C   UNL     1      86.298  71.527  86.295  0.00  0.00    +0.000 A 
ATOM      4  C   UNL     1      85.341  72.020  85.392  0.00  0.00    +0.000 A 
ATOM      5  C   UNL     1      84.126  72.533  85.850  0.00  0.00    +0.000 A 
ATOM      6  C   UNL     1      83.852  72.561  87.213  0.00  0.00    +0.000 A 
ATOM      7  C   UNL     1      84.793  72.076  88.123  0.00  0.00    +0.000 A 
ATOM      8  C   UNL     1      86.020  71.557  87.679  0.00  0.00    +0.000 A 
ATOM      9  C   UNL     1      86.977  71.068  88.579  0.00  0.00    +0.000 A 
ATOM     10  C   UNL     1      88.195  70.555  88.122  0.00  0.00    +0.000 A 
ENDROOT
BRANCH   1  16
ATOM     11  C   UNL     1      89.851  68.450  86.194  0.00  0.00    +0.000 C 
ATOM     12  C   UNL     1      89.284  67.908  84.887  0.00  0.00    +0.000 C 
ATOM     13  O   UNL     1      89.964  68.417  83.732  0.00  0.00    +0.000 OA
ATOM     14  C   UNL     1      90.249  69.754  83.773  0.00  0.00    +0.000 C 
ATOM     15  C   UNL     1      90.171  70.532  84.859  0.00  0.00    +0.000 C 
ATOM     16  C   UNL     1      89.810  69.986  86.213  0.00  0.00    +0.000 C 
ENDBRANCH   1  16
TORSDOF 1
ENDMDL
