MODEL 1
REMARK VINA RESULT:      -4.7      0.000      0.000
REMARK  Name = *****
REMARK  3 active torsions:
REMARK  status: ('A' for Active; 'I' for Inactive)
REMARK    1  A    between atoms: C_4  and  C_7
REMARK    2  A    between atoms: C_8  and  C_9
REMARK    3  A    between atoms: C_10  and  C_16
REMARK                            x       y       z     vdW  Elec       q    Type
REMARK                         _______ _______ _______ _____ _____    ______ ____
ROOT
ATOM      1  C   UNL     1     101.121 126.982  82.698  0.00  0.00    +0.000 A 
ATOM      2  C   UNL     1     101.421 128.214  83.306  0.00  0.00    +0.000 A 
ATOM      3  C   UNL     1     100.388 129.115  83.575  0.00  0.00    +0.000 A 
ATOM      4  C   UNL     1      99.068 128.820  83.246  0.00  0.00    +0.000 A 
ATOM      5  C   UNL     1      98.765 127.607  82.636  0.00  0.00    +0.000 A 
ATOM      6  C   UNL     1      99.786 126.694  82.360  0.00  0.00    +0.000 A 
ATOM      7  F   UNL     1     100.650 130.293  84.160  0.00  0.00    +0.000 F 
ENDROOT
BRANCH   1   9
ATOM      8  C   UNL     1     102.802 125.985  81.191  0.00  0.00    +0.000 C 
ATOM      9  C   UNL     1     102.173 126.003  82.377  0.00  0.00    +0.000 C 
BRANCH   8  13
ATOM     10  C   UNL     1     105.861 123.138  80.269  0.00  0.00    +0.000 A 
ATOM     11  C   UNL     1     105.690 124.250  79.449  0.00  0.00    +0.000 A 
ATOM     12  C   UNL     1     104.691 125.186  79.734  0.00  0.00    +0.000 A 
ATOM     13  C   UNL     1     103.845 125.010  80.837  0.00  0.00    +0.000 A 
ATOM     14  C   UNL     1     104.038 123.896  81.665  0.00  0.00    +0.000 A 
ATOM     15  C   UNL     1     105.037 122.962  81.380  0.00  0.00    +0.000 A 
ENDBRANCH   8  13
ENDBRANCH   1   9
BRANCH   2  16
ATOM     16  C   UNL     1     102.759 128.572  83.668  0.00  0.00    +0.000 C 
ATOM     17  N   UNL     1     103.842 128.883  83.948  0.00  0.00    +0.000 NA
ENDBRANCH   2  16
TORSDOF 3
ENDMDL
