MODEL 1
REMARK VINA RESULT:      -3.9      0.000      0.000
REMARK  Name = *****
REMARK  3 active torsions:
REMARK  status: ('A' for Active; 'I' for Inactive)
REMARK    1  A    between atoms: C_4  and  C_7
REMARK    2  A    between atoms: C_7  and  C_8
REMARK    3  A    between atoms: C_8  and  C_9
REMARK                            x       y       z     vdW  Elec       q    Type
REMARK                         _______ _______ _______ _____ _____    ______ ____
ROOT
ATOM      1  C   UNL     1     102.832 126.471  82.334  0.00  0.00    +0.000 C 
ATOM      2 CL   UNL     1     103.291 127.634  81.034  0.00  0.00    +0.000 Cl
ENDROOT
BRANCH   1   3
ATOM      3  C   UNL     1     103.540 125.161  82.080  0.00  0.00    +0.000 A 
ATOM      4  C   UNL     1     103.954 124.766  80.797  0.00  0.00    +0.000 A 
ATOM      5  C   UNL     1     104.591 123.538  80.599  0.00  0.00    +0.000 A 
ATOM      6  C   UNL     1     104.826 122.688  81.678  0.00  0.00    +0.000 A 
ATOM      7  C   UNL     1     104.427 123.066  82.958  0.00  0.00    +0.000 A 
ATOM      8  C   UNL     1     103.793 124.292  83.148  0.00  0.00    +0.000 A 
ATOM      9  F   UNL     1     103.417 124.630  84.389  0.00  0.00    +0.000 F 
ENDBRANCH   1   3
BRANCH   1  10
ATOM     10  C   UNL     1     101.297 126.369  82.384  0.00  0.00    +0.000 C 
BRANCH  10  14
ATOM     11  C   UNL     1      99.595 129.523  83.880  0.00  0.00    +0.000 C 
ATOM     12  C   UNL     1     101.097 129.294  83.963  0.00  0.00    +0.000 C 
ATOM     13  S   UNL     1     101.536 127.767  84.840  0.00  0.00    +0.000 S 
ATOM     14  C   UNL     1     100.705 126.527  83.794  0.00  0.00    +0.000 C 
ATOM     15  S   UNL     1      98.902 126.824  83.744  0.00  0.00    +0.000 S 
ATOM     16  C   UNL     1      98.856 128.495  83.036  0.00  0.00    +0.000 C 
ENDBRANCH  10  14
ENDBRANCH   1  10
TORSDOF 3
ENDMDL
