MODEL 1
REMARK VINA RESULT:      -4.4      0.000      0.000
REMARK  Name = *****
REMARK  4 active torsions:
REMARK  status: ('A' for Active; 'I' for Inactive)
REMARK    1  A    between atoms: C_6  and  C_8
REMARK    2  A    between atoms: C_8  and  O_10
REMARK    3  A    between atoms: O_10  and  C_11
REMARK    4  A    between atoms: C_11  and  C_12
REMARK                            x       y       z     vdW  Elec       q    Type
REMARK                         _______ _______ _______ _____ _____    ______ ____
ROOT
ATOM      1  C   UNL     1     103.859 126.555  80.609  0.00  0.00    +0.000 C 
ATOM      2  O   UNL     1     104.829 127.135  80.141  0.00  0.00    +0.000 OA
ENDROOT
BRANCH   1   8
ATOM      3  C   UNL     1     102.643 128.828  83.495  0.00  0.00    +0.000 C 
ATOM      4  C   UNL     1     101.625 128.098  84.368  0.00  0.00    +0.000 C 
ATOM      5  C   UNL     1     100.490 127.461  83.627  0.00  0.00    +0.000 C 
ATOM      6  C   UNL     1     100.582 126.612  82.594  0.00  0.00    +0.000 C 
ATOM      7  C   UNL     1     101.844 126.113  81.952  0.00  0.00    +0.000 C 
ATOM      8  C   UNL     1     102.823 127.202  81.512  0.00  0.00    +0.000 C 
ATOM      9  C   UNL     1     103.539 127.904  82.673  0.00  0.00    +0.000 C 
ENDBRANCH   1   8
BRANCH   1  10
ATOM     10  O   UNL     1     103.553 125.244  80.414  0.00  0.00    +0.000 OA
BRANCH  10  11
ATOM     11  C   UNL     1     104.655 124.362  80.170  0.00  0.00    +0.000 C 
BRANCH  11  12
ATOM     12  C   UNL     1     104.613 123.214  81.146  0.00  0.00    +0.000 A 
ATOM     13  C   UNL     1     104.493 123.455  82.523  0.00  0.00    +0.000 A 
ATOM     14  C   UNL     1     104.424 122.393  83.425  0.00  0.00    +0.000 A 
ATOM     15  C   UNL     1     104.477 121.080  82.963  0.00  0.00    +0.000 A 
ATOM     16  C   UNL     1     104.604 120.828  81.598  0.00  0.00    +0.000 A 
ATOM     17  C   UNL     1     104.674 121.889  80.694  0.00  0.00    +0.000 A 
ENDBRANCH  11  12
ENDBRANCH  10  11
ENDBRANCH   1  10
TORSDOF 4
ENDMDL
