MODEL 1
REMARK VINA RESULT:      -4.5      0.000      0.000
REMARK  Name = *****
REMARK  4 active torsions:
REMARK  status: ('A' for Active; 'I' for Inactive)
REMARK    1  A    between atoms: C_1  and  S_2
REMARK    2  A    between atoms: S_2  and  C_3
REMARK    3  A    between atoms: C_6  and  C_9
REMARK    4  A    between atoms: C_10  and  C_11
REMARK                            x       y       z     vdW  Elec       q    Type
REMARK                         _______ _______ _______ _____ _____    ______ ____
ROOT
ATOM      1  C   UNL     1     105.993 122.764  81.201  0.00  0.00    +0.000 A 
ATOM      2  C   UNL     1     105.528 122.892  82.513  0.00  0.00    +0.000 A 
ATOM      3  C   UNL     1     104.482 123.772  82.810  0.00  0.00    +0.000 A 
ATOM      4  C   UNL     1     103.901 124.535  81.797  0.00  0.00    +0.000 A 
ATOM      5  C   UNL     1     104.370 124.422  80.487  0.00  0.00    +0.000 A 
ATOM      6  C   UNL     1     105.417 123.542  80.192  0.00  0.00    +0.000 A 
ENDROOT
BRANCH   1   8
ATOM      7  C   UNL     1     108.245 122.713  79.618  0.00  0.00    +0.000 C 
ATOM      8  S   UNL     1     107.337 121.667  80.787  0.00  0.00    +0.000 S 
ENDBRANCH   1   8
BRANCH   4   9
ATOM      9  C   UNL     1     102.833 125.436  82.100  0.00  0.00    +0.000 C 
ATOM     10  C   UNL     1     101.935 126.192  82.359  0.00  0.00    +0.000 C 
BRANCH  10  11
ATOM     11  C   UNL     1     100.867 127.090  82.671  0.00  0.00    +0.000 A 
ATOM     12  C   UNL     1     101.136 128.299  83.319  0.00  0.00    +0.000 A 
ATOM     13  C   UNL     1     100.092 129.175  83.625  0.00  0.00    +0.000 A 
ATOM     14  C   UNL     1      98.781 128.843  83.286  0.00  0.00    +0.000 A 
ATOM     15  C   UNL     1      98.510 127.638  82.639  0.00  0.00    +0.000 A 
ATOM     16  C   UNL     1      99.553 126.761  82.332  0.00  0.00    +0.000 A 
ENDBRANCH  10  11
ENDBRANCH   4   9
TORSDOF 3
ENDMDL
