REMARK  Name = *****
REMARK  4 active torsions:
REMARK  status: ('A' for Active; 'I' for Inactive)
REMARK    1  A    between atoms: C_1  and  C_2
REMARK    2  A    between atoms: C_2  and  C_4
REMARK    3  A    between atoms: C_7  and  C_10
REMARK    4  A    between atoms: C_11  and  C_12
REMARK                            x       y       z     vdW  Elec       q    Type
REMARK                         _______ _______ _______ _____ _____    ______ ____
ROOT
ATOM      1  C   UNL     1       3.278  -0.087   1.243  0.00  0.00    +0.000 A 
ATOM      2  C   UNL     1       3.302  -1.162   2.136  0.00  0.00    +0.000 A 
ATOM      3  C   UNL     1       4.053  -1.079   3.315  0.00  0.00    +0.000 A 
ATOM      4  C   UNL     1       4.800   0.068   3.623  0.00  0.00    +0.000 A 
ATOM      5  C   UNL     1       4.758   1.146   2.728  0.00  0.00    +0.000 A 
ATOM      6  C   UNL     1       4.008   1.068   1.548  0.00  0.00    +0.000 A 
ENDROOT
BRANCH   1   8
ATOM      7  C   UNL     1       1.709  -1.359  -0.369  0.00  0.00    +0.000 C 
ATOM      8  C   UNL     1       2.495  -0.120  -0.028  0.00  0.00    +0.000 C 
ATOM      9  O   UNL     1       2.500   0.855  -0.777  0.00  0.00    +0.000 OA
ENDBRANCH   1   8
BRANCH   4  10
ATOM     10  C   UNL     1       5.560   0.101   4.885  0.00  0.00    +0.000 C 
ATOM     11  C   UNL     1       6.639   0.863   5.122  0.00  0.00    +0.000 C 
ATOM     12  F   UNL     1       5.146  -0.745   5.857  0.00  0.00    +0.000 F 
BRANCH  11  13
ATOM     13  C   UNL     1       7.403   0.856   6.424  0.00  0.00    +0.000 C 
ATOM     14  C   UNL     1       7.396   2.257   7.054  0.00  0.00    +0.000 C 
ATOM     15  C   UNL     1       8.219   2.300   8.340  0.00  0.00    +0.000 C 
ATOM     16  C   UNL     1       9.644   1.804   8.113  0.00  0.00    +0.000 C 
ATOM     17  C   UNL     1       9.662   0.414   7.483  0.00  0.00    +0.000 C 
ATOM     18  C   UNL     1       8.843   0.369   6.195  0.00  0.00    +0.000 C 
ENDBRANCH  11  13
ENDBRANCH   4  10
TORSDOF 3
